162819620
  -OEChem-03202619002D

 62 63  0     1  0  0  0  0  0999 V2000
    7.7331   -0.5950    0.0000 O   0  0  0  0  0  0  0  0  0  0  0  0
    9.4651   -0.5950    0.0000 O   0  0  0  0  0  0  0  0  0  0  0  0
    6.0010    0.4050    0.0000 O   0  0  0  0  0  0  0  0  0  0  0  0
    6.0010   -2.5950    0.0000 O   0  0  0  0  0  0  0  0  0  0  0  0
    7.7331   -3.5950    0.0000 O   0  0  0  0  0  0  0  0  0  0  0  0
    4.2690    0.4050    0.0000 O   0  0  0  0  0  0  0  0  0  0  0  0
    9.4651   -2.5950    0.0000 O   0  0  0  0  0  0  0  0  0  0  0  0
    6.0010    2.4050    0.0000 O   0  0  0  0  0  0  0  0  0  0  0  0
    4.2690    3.4050    0.0000 O   0  0  0  0  0  0  0  0  0  0  0  0
    2.5369    2.4050    0.0000 O   0  0  0  0  0  0  0  0  0  0  0  0
    6.8671   -1.0950    0.0000 C   0  0  3  0  0  0  0  0  0  0  0  0
    6.8671   -2.0950    0.0000 C   0  0  3  0  0  0  0  0  0  0  0  0
    7.7331   -2.5950    0.0000 C   0  0  3  0  0  0  0  0  0  0  0  0
    8.5991   -2.0950    0.0000 C   0  0  3  0  0  0  0  0  0  0  0  0
    8.5991   -1.0950    0.0000 C   0  0  3  0  0  0  0  0  0  0  0  0
    6.0010   -0.5950    0.0000 C   0  0  0  0  0  0  0  0  0  0  0  0
    5.1350    0.9050    0.0000 C   0  0  3  0  0  0  0  0  0  0  0  0
    5.1350    1.9050    0.0000 C   0  0  3  0  0  0  0  0  0  0  0  0
    4.2690    2.4050    0.0000 C   0  0  3  0  0  0  0  0  0  0  0  0
    3.4030    1.9050    0.0000 C   0  0  3  0  0  0  0  0  0  0  0  0
    9.4651    0.4050    0.0000 C   0  0  3  0  0  0  0  0  0  0  0  0
    3.4030    0.9050    0.0000 C   0  0  0  0  0  0  0  0  0  0  0  0
   10.3312    0.9050    0.0000 C   0  0  0  0  0  0  0  0  0  0  0  0
   10.3312    1.9050    0.0000 C   0  0  0  0  0  0  0  0  0  0  0  0
    8.5991    0.9050    0.0000 C   0  0  0  0  0  0  0  0  0  0  0  0
   11.1972    2.4050    0.0000 C   0  0  0  0  0  0  0  0  0  0  0  0
   11.1972    3.4050    0.0000 C   0  0  0  0  0  0  0  0  0  0  0  0
   12.0632    3.9050    0.0000 C   0  0  0  0  0  0  0  0  0  0  0  0
    6.8671   -0.4750    0.0000 H   0  0  0  0  0  0  0  0  0  0  0  0
    6.8671   -2.7150    0.0000 H   0  0  0  0  0  0  0  0  0  0  0  0
    7.1962   -2.9050    0.0000 H   0  0  0  0  0  0  0  0  0  0  0  0
    8.5991   -2.7150    0.0000 H   0  0  0  0  0  0  0  0  0  0  0  0
    8.5991   -0.4750    0.0000 H   0  0  0  0  0  0  0  0  0  0  0  0
    5.3905   -0.4873    0.0000 H   0  0  0  0  0  0  0  0  0  0  0  0
    5.7890   -1.1776    0.0000 H   0  0  0  0  0  0  0  0  0  0  0  0
    5.6720    1.2150    0.0000 H   0  0  0  0  0  0  0  0  0  0  0  0
    5.1350    2.5250    0.0000 H   0  0  0  0  0  0  0  0  0  0  0  0
    3.7320    2.7150    0.0000 H   0  0  0  0  0  0  0  0  0  0  0  0
    3.9399    1.5950    0.0000 H   0  0  0  0  0  0  0  0  0  0  0  0
   10.0021    0.0950    0.0000 H   0  0  0  0  0  0  0  0  0  0  0  0
    2.7924    1.0127    0.0000 H   0  0  0  0  0  0  0  0  0  0  0  0
    3.1909    0.3224    0.0000 H   0  0  0  0  0  0  0  0  0  0  0  0
   10.5432    0.3224    0.0000 H   0  0  0  0  0  0  0  0  0  0  0  0
   10.9417    1.0127    0.0000 H   0  0  0  0  0  0  0  0  0  0  0  0
    5.4641   -2.2850    0.0000 H   0  0  0  0  0  0  0  0  0  0  0  0
    7.1962   -3.9050    0.0000 H   0  0  0  0  0  0  0  0  0  0  0  0
   10.0021   -2.2850    0.0000 H   0  0  0  0  0  0  0  0  0  0  0  0
   10.1191    2.4876    0.0000 H   0  0  0  0  0  0  0  0  0  0  0  0
    9.7206    1.7973    0.0000 H   0  0  0  0  0  0  0  0  0  0  0  0
    8.9091    1.4419    0.0000 H   0  0  0  0  0  0  0  0  0  0  0  0
    8.0622    1.2150    0.0000 H   0  0  0  0  0  0  0  0  0  0  0  0
    8.2891    0.3681    0.0000 H   0  0  0  0  0  0  0  0  0  0  0  0
    6.0010    3.0250    0.0000 H   0  0  0  0  0  0  0  0  0  0  0  0
   11.4092    1.8224    0.0000 H   0  0  0  0  0  0  0  0  0  0  0  0
   11.8078    2.5127    0.0000 H   0  0  0  0  0  0  0  0  0  0  0  0
    3.7320    3.7150    0.0000 H   0  0  0  0  0  0  0  0  0  0  0  0
    2.0000    2.0950    0.0000 H   0  0  0  0  0  0  0  0  0  0  0  0
   10.9851    3.9876    0.0000 H   0  0  0  0  0  0  0  0  0  0  0  0
   10.5866    3.2973    0.0000 H   0  0  0  0  0  0  0  0  0  0  0  0
   12.3732    3.3681    0.0000 H   0  0  0  0  0  0  0  0  0  0  0  0
   12.6002    4.2150    0.0000 H   0  0  0  0  0  0  0  0  0  0  0  0
   11.7532    4.4419    0.0000 H   0  0  0  0  0  0  0  0  0  0  0  0
  1 11  1  0  0  0  0
  1 15  1  0  0  0  0
  2 15  1  0  0  0  0
  2 21  1  0  0  0  0
  3 16  1  0  0  0  0
  3 17  1  0  0  0  0
  4 12  1  0  0  0  0
  4 45  1  0  0  0  0
  5 13  1  0  0  0  0
  5 46  1  0  0  0  0
  6 17  1  0  0  0  0
  6 22  1  0  0  0  0
  7 14  1  0  0  0  0
  7 47  1  0  0  0  0
  8 18  1  0  0  0  0
  8 53  1  0  0  0  0
  9 19  1  0  0  0  0
  9 56  1  0  0  0  0
 10 20  1  0  0  0  0
 10 57  1  0  0  0  0
 11 12  1  0  0  0  0
 11 16  1  0  0  0  0
 11 29  1  0  0  0  0
 12 13  1  0  0  0  0
 12 30  1  0  0  0  0
 13 14  1  0  0  0  0
 13 31  1  0  0  0  0
 14 15  1  0  0  0  0
 14 32  1  0  0  0  0
 15 33  1  0  0  0  0
 16 34  1  0  0  0  0
 16 35  1  0  0  0  0
 17 18  1  0  0  0  0
 17 36  1  0  0  0  0
 18 19  1  0  0  0  0
 18 37  1  0  0  0  0
 19 20  1  0  0  0  0
 19 38  1  0  0  0  0
 20 22  1  0  0  0  0
 20 39  1  0  0  0  0
 21 23  1  0  0  0  0
 21 25  1  0  0  0  0
 21 40  1  0  0  0  0
 22 41  1  0  0  0  0
 22 42  1  0  0  0  0
 23 24  1  0  0  0  0
 23 43  1  0  0  0  0
 23 44  1  0  0  0  0
 24 26  1  0  0  0  0
 24 48  1  0  0  0  0
 24 49  1  0  0  0  0
 25 50  1  0  0  0  0
 25 51  1  0  0  0  0
 25 52  1  0  0  0  0
 26 27  1  0  0  0  0
 26 54  1  0  0  0  0
 26 55  1  0  0  0  0
 27 28  1  0  0  0  0
 27 58  1  0  0  0  0
 27 59  1  0  0  0  0
 28 60  1  0  0  0  0
 28 61  1  0  0  0  0
 28 62  1  0  0  0  0
M  END
> <PUBCHEM_COMPOUND_CID>
162819620

> <PUBCHEM_COMPOUND_CANONICALIZED>
1

> <PUBCHEM_CACTVS_COMPLEXITY>
452

> <PUBCHEM_CACTVS_HBOND_ACCEPTOR>
10

> <PUBCHEM_CACTVS_HBOND_DONOR>
6

> <PUBCHEM_CACTVS_ROTATABLE_BOND>
9

> <PUBCHEM_CACTVS_SUBSKEYS>
AAADcfB4PAAAAAAAAAAAAAAAAAAAAAAAAAAkSAAAAAAAAAAAAAAAGgAACAAACBSwgAMCCAAABgAAAAAAAAAAAAAAAAAAAAAAAAAREAIAAAAiQAAFAAAHAAHA4AwAAAAAAAAAAAAAAAAAAAAAAAAAAAAAAA==

> <PUBCHEM_IUPAC_OPENEYE_NAME>
2-(1-methylhexoxy)-6-[(3,4,5-trihydroxytetrahydropyran-2-yl)oxymethyl]tetrahydropyran-3,4,5-triol

> <PUBCHEM_IUPAC_CAS_NAME>
2-heptan-2-yloxy-6-[(3,4,5-trihydroxy-2-oxanyl)oxymethyl]oxane-3,4,5-triol

> <PUBCHEM_IUPAC_NAME_MARKUP>
2-heptan-2-yloxy-6-[(3,4,5-trihydroxyoxan-2-yl)oxymethyl]oxane-3,4,5-triol

> <PUBCHEM_IUPAC_NAME>
2-heptan-2-yloxy-6-[(3,4,5-trihydroxyoxan-2-yl)oxymethyl]oxane-3,4,5-triol

> <PUBCHEM_IUPAC_SYSTEMATIC_NAME>
2-heptan-2-yloxy-6-[[3,4,5-tris(oxidanyl)oxan-2-yl]oxymethyl]oxane-3,4,5-triol

> <PUBCHEM_IUPAC_TRADITIONAL_NAME>
2-(1-methylhexoxy)-6-[(3,4,5-trihydroxytetrahydropyran-2-yl)oxymethyl]tetrahydropyran-3,4,5-triol

> <PUBCHEM_IUPAC_INCHI>
InChI=1S/C18H34O10/c1-3-4-5-6-9(2)27-18-16(24)14(22)13(21)11(28-18)8-26-17-15(23)12(20)10(19)7-25-17/h9-24H,3-8H2,1-2H3

> <PUBCHEM_IUPAC_INCHIKEY>
CMNGMGGJQXLNNS-UHFFFAOYSA-N

> <PUBCHEM_XLOGP3_AA>
-1.4

> <PUBCHEM_EXACT_MASS>
410.21519728

> <PUBCHEM_MOLECULAR_FORMULA>
C18H34O10

> <PUBCHEM_MOLECULAR_WEIGHT>
410.5

> <PUBCHEM_SMILES>
CCCCCC(C)OC1C(C(C(C(O1)COC2C(C(C(CO2)O)O)O)O)O)O

> <PUBCHEM_CONNECTIVITY_SMILES>
CCCCCC(C)OC1C(C(C(C(O1)COC2C(C(C(CO2)O)O)O)O)O)O

> <PUBCHEM_CACTVS_TPSA>
158

> <PUBCHEM_MONOISOTOPIC_WEIGHT>
410.21519728

> <PUBCHEM_TOTAL_CHARGE>
0

> <PUBCHEM_HEAVY_ATOM_COUNT>
28

> <PUBCHEM_ATOM_DEF_STEREO_COUNT>
0

> <PUBCHEM_ATOM_UDEF_STEREO_COUNT>
10

> <PUBCHEM_BOND_DEF_STEREO_COUNT>
0

> <PUBCHEM_BOND_UDEF_STEREO_COUNT>
0

> <PUBCHEM_ISOTOPIC_ATOM_COUNT>
0

> <PUBCHEM_COMPONENT_COUNT>
1

> <PUBCHEM_CACTVS_TAUTO_COUNT>
-1

> <PUBCHEM_COORDINATE_TYPE>
1
5
255

> <PUBCHEM_BONDANNOTATIONS>
20  10  3
11  16  3
15  2  3
21  25  3
17  3  3
12  4  3
13  5  3
14  7  3
18  8  3
19  9  3

$$$$
