BFWUQAGBKULWHY-UHFFFAOYSA-N


 39 42  0  0  0  0  0  0  0  0999 V2000
    3.7797   22.5478   65.2300 C   0  0  0  0  0
    5.1319   24.6743   65.3175 C   0  0  0  0  0
    3.9421   25.5469   65.5684 C   0  0  0  0  0
    2.0140   26.2914   64.4801 C   0  0  0  0  0
    1.4458   26.9766   63.2767 C   0  0  0  0  0
    1.6294   28.9383   61.6953 C   0  0  0  0  0
   -0.2927   29.9406   60.7324 C   0  0  0  0  0
    0.5152   30.7572   59.9461 C   0  0  0  0  0
    1.8982   30.6363   60.0619 C   0  0  0  0  0
    3.6723   28.0204   62.8145 C   0  0  0  0  0
    4.0585   27.4297   64.1699 C   0  0  0  0  0
    6.2346   22.4697   65.6088 C   0  0  0  0  0
    6.9780   22.6364   66.7936 C   0  0  0  0  0
    7.2219   23.7826   68.9877 C   0  0  0  0  0
    8.3913   24.7181   68.7460 C   0  0  0  0  0
    8.1423   21.8755   66.9896 C   0  0  0  0  0
    8.5588   20.9571   66.0245 C   0  0  0  0  0
    7.8144   20.7869   64.8554 C   0  0  0  0  0
    6.6566   21.5392   64.6492 C   0  0  0  0  0
    3.5759   21.2065   65.8730 C   0  0  0  0  0
    2.5735   20.3489   65.1180 C   0  0  0  0  0
    3.9439   21.0576   68.3297 C   0  0  0  0  0
    5.0647   20.1995   68.2515 C   0  0  0  0  0
    5.8166   19.9262   69.3993 C   0  0  0  0  0
    5.4631   20.4943   70.6252 C   0  0  0  0  0
    4.3507   21.3345   70.7097 C   0  0  0  0  0
    3.5957   21.6124   69.5663 C   0  0  0  0  0
    5.0394   23.2356   65.3784 N   0  0  0  0  0
    3.4535   26.1074   64.3185 N   0  0  0  0  0
    2.2173   28.0070   62.6248 N   0  0  0  0  0
    0.2752   29.0519   61.5887 N   0  0  0  0  0
    2.4277   29.7379   60.9325 N   0  0  0  0  0
    0.3113   26.6353   62.8469 O   0  0  0  0  0
    6.2409   25.2239   65.0773 O   0  0  0  0  0
    6.5303   23.5389   67.7678 O   0  0  0  0  0
    2.8236   23.0956   64.6153 O   0  0  0  0  0
    3.1540   21.3840   67.2194 O   0  0  0  0  0
   -0.0320   31.6479   59.0848 F   0  0  0  0  0
    5.4165   19.5968   67.0891 F   0  0  0  0  0
  1 28  1  0  0  0
  3  2  1  0  0  0
  3 29  1  0  0  0
  4 29  1  0  0  0
  4  5  1  0  0  0
  5 30  1  0  0  0
  6 32  1  0  0  0
  7 31  1  0  0  0
  8 38  1  0  0  0
  8  9  1  0  0  0
 10 30  1  0  0  0
 10 11  1  0  0  0
 11 29  1  0  0  0
 13 35  1  0  0  0
 13 16  1  0  0  0
 14 35  1  0  0  0
 14 15  1  0  0  0
 17 18  1  0  0  0
 19 12  1  0  0  0
 20  1  1  0  0  0
 20 21  1  0  0  0
 20 37  1  0  0  0
 22 37  1  0  0  0
 23 39  1  0  0  0
 23 24  1  0  0  0
 25 26  1  0  0  0
 27 22  1  0  0  0
 28  2  1  0  0  0
 28 12  1  0  0  0
 30  6  1  0  0  0
  1 36  2  0  0  0
  2 34  2  0  0  0
  5 33  2  0  0  0
  6 31  2  0  0  0
  7  8  2  0  0  0
  9 32  2  0  0  0
 12 13  2  0  0  0
 16 17  2  0  0  0
 18 19  2  0  0  0
 22 23  2  0  0  0
 24 25  2  0  0  0
 26 27  2  0  0  0
M  END
> <rmsd>
0.839442968

$$$$
