PubChem-101660963


 27 29  0  0  0  0  0  0  0  0999 V2000
    2.2714   24.2199   65.5923 C   0  0  0  0  0
    3.2697   25.0696   64.8052 C   0  0  0  0  0
    4.6175   25.0608   65.5302 C   0  0  0  0  0
    5.0251   23.6364   65.9109 C   0  0  0  0  0
    3.8380   22.9256   66.5701 C   0  0  0  0  0
    4.1777   21.1156   68.2219 C   0  0  0  0  0
    3.7920   21.9348   69.2961 C   0  0  0  0  0
    3.7805   21.4287   70.5990 C   0  0  0  0  0
    4.1539   20.1030   70.8367 C   0  0  0  0  0
    4.5385   19.2837   69.7716 C   0  0  0  0  0
    4.5500   19.7897   68.4681 C   0  0  0  0  0
    2.6580   26.6113   63.3355 C   0  0  0  0  0
    1.2276   27.0849   63.0254 C   0  0  0  0  0
    1.2008   28.2385   62.0139 C   0  0  0  0  0
    2.2905   28.0865   60.9356 C   0  0  0  0  0
    3.6048   27.5026   61.5132 C   0  0  0  0  0
    4.8645   28.1448   60.9473 C   0  0  0  0  0
    2.7429   22.8994   65.6881 O   0  0  0  0  0
    4.2004   21.5925   66.9084 O   0  0  0  0  0
    6.1010   23.6822   66.7987 O   0  0  0  0  0
    5.5966   25.6285   64.7139 O   0  0  0  0  0
    2.7923   26.3790   64.7062 O   0  0  0  0  0
    3.6130   27.5552   62.9178 O   0  0  0  0  0
    5.9867   27.4208   61.3497 O   0  0  0  0  0
    2.4882   29.2990   60.2654 O   0  0  0  0  0
    1.3570   29.4470   62.6978 O   0  0  0  0  0
    0.4796   26.0129   62.5393 O   0  0  0  0  0
  1  2  1  0  0  0
  1 18  1  0  0  0
  2  3  1  0  0  0
  2 22  1  0  0  0
  3  4  1  0  0  0
  3 21  1  0  0  0
  4  5  1  0  0  0
  4 20  1  0  0  0
  5 18  1  0  0  0
  5 19  1  0  0  0
  6 19  1  0  0  0
  7  8  1  0  0  0
  9 10  1  0  0  0
 11  6  1  0  0  0
 12 22  1  0  0  0
 12 13  1  0  0  0
 12 23  1  0  0  0
 13 14  1  0  0  0
 13 27  1  0  0  0
 14 15  1  0  0  0
 14 26  1  0  0  0
 15 16  1  0  0  0
 15 25  1  0  0  0
 16 23  1  0  0  0
 16 17  1  0  0  0
 17 24  1  0  0  0
  6  7  2  0  0  0
  8  9  2  0  0  0
 10 11  2  0  0  0
M  END
> <rmsd>
0.663439751

$$$$
PubChem-101660964


 29 31  0  0  0  0  0  0  0  0999 V2000
    5.9639   18.5976   72.3495 C   0  0  0  0  0
    5.1696   20.3133   70.7545 C   0  0  0  0  0
    4.8034   21.6443   70.5322 C   0  0  0  0  0
    4.3938   22.0606   69.2626 C   0  0  0  0  0
    4.3478   21.1463   68.1978 C   0  0  0  0  0
    4.7117   19.8148   68.4205 C   0  0  0  0  0
    5.1212   19.3984   69.6903 C   0  0  0  0  0
    3.6187   22.8760   66.5764 C   0  0  0  0  0
    4.8468   23.5801   65.9804 C   0  0  0  0  0
    4.4757   25.0132   65.5951 C   0  0  0  0  0
    3.1640   25.0476   64.8079 C   0  0  0  0  0
    2.1196   24.2024   65.5373 C   0  0  0  0  0
    2.6426   26.6138   63.3294 C   0  0  0  0  0
    1.2347   27.1094   62.9568 C   0  0  0  0  0
    1.2709   28.2744   61.9589 C   0  0  0  0  0
    2.4093   28.1204   60.9323 C   0  0  0  0  0
    3.6870   27.5133   61.5654 C   0  0  0  0  0
    4.9801   28.1459   61.0683 C   0  0  0  0  0
    5.5752   19.9279   72.0352 O   0  0  0  0  0
    3.9394   21.5314   66.9169 O   0  0  0  0  0
    2.5705   22.8752   65.6387 O   0  0  0  0  0
    2.7080   26.3640   64.7020 O   0  0  0  0  0
    3.6282   27.5500   62.9693 O   0  0  0  0  0
    6.0728   27.4032   61.5154 O   0  0  0  0  0
    2.6537   29.3375   60.2864 O   0  0  0  0  0
    1.4091   29.4732   62.6637 O   0  0  0  0  0
    0.4976   26.0529   62.4231 O   0  0  0  0  0
    5.4995   25.5757   64.8315 O   0  0  0  0  0
    5.8865   23.6048   66.9110 O   0  0  0  0  0
  1 19  1  0  0  0
  2 19  1  0  0  0
  3  4  1  0  0  0
  5  6  1  0  0  0
  5 20  1  0  0  0
  7  2  1  0  0  0
  8 20  1  0  0  0
  8  9  1  0  0  0
  8 21  1  0  0  0
  9 10  1  0  0  0
  9 29  1  0  0  0
 10 11  1  0  0  0
 10 28  1  0  0  0
 11 12  1  0  0  0
 11 22  1  0  0  0
 12 21  1  0  0  0
 13 22  1  0  0  0
 13 14  1  0  0  0
 13 23  1  0  0  0
 14 15  1  0  0  0
 14 27  1  0  0  0
 15 16  1  0  0  0
 15 26  1  0  0  0
 16 17  1  0  0  0
 16 25  1  0  0  0
 17 23  1  0  0  0
 17 18  1  0  0  0
 18 24  1  0  0  0
  2  3  2  0  0  0
  4  5  2  0  0  0
  6  7  2  0  0  0
M  END
> <rmsd>
0.646976411

$$$$
PubChem-101459028


 38 40  0  0  0  0  0  0  0  0999 V2000
    8.0610   22.1818   78.1666 C   0  0  0  0  0
    7.4841   21.6244   76.8822 C   0  0  0  0  0
    6.0360   21.2414   77.1051 C   0  0  0  0  0
    5.4534   20.6984   75.8176 C   0  0  0  0  0
    4.0014   20.3191   76.0413 C   0  0  0  0  0
    3.3762   19.7984   74.7564 C   0  0  0  0  0
    2.9316   20.9440   73.8575 C   0  0  0  0  0
    4.0810   21.4477   73.0007 C   0  0  0  0  0
    4.3698   20.7138   70.6559 C   0  0  0  0  0
    3.9688   21.9588   70.1475 C   0  0  0  0  0
    3.9228   22.1735   68.7682 C   0  0  0  0  0
    4.2775   21.1475   67.8774 C   0  0  0  0  0
    4.6753   19.9078   68.3882 C   0  0  0  0  0
    4.7222   19.6922   69.7686 C   0  0  0  0  0
    3.9126   22.5387   65.8094 C   0  0  0  0  0
    5.0874   23.5327   65.7321 C   0  0  0  0  0
    4.5802   24.9578   65.5051 C   0  0  0  0  0
    3.2664   24.9632   64.7199 C   0  0  0  0  0
    2.2202   24.0420   65.3831 C   0  0  0  0  0
    1.3853   23.3212   64.3342 C   0  0  0  0  0
    2.6415   26.5242   63.2730 C   0  0  0  0  0
    1.2273   27.0463   62.9655 C   0  0  0  0  0
    1.2389   28.2170   61.9749 C   0  0  0  0  0
    2.3308   28.0575   60.9000 C   0  0  0  0  0
    3.6236   27.4206   61.4701 C   0  0  0  0  0
    4.9039   28.0374   60.9232 C   0  0  0  0  0
    4.4272   20.4675   72.0304 O   0  0  0  0  0
    4.2411   21.3208   66.4855 O   0  0  0  0  0
    2.7508   23.1373   66.3391 O   0  0  0  0  0
    0.2835   22.7187   64.9402 O   0  0  0  0  0
    2.7613   26.2645   64.6402 O   0  0  0  0  0
    3.6278   27.4450   62.8757 O   0  0  0  0  0
    6.0027   27.2685   61.3064 O   0  0  0  0  0
    2.5682   29.2787   60.2588 O   0  0  0  0  0
    1.4168   29.4097   62.6805 O   0  0  0  0  0
    0.4498   26.0062   62.4573 O   0  0  0  0  0
    5.5501   25.6958   64.8251 O   0  0  0  0  0
    5.8637   23.5016   66.8912 O   0  0  0  0  0
  1  2  1  0  0  0
  2  3  1  0  0  0
  3  4  1  0  0  0
  4  5  1  0  0  0
  5  6  1  0  0  0
  6  7  1  0  0  0
  7  8  1  0  0  0
  8 27  1  0  0  0
  9 27  1  0  0  0
 10 11  1  0  0  0
 12 13  1  0  0  0
 12 28  1  0  0  0
 14  9  1  0  0  0
 15 28  1  0  0  0
 15 16  1  0  0  0
 15 29  1  0  0  0
 16 17  1  0  0  0
 16 38  1  0  0  0
 17 18  1  0  0  0
 17 37  1  0  0  0
 18 19  1  0  0  0
 18 31  1  0  0  0
 19 29  1  0  0  0
 19 20  1  0  0  0
 20 30  1  0  0  0
 21 31  1  0  0  0
 21 22  1  0  0  0
 21 32  1  0  0  0
 22 23  1  0  0  0
 22 36  1  0  0  0
 23 24  1  0  0  0
 23 35  1  0  0  0
 24 25  1  0  0  0
 24 34  1  0  0  0
 25 32  1  0  0  0
 25 26  1  0  0  0
 26 33  1  0  0  0
  9 10  2  0  0  0
 11 12  2  0  0  0
 13 14  2  0  0  0
M  END
> <rmsd>
0.736020625

$$$$
