PubChem-118205091


 32 36  0  0  0  0  0  0  0  0999 V2000
    4.4925   17.6426   72.4428 C   0  0  0  0  0
    3.4245   17.3015   71.6064 C   0  0  0  0  0
    3.1549   18.0623   70.4643 C   0  0  0  0  0
    3.9536   19.1671   70.1576 C   0  0  0  0  0
    3.6896   19.9325   69.0195 C   0  0  0  0  0
    4.4844   21.0471   68.7065 C   0  0  0  0  0
    5.5503   21.3823   69.5588 C   0  0  0  0  0
    5.8230   20.6219   70.6995 C   0  0  0  0  0
    5.0305   19.5136   71.0038 C   0  0  0  0  0
    5.2953   18.7476   72.1425 C   0  0  0  0  0
    4.1815   21.8431   67.4915 C   0  0  0  0  0
    4.9243   22.9611   67.0942 C   0  0  0  0  0
    4.5862   23.6369   65.9720 C   0  0  0  0  0
    2.8037   22.1960   65.5608 C   0  0  0  0  0
    6.2951   24.5717   66.8354 C   0  0  0  0  0
    5.4822   25.6293   64.7073 C   0  0  0  0  0
    5.9738   24.9712   63.4293 C   0  0  0  0  0
    4.9372   25.3279   62.4064 C   0  0  0  0  0
    4.1451   26.4164   63.1086 C   0  0  0  0  0
    2.7014   26.5086   62.6345 C   0  0  0  0  0
    3.5412   23.2824   65.1873 N   0  0  0  0  0
    3.1232   21.4941   66.6947 N   0  0  0  0  0
    5.4332   24.6579   65.7932 N   0  0  0  0  0
    6.0050   23.5301   67.6646 N   0  0  0  0  0
    4.2070   26.1814   64.4889 O   0  0  0  0  0
    2.0841   27.6228   63.2064 O   0  0  0  0  0
    0.3459   29.4551   62.5287 O   0  0  0  0  0
    1.9611   28.6573   60.6361 O   0  0  0  0  0
   -0.0895   27.0599   61.5783 O   0  0  0  0  0
    4.1432   24.2023   62.1668 O   0  0  0  0  0
    7.2012   25.5246   63.0657 O   0  0  0  0  0
    1.0574   28.2301   62.0019 P   0  0  0  0  0
  2  3  1  0  0  0
  4  5  1  0  0  0
  6  7  1  0  0  0
  6 11  1  0  0  0
  8  9  1  0  0  0
  9  4  1  0  0  0
 10  1  1  0  0  0
 11 22  1  0  0  0
 12 13  1  0  0  0
 12 24  1  0  0  0
 13 23  1  0  0  0
 14 21  1  0  0  0
 16 23  1  0  0  0
 16 17  1  0  0  0
 16 25  1  0  0  0
 17 18  1  0  0  0
 17 31  1  0  0  0
 18 19  1  0  0  0
 18 30  1  0  0  0
 19 25  1  0  0  0
 19 20  1  0  0  0
 20 26  1  0  0  0
 23 15  1  0  0  0
 32 26  1  0  0  0
 32 28  1  0  0  0
 32 29  1  0  0  0
  1  2  2  0  0  0
  3  4  2  0  0  0
  5  6  2  0  0  0
  7  8  2  0  0  0
  9 10  2  0  0  0
 11 12  2  0  0  0
 13 21  2  0  0  0
 14 22  2  0  0  0
 15 24  2  0  0  0
 32 27  2  0  0  0
M  END
> <rmsd>
0.709325612

$$$$
