PubChem-23757169


 32 35  0  0  0  0  0  0  0  0999 V2000
    6.5851   27.3288   65.0196 C   0  0  0  0  0
    5.2619   25.2533   65.5015 C   0  0  0  0  0
    4.0810   25.6813   64.8459 C   0  0  0  0  0
    2.9696   24.8272   64.8176 C   0  0  0  0  0
    3.0070   23.5671   65.4088 C   0  0  0  0  0
    4.1770   23.1326   66.0552 C   0  0  0  0  0
    5.2944   23.9876   66.1090 C   0  0  0  0  0
    6.5075   22.4391   67.6371 C   0  0  0  0  0
    5.6342   21.2951   67.1135 C   0  0  0  0  0
    4.2912   21.7953   66.6804 C   0  0  0  0  0
    6.1797   22.8140   69.0516 C   0  0  0  0  0
    4.9484   23.3967   69.3885 C   0  0  0  0  0
    4.6743   23.7459   70.7138 C   0  0  0  0  0
    5.6299   23.5176   71.7080 C   0  0  0  0  0
    6.8595   22.9411   71.3766 C   0  0  0  0  0
    7.1336   22.5917   70.0508 C   0  0  0  0  0
    2.9452   27.4639   63.4582 C   0  0  0  0  0
    2.9659   26.9324   62.0195 C   0  0  0  0  0
    1.8825   27.6359   61.2038 C   0  0  0  0  0
    0.5437   27.6864   61.9513 C   0  0  0  0  0
    0.7170   28.0569   63.4338 C   0  0  0  0  0
    0.9246   29.5551   63.6437 C   0  0  0  0  0
    6.4251   26.0372   65.5883 O   0  0  0  0  0
    6.4607   23.5791   66.7738 O   0  0  0  0  0
    3.2791   21.0692   66.8654 O   0  0  0  0  0
    1.8783   22.7593   65.3352 O   0  0  0  0  0
    4.0231   26.9511   64.2471 O   0  0  0  0  0
    1.6953   27.2666   64.0858 O   0  0  0  0  0
    0.8447   29.8579   65.0027 O   0  0  0  0  0
   -0.1008   26.4530   61.8497 O   0  0  0  0  0
    2.2967   28.9287   60.8797 O   0  0  0  0  0
    2.7590   25.5525   61.9881 O   0  0  0  0  0
  1 23  1  0  0  0
  2 23  1  0  0  0
  3  4  1  0  0  0
  3 27  1  0  0  0
  5  6  1  0  0  0
  5 26  1  0  0  0
  7 24  1  0  0  0
  7  2  1  0  0  0
  8 24  1  0  0  0
  8  9  1  0  0  0
  8 11  1  0  0  0
  9 10  1  0  0  0
 10  6  1  0  0  0
 12 13  1  0  0  0
 14 15  1  0  0  0
 16 11  1  0  0  0
 17 27  1  0  0  0
 17 18  1  0  0  0
 17 28  1  0  0  0
 18 19  1  0  0  0
 18 32  1  0  0  0
 19 20  1  0  0  0
 19 31  1  0  0  0
 20 21  1  0  0  0
 20 30  1  0  0  0
 21 28  1  0  0  0
 21 22  1  0  0  0
 22 29  1  0  0  0
  2  3  2  0  0  0
  4  5  2  0  0  0
  6  7  2  0  0  0
 10 25  2  0  0  0
 11 12  2  0  0  0
 13 14  2  0  0  0
 15 16  2  0  0  0
M  END
> <rmsd>
0.676634014

$$$$
PubChem-121351288 PubChem-159218162


 28 31  0  0  0  0  0  0  0  0999 V2000
    1.8419   32.3446   63.0450 C   0  0  0  0  0
    2.8788   32.5690   62.1360 C   0  0  0  0  0
    3.2555   31.5606   61.2462 C   0  0  0  0  0
    2.5895   30.3140   61.2607 C   0  0  0  0  0
    1.5418   30.0975   62.1741 C   0  0  0  0  0
    1.1795   31.1135   63.0661 C   0  0  0  0  0
    0.8251   28.7902   62.2386 C   0  0  0  0  0
    1.1394   26.5168   63.2861 C   0  0  0  0  0
    1.9722   25.6103   64.1076 C   0  0  0  0  0
    1.6089   24.2810   64.4006 C   0  0  0  0  0
    3.6186   23.9856   65.6455 C   0  0  0  0  0
    3.9810   25.3202   65.3579 C   0  0  0  0  0
    5.2721   25.9221   65.8013 C   0  0  0  0  0
    5.1284   21.3137   67.3900 C   0  0  0  0  0
    5.9644   22.3600   67.7421 C   0  0  0  0  0
    3.9849   29.5297   59.5023 C   0  0  0  0  0
    4.6630   30.7507   59.4600 C   0  0  0  0  0
    4.2935   31.7704   60.3382 C   0  0  0  0  0
    1.5831   27.8553   63.0543 N   0  0  0  0  0
    2.4407   23.5162   65.1527 N   0  0  0  0  0
    3.1512   26.0794   64.5960 N   0  0  0  0  0
    4.4377   23.1032   66.4352 N   0  0  0  0  0
    4.1809   21.8143   66.5752 N   0  0  0  0  0
    5.5023   23.4663   67.1298 N   0  0  0  0  0
    0.3890   23.7161   63.9302 N   0  0  0  0  0
    2.9726   29.3379   60.3908 N   0  0  0  0  0
    0.0506   26.1240   62.7852 O   0  0  0  0  0
    6.2424   25.7282   64.8187 O   0  0  0  0  0
  2  3  1  0  0  0
  4  5  1  0  0  0
  4 26  1  0  0  0
  6  1  1  0  0  0
  7  5  1  0  0  0
  7 19  1  0  0  0
  8  9  1  0  0  0
  9 21  1  0  0  0
 10 20  1  0  0  0
 10 25  1  0  0  0
 11 12  1  0  0  0
 11 22  1  0  0  0
 13 12  1  0  0  0
 13 28  1  0  0  0
 14 15  1  0  0  0
 16 17  1  0  0  0
 18  3  1  0  0  0
 19  8  1  0  0  0
 22 23  1  0  0  0
 22 24  1  0  0  0
  1  2  2  0  0  0
  3  4  2  0  0  0
  5  6  2  0  0  0
  8 27  2  0  0  0
  9 10  2  0  0  0
 11 20  2  0  0  0
 12 21  2  0  0  0
 14 23  2  0  0  0
 15 24  2  0  0  0
 16 26  2  0  0  0
 17 18  2  0  0  0
M  END
> <rmsd>
0.613621235

$$$$
PubChem-163689353


 32 35  0  0  0  0  0  0  0  0999 V2000
    4.8734   28.4337   64.7088 C   0  0  0  0  0
    4.0069   27.3880   64.0290 C   0  0  0  0  0
    2.7144   28.0761   63.5747 C   0  0  0  0  0
    1.3892   26.0311   64.2467 C   0  0  0  0  0
    2.3396   26.1070   65.4389 C   0  0  0  0  0
    4.7703   25.4039   65.4325 C   0  0  0  0  0
    4.5438   24.1454   65.8357 C   0  0  0  0  0
    5.4066   20.8827   67.0420 C   0  0  0  0  0
    6.7787   20.8335   67.3283 C   0  0  0  0  0
    7.3631   19.6614   67.8145 C   0  0  0  0  0
    6.5797   18.5246   68.0195 C   0  0  0  0  0
    5.2123   18.5600   67.7385 C   0  0  0  0  0
    4.6215   19.7306   67.2518 C   0  0  0  0  0
    0.9307   27.1181   62.0358 C   0  0  0  0  0
    1.3242   27.9556   60.8754 C   0  0  0  0  0
    2.9364   29.3181   59.7603 C   0  0  0  0  0
    2.0733   29.4914   58.6770 C   0  0  0  0  0
    0.8197   28.8811   58.6983 C   0  0  0  0  0
    0.4415   28.1089   59.7972 C   0  0  0  0  0
    5.1091   29.8001   60.8137 C   0  0  0  0  0
    4.7311   26.8662   62.7969 C   0  0  0  0  0
    1.6861   27.0798   63.2640 N   0  0  0  0  0
    3.7147   26.2756   64.9600 N   0  0  0  0  0
    5.5620   23.2716   66.3063 N   0  0  0  0  0
    4.8349   22.1016   66.5430 N   0  0  0  0  0
    3.4853   22.2902   66.2215 N   0  0  0  0  0
    3.2856   23.4737   65.8037 N   0  0  0  0  0
    2.5452   28.5579   60.8222 N   0  0  0  0  0
    3.2916   19.7281   66.9896 F   0  0  0  0  0
    6.0810   25.8720   65.4527 O   0  0  0  0  0
   -0.1082   26.4078   61.9369 O   0  0  0  0  0
    4.1906   29.9287   59.7388 O   0  0  0  0  0
  1  2  1  0  0  0
  2  3  1  0  0  0
  2 21  1  0  0  0
  2 23  1  0  0  0
  3 22  1  0  0  0
  4 22  1  0  0  0
  4  5  1  0  0  0
  5 23  1  0  0  0
  6 30  1  0  0  0
  7 24  1  0  0  0
  7 27  1  0  0  0
  9 10  1  0  0  0
 11 12  1  0  0  0
 13 29  1  0  0  0
 13  8  1  0  0  0
 14 15  1  0  0  0
 16 28  1  0  0  0
 16 32  1  0  0  0
 17 18  1  0  0  0
 19 15  1  0  0  0
 20 32  1  0  0  0
 22 14  1  0  0  0
 23  6  1  0  0  0
 24 25  1  0  0  0
 25 26  1  0  0  0
 25  8  1  0  0  0
  6  7  2  0  0  0
  8  9  2  0  0  0
 10 11  2  0  0  0
 12 13  2  0  0  0
 14 31  2  0  0  0
 15 28  2  0  0  0
 16 17  2  0  0  0
 18 19  2  0  0  0
 26 27  2  0  0  0
M  CHG  1  30  -1
M  END
> <rmsd>
0.663461328

$$$$
PubChem-3346046


 32 34  0  0  0  0  0  0  0  0999 V2000
    2.5838   30.9743   59.6637 C   0  0  0  0  0
    2.2879   29.9069   60.6625 C   0  0  0  0  0
    1.6661   31.6286   62.3821 C   0  0  0  0  0
    1.5123   29.2202   62.9881 C   0  0  0  0  0
    2.7528   28.4108   63.3527 C   0  0  0  0  0
    2.5162   27.6390   64.6532 C   0  0  0  0  0
    3.8235   25.7643   63.9319 C   0  0  0  0  0
    2.9203   24.5588   64.1321 C   0  0  0  0  0
    2.2830   22.9423   65.4972 C   0  0  0  0  0
    2.5005   22.2385   66.8243 C   0  0  0  0  0
    4.4198   21.8385   67.8436 C   0  0  0  0  0
    5.8733   21.9602   67.4216 C   0  0  0  0  0
    7.1041   23.7177   66.8772 C   0  0  0  0  0
    6.6834   25.1553   67.1233 C   0  0  0  0  0
    5.6702   26.9425   66.3163 C   0  0  0  0  0
    4.8432   27.5072   65.1733 C   0  0  0  0  0
   -0.8778   28.7136   62.4027 C   0  0  0  0  0
   -1.5173   29.9167   62.6919 C   0  0  0  0  0
   -2.9062   29.9679   62.4655 C   0  0  0  0  0
   -3.5989   28.8373   61.9697 C   0  0  0  0  0
   -2.9127   27.6382   61.6913 C   0  0  0  0  0
   -1.5418   27.6269   61.9257 C   0  0  0  0  0
    2.4444   28.7040   60.3227 O   0  0  0  0  0
    3.3076   23.8637   65.2785 O   0  0  0  0  0
    3.6413   21.4374   66.7569 O   0  0  0  0  0
    6.0038   22.9658   66.4620 O   0  0  0  0  0
    6.2504   25.7344   65.9305 O   0  0  0  0  0
    1.8333   30.2380   61.9891 N   0  0  0  0  0
    3.6181   26.7345   65.0038 N   0  0  0  0  0
    0.4124   28.3716   62.5222 N   0  0  0  0  0
   -0.6656   26.6205   61.7510 N   0  0  0  0  0
    0.5190   27.1069   62.1201 N   0  0  0  0  0
  1  2  1  0  0  0
  2 28  1  0  0  0
  3 28  1  0  0  0
  4 28  1  0  0  0
  4  5  1  0  0  0
  4 30  1  0  0  0
  5  6  1  0  0  0
  6 29  1  0  0  0
  7 29  1  0  0  0
  7  8  1  0  0  0
  8 24  1  0  0  0
  9 24  1  0  0  0
  9 10  1  0  0  0
 10 25  1  0  0  0
 11 25  1  0  0  0
 11 12  1  0  0  0
 12 26  1  0  0  0
 13 26  1  0  0  0
 13 14  1  0  0  0
 14 27  1  0  0  0
 15 27  1  0  0  0
 15 16  1  0  0  0
 16 29  1  0  0  0
 18 19  1  0  0  0
 20 21  1  0  0  0
 22 31  1  0  0  0
 22 17  1  0  0  0
 30 17  1  0  0  0
 30 32  1  0  0  0
  2 23  2  0  0  0
 17 18  2  0  0  0
 19 20  2  0  0  0
 21 22  2  0  0  0
 31 32  2  0  0  0
M  END
> <rmsd>
0.583927095

$$$$
PubChem-3346046


 32 34  0  0  0  0  0  0  0  0999 V2000
    2.1275   30.8024   59.5662 C   0  0  0  0  0
    1.8849   29.7283   60.5723 C   0  0  0  0  0
    1.1733   31.4283   62.2787 C   0  0  0  0  0
    1.1418   29.0196   62.9019 C   0  0  0  0  0
    2.4214   28.2772   63.2738 C   0  0  0  0  0
    2.2225   27.5036   64.5795 C   0  0  0  0  0
    3.6250   25.6930   63.8733 C   0  0  0  0  0
    2.7843   24.4445   64.0811 C   0  0  0  0  0
    2.2283   22.8073   65.4571 C   0  0  0  0  0
    2.4794   22.1250   66.7894 C   0  0  0  0  0
    4.4150   21.8309   67.8139 C   0  0  0  0  0
    5.8610   22.0236   67.3928 C   0  0  0  0  0
    7.0013   23.8378   66.8372 C   0  0  0  0  0
    6.5073   25.2537   67.0725 C   0  0  0  0  0
    5.4055   26.9811   66.2514 C   0  0  0  0  0
    4.5525   27.4946   65.1034 C   0  0  0  0  0
   -1.2183   28.3874   62.3173 C   0  0  0  0  0
   -1.9190   29.5582   62.5970 C   0  0  0  0  0
   -3.3083   29.5368   62.3686 C   0  0  0  0  0
   -3.9416   28.3688   61.8801 C   0  0  0  0  0
   -3.1945   27.2043   61.6112 C   0  0  0  0  0
   -1.8252   27.2648   61.8473 C   0  0  0  0  0
    2.1033   28.5327   60.2414 O   0  0  0  0  0
    3.2048   23.7782   65.2330 O   0  0  0  0  0
    3.6596   21.3828   66.7291 O   0  0  0  0  0
    5.9415   23.0277   66.4261 O   0  0  0  0  0
    6.0472   25.8014   65.8750 O   0  0  0  0  0
    1.4120   30.0453   61.8960 N   0  0  0  0  0
    3.3687   26.6592   64.9379 N   0  0  0  0  0
    0.0874   28.1126   62.4408 N   0  0  0  0  0
   -0.8985   26.3033   61.6809 N   0  0  0  0  0
    0.2591   26.8521   62.0480 N   0  0  0  0  0
  1  2  1  0  0  0
  2 28  1  0  0  0
  3 28  1  0  0  0
  4 28  1  0  0  0
  4  5  1  0  0  0
  4 30  1  0  0  0
  5  6  1  0  0  0
  6 29  1  0  0  0
  7 29  1  0  0  0
  7  8  1  0  0  0
  8 24  1  0  0  0
  9 24  1  0  0  0
  9 10  1  0  0  0
 10 25  1  0  0  0
 11 25  1  0  0  0
 11 12  1  0  0  0
 12 26  1  0  0  0
 13 26  1  0  0  0
 13 14  1  0  0  0
 14 27  1  0  0  0
 15 27  1  0  0  0
 15 16  1  0  0  0
 16 29  1  0  0  0
 18 19  1  0  0  0
 20 21  1  0  0  0
 22 31  1  0  0  0
 22 17  1  0  0  0
 30 17  1  0  0  0
 30 32  1  0  0  0
  2 23  2  0  0  0
 17 18  2  0  0  0
 19 20  2  0  0  0
 21 22  2  0  0  0
 31 32  2  0  0  0
M  END
> <rmsd>
0.605780482

$$$$
PubChem-163473646


 34 37  0  0  0  0  0  0  0  0999 V2000
    4.0850   21.9134   64.0045 C   0  0  0  0  0
    4.3460   22.5100   65.3814 C   0  0  0  0  0
    5.5717   23.4098   65.3007 C   0  0  0  0  0
    4.9535   24.7334   64.9532 C   0  0  0  0  0
    3.5384   24.6617   65.5430 C   0  0  0  0  0
    3.4428   25.3682   66.8988 C   0  0  0  0  0
    1.6104   24.4615   64.0312 C   0  0  0  0  0
    0.6959   24.9645   63.1160 C   0  0  0  0  0
    0.7700   26.3070   62.7740 C   0  0  0  0  0
    2.6090   26.5944   64.2522 C   0  0  0  0  0
    1.7910   28.5226   62.9642 C   0  0  0  0  0
    2.7991   28.7260   61.8803 C   0  0  0  0  0
    4.6117   29.1394   60.7704 C   0  0  0  0  0
    4.0920   29.1620   62.0301 C   0  0  0  0  0
    4.8355   29.5708   63.1356 C   0  0  0  0  0
    6.1748   29.9736   62.9130 C   0  0  0  0  0
    6.7052   29.9510   61.6004 C   0  0  0  0  0
    5.9235   29.5264   60.5062 C   0  0  0  0  0
    6.6271   30.3636   65.3428 C   0  0  0  0  0
    4.5487   21.3642   66.3763 C   0  0  0  0  0
    3.2343   23.2931   65.7695 O   0  0  0  0  0
   -0.0553   26.7735   61.9422 O   0  0  0  0  0
    3.4619   27.3581   64.7874 O   0  0  0  0  0
    3.6949   28.7175   59.9318 O   0  0  0  0  0
    7.0017   30.3980   63.9660 O   0  0  0  0  0
    5.7105   25.8100   65.4324 O   0  0  0  0  0
    6.2208   23.4954   66.5423 O   0  0  0  0  0
    3.3809   20.6103   66.5086 O   0  0  0  0  0
    2.5665   25.2603   64.5929 N   0  0  0  0  0
    1.7227   27.1073   63.3400 N   0  0  0  0  0
    2.5845   28.4549   60.5707 N   0  0  0  0  0
    6.3373   29.0633   65.7230 F   0  0  0  0  0
    7.6767   30.8360   66.1107 F   0  0  0  0  0
    5.5206   31.1685   65.5529 F   0  0  0  0  0
  1  2  1  0  0  0
  2  3  1  0  0  0
  2 20  1  0  0  0
  2 21  1  0  0  0
  3  4  1  0  0  0
  3 27  1  0  0  0
  4  5  1  0  0  0
  4 26  1  0  0  0
  5 21  1  0  0  0
  5  6  1  0  0  0
  5 29  1  0  0  0
  8  9  1  0  0  0
  9 30  1  0  0  0
 10 29  1  0  0  0
 11 30  1  0  0  0
 11 12  1  0  0  0
 13 24  1  0  0  0
 14 15  1  0  0  0
 14 12  1  0  0  0
 16 17  1  0  0  0
 16 25  1  0  0  0
 18 13  1  0  0  0
 19 25  1  0  0  0
 19 32  1  0  0  0
 19 33  1  0  0  0
 19 34  1  0  0  0
 20 28  1  0  0  0
 29  7  1  0  0  0
 30 10  1  0  0  0
 31 24  1  0  0  0
  7  8  2  0  0  0
  9 22  2  0  0  0
 10 23  2  0  0  0
 12 31  2  0  0  0
 13 14  2  0  0  0
 15 16  2  0  0  0
 17 18  2  0  0  0
M  END
> <rmsd>
0.614477158

$$$$
PubChem-163019780


 30 31  0  0  0  0  0  0  0  0999 V2000
   -1.6521   32.1026   61.4084 C   0  0  0  0  0
   -0.4479   31.6958   62.2308 C   0  0  0  0  0
   -0.8526   31.6008   63.6900 C   0  0  0  0  0
    0.0622   30.3534   61.7405 C   0  0  0  0  0
    1.4661   30.0916   62.2750 C   0  0  0  0  0
    2.0073   28.7135   61.8775 C   0  0  0  0  0
    3.4684   28.6466   62.2821 C   0  0  0  0  0
    4.0265   27.6842   63.3211 C   0  0  0  0  0
    3.0246   26.5866   63.7671 C   0  0  0  0  0
    1.5641   27.0548   63.8635 C   0  0  0  0  0
    1.1701   27.6328   62.5267 C   0  0  0  0  0
    0.6743   25.8686   64.2209 C   0  0  0  0  0
    1.3889   28.1055   64.9517 C   0  0  0  0  0
    3.9112   24.6898   64.5782 C   0  0  0  0  0
    5.1843   24.3064   65.3529 C   0  0  0  0  0
    4.8564   24.0283   66.8206 C   0  0  0  0  0
    3.6765   23.0638   66.9350 C   0  0  0  0  0
    2.5310   23.6105   66.0744 C   0  0  0  0  0
    1.2456   22.8068   66.2337 C   0  0  0  0  0
    4.5018   28.4977   64.5194 C   0  0  0  0  0
    5.2366   26.9846   62.7219 C   0  0  0  0  0
    4.2401   29.4394   61.7562 O   0  0  0  0  0
    0.1578   27.2421   61.9585 O   0  0  0  0  0
    3.4377   25.9583   64.9568 O   0  0  0  0  0
    2.9062   23.7001   64.7146 O   0  0  0  0  0
    1.3619   21.5549   65.6263 O   0  0  0  0  0
    4.0507   21.7868   66.5027 O   0  0  0  0  0
    5.9740   23.5100   67.4776 O   0  0  0  0  0
    6.1366   25.3223   65.2577 O   0  0  0  0  0
    1.9389   28.5730   60.4864 O   0  0  0  0  0
  1  2  1  0  0  0
  2  3  1  0  0  0
  2  4  1  0  0  0
  4  5  1  0  0  0
  5  6  1  0  0  0
  6  7  1  0  0  0
  6 30  1  0  0  0
  6 11  1  0  0  0
  8  7  1  0  0  0
  8  9  1  0  0  0
  8 20  1  0  0  0
  8 21  1  0  0  0
  9 10  1  0  0  0
  9 24  1  0  0  0
 10 11  1  0  0  0
 10 12  1  0  0  0
 10 13  1  0  0  0
 14 24  1  0  0  0
 14 15  1  0  0  0
 14 25  1  0  0  0
 15 16  1  0  0  0
 15 29  1  0  0  0
 16 17  1  0  0  0
 16 28  1  0  0  0
 17 18  1  0  0  0
 17 27  1  0  0  0
 18 25  1  0  0  0
 18 19  1  0  0  0
 19 26  1  0  0  0
  7 22  2  0  0  0
 11 23  2  0  0  0
M  END
> <rmsd>
0.680761993

$$$$
PubChem-102487970


 32 36  0  0  0  0  0  0  0  0999 V2000
    4.7581   24.0526   68.7301 C   0  0  0  0  0
    4.0847   22.6991   68.4660 C   0  0  0  0  0
    2.1372   23.5564   67.0863 C   0  0  0  0  0
    1.8716   23.4794   65.7226 C   0  0  0  0  0
    0.9180   24.2685   64.9349 C   0  0  0  0  0
    1.3864   24.9836   63.7108 C   0  0  0  0  0
    1.5947   26.4717   64.0159 C   0  0  0  0  0
    1.3905   27.3887   62.8021 C   0  0  0  0  0
    2.5722   27.2904   61.8487 C   0  0  0  0  0
    3.8724   27.4850   62.6178 C   0  0  0  0  0
    3.9194   26.5353   63.8254 C   0  0  0  0  0
    5.2237   26.7822   64.5933 C   0  0  0  0  0
    4.7136   25.7108   66.7905 C   0  0  0  0  0
    5.2873   24.6543   67.4685 C   0  0  0  0  0
    1.5270   24.4669   68.0922 C   0  0  0  0  0
    0.8170   25.6088   67.6884 C   0  0  0  0  0
    0.2546   26.4730   68.6327 C   0  0  0  0  0
    0.4013   26.2058   69.9946 C   0  0  0  0  0
    1.1090   25.0760   70.4147 C   0  0  0  0  0
    1.6621   24.2080   69.4669 C   0  0  0  0  0
    3.2152   22.7630   67.2907 N   0  0  0  0  0
    5.4229   25.8029   65.6510 N   0  0  0  0  0
    6.3037   24.1473   66.7429 N   0  0  0  0  0
    6.3707   24.8789   65.6415 N   0  0  0  0  0
    2.7673   22.6435   65.1654 N   0  0  0  0  0
    3.5660   22.2277   66.1340 N   0  0  0  0  0
   -0.2783   24.3856   65.3115 O   0  0  0  0  0
    2.8147   26.7402   64.6893 O   0  0  0  0  0
    4.9523   27.2364   61.7669 O   0  0  0  0  0
    2.4570   28.2672   60.8602 O   0  0  0  0  0
    0.2019   27.0744   62.1376 O   0  0  0  0  0
   -0.2738   27.2971   71.1801 Cl  0  0  0  0  0
  1  2  1  0  0  0
  1 14  1  0  0  0
  2 21  1  0  0  0
  3 15  1  0  0  0
  4  5  1  0  0  0
  4 25  1  0  0  0
  6  5  1  0  0  0
  7  6  1  0  0  0
  7  8  1  0  0  0
  7 28  1  0  0  0
  8  9  1  0  0  0
  8 31  1  0  0  0
  9 10  1  0  0  0
  9 30  1  0  0  0
 10 11  1  0  0  0
 10 29  1  0  0  0
 11 28  1  0  0  0
 11 12  1  0  0  0
 12 22  1  0  0  0
 14 23  1  0  0  0
 16 17  1  0  0  0
 18 19  1  0  0  0
 18 32  1  0  0  0
 20 15  1  0  0  0
 21  3  1  0  0  0
 21 26  1  0  0  0
 22 13  1  0  0  0
 22 24  1  0  0  0
  3  4  2  0  0  0
  5 27  2  0  0  0
 13 14  2  0  0  0
 15 16  2  0  0  0
 17 18  2  0  0  0
 19 20  2  0  0  0
 23 24  2  0  0  0
 25 26  2  0  0  0
M  END
> <rmsd>
0.812557101

$$$$
PubChem-101572443


 29 30  0  0  0  0  0  0  0  0999 V2000
    2.6077   27.2497   58.4642 C   0  0  0  0  0
    3.0247   27.6307   59.8730 C   0  0  0  0  0
    2.1925   26.7953   60.8564 C   0  0  0  0  0
    1.8964   27.5720   62.1295 C   0  0  0  0  0
    1.0802   28.8251   61.8171 C   0  0  0  0  0
    1.4936   29.5061   60.5009 C   0  0  0  0  0
    1.4379   31.0120   60.7073 C   0  0  0  0  0
    0.4590   29.1799   59.4345 C   0  0  0  0  0
    1.1889   26.7116   63.1269 C   0  0  0  0  0
    1.1161   25.6240   65.4019 C   0  0  0  0  0
    0.9735   24.1706   64.9592 C   0  0  0  0  0
    2.5467   22.8014   65.7142 C   0  0  0  0  0
    3.8339   22.0678   65.4027 C   0  0  0  0  0
    5.6469   21.2335   66.3435 C   0  0  0  0  0
    6.4181   21.9968   67.4101 C   0  0  0  0  0
    7.2660   23.9438   66.7750 C   0  0  0  0  0
    6.9301   25.3291   66.2538 C   0  0  0  0  0
    5.0443   26.1770   65.4826 C   0  0  0  0  0
    3.9910   26.1652   64.3948 C   0  0  0  0  0
    4.4862   27.2132   60.0094 C   0  0  0  0  0
    2.8536   29.1039   60.0550 N   0  0  0  0  0
    1.8079   26.4220   64.3912 N   0  0  0  0  0
    3.7502   29.5549   60.9760 O   0  0  0  0  0
    0.0508   26.2404   62.8518 O   0  0  0  0  0
    2.2197   23.6274   64.6388 O   0  0  0  0  0
    4.2731   21.3876   66.5384 O   0  0  0  0  0
    6.1261   23.3606   67.3321 O   0  0  0  0  0
    6.0294   25.2339   65.1916 O   0  0  0  0  0
    2.9623   27.0492   64.7374 O   0  0  0  0  0
  1  2  1  0  0  0
  2  3  1  0  0  0
  2 20  1  0  0  0
  2 21  1  0  0  0
  3  4  1  0  0  0
  4  5  1  0  0  0
  4  9  1  0  0  0
  5  6  1  0  0  0
  6 21  1  0  0  0
  6  7  1  0  0  0
  6  8  1  0  0  0
  9 22  1  0  0  0
 10 22  1  0  0  0
 10 11  1  0  0  0
 11 25  1  0  0  0
 12 25  1  0  0  0
 12 13  1  0  0  0
 13 26  1  0  0  0
 14 26  1  0  0  0
 14 15  1  0  0  0
 15 27  1  0  0  0
 16 27  1  0  0  0
 16 17  1  0  0  0
 17 28  1  0  0  0
 18 28  1  0  0  0
 18 19  1  0  0  0
 19 29  1  0  0  0
 21 23  1  0  0  0
 22 29  1  0  0  0
  9 24  2  0  0  0
M  END
> <rmsd>
0.628138721

$$$$
PubChem-20745665


 30 31  0  0  0  0  0  0  0  0999 V2000
    1.1242   27.9072   64.5927 C   0  0  0  0  0
    1.8884   27.9014   63.2738 C   0  0  0  0  0
    2.6949   26.5910   63.1278 C   0  0  0  0  0
    2.5773   26.5353   60.7976 C   0  0  0  0  0
    1.6377   27.7704   60.7367 C   0  0  0  0  0
    0.8961   27.9953   62.0790 C   0  0  0  0  0
    0.1699   29.3404   62.0604 C   0  0  0  0  0
    1.7814   29.3381   59.1674 C   0  0  0  0  0
    1.7584   25.2412   60.7995 C   0  0  0  0  0
    3.4402   26.5044   59.5357 C   0  0  0  0  0
    3.8894   25.0399   64.4612 C   0  0  0  0  0
    2.6229   24.1462   64.8641 C   0  0  0  0  0
    4.1716   22.5593   65.5673 C   0  0  0  0  0
    5.3068   23.5085   65.9897 C   0  0  0  0  0
    4.9171   24.9937   65.6415 C   0  0  0  0  0
    4.3071   25.6885   66.8643 C   0  0  0  0  0
    6.5621   23.0670   65.2443 C   0  0  0  0  0
    1.5446   25.0042   65.5055 C   0  0  0  0  0
    1.9636   23.4876   63.6543 C   0  0  0  0  0
    4.6094   24.4591   63.2221 C   0  0  0  0  0
    2.8500   29.0903   63.3035 C   0  0  0  0  0
    3.4401   26.6164   61.9227 O   0  0  0  0  0
   -0.0826   27.0039   62.2082 O   0  0  0  0  0
    2.3572   28.9187   60.3690 O   0  0  0  0  0
    4.3821   25.4741   59.5978 O   0  0  0  0  0
    3.5664   26.4149   64.2307 O   0  0  0  0  0
    2.9187   23.1402   65.8259 O   0  0  0  0  0
    6.0601   25.7277   65.2965 O   0  0  0  0  0
    5.5571   23.3695   67.3609 O   0  0  0  0  0
    4.2675   21.3270   66.2185 O   0  0  0  0  0
  1  2  1  0  0  0
  2  3  1  0  0  0
  2 21  1  0  0  0
  3 22  1  0  0  0
  3 26  1  0  0  0
  4 22  1  0  0  0
  4  5  1  0  0  0
  4  9  1  0  0  0
  4 10  1  0  0  0
  5  6  1  0  0  0
  5 24  1  0  0  0
  6  7  1  0  0  0
  6 23  1  0  0  0
  6  2  1  0  0  0
  8 24  1  0  0  0
 10 25  1  0  0  0
 11 26  1  0  0  0
 11 12  1  0  0  0
 11 20  1  0  0  0
 12 27  1  0  0  0
 12 18  1  0  0  0
 12 19  1  0  0  0
 13 27  1  0  0  0
 13 14  1  0  0  0
 13 30  1  0  0  0
 14 15  1  0  0  0
 14 17  1  0  0  0
 14 29  1  0  0  0
 15 16  1  0  0  0
 15 28  1  0  0  0
 15 11  1  0  0  0
M  END
> <rmsd>
0.495310426

$$$$
PubChem-20745665


 30 31  0  0  0  0  0  0  0  0999 V2000
    5.0729   28.2241   62.5432 C   0  0  0  0  0
    3.6941   28.7259   62.9616 C   0  0  0  0  0
    2.8685   27.5610   63.5576 C   0  0  0  0  0
    0.8010   28.4207   62.8548 C   0  0  0  0  0
    1.4688   29.6020   62.0993 C   0  0  0  0  0
    2.9373   29.2901   61.7285 C   0  0  0  0  0
    3.6183   30.5431   61.1777 C   0  0  0  0  0
    0.6401   31.6649   62.0662 C   0  0  0  0  0
   -0.5482   28.8894   63.3891 C   0  0  0  0  0
    0.5247   27.2624   61.8839 C   0  0  0  0  0
    3.7710   25.6102   64.5591 C   0  0  0  0  0
    2.4629   24.7615   64.9140 C   0  0  0  0  0
    3.8728   22.9444   65.2064 C   0  0  0  0  0
    5.1562   23.6914   65.6075 C   0  0  0  0  0
    4.8953   25.2418   65.5862 C   0  0  0  0  0
    4.4785   25.7284   66.9797 C   0  0  0  0  0
    6.2408   23.2896   64.6138 C   0  0  0  0  0
    1.4930   25.5976   65.7379 C   0  0  0  0  0
    1.6879   24.3278   63.6718 C   0  0  0  0  0
    4.3121   25.2453   63.1526 C   0  0  0  0  0
    3.9082   29.7989   64.0308 C   0  0  0  0  0
    1.5864   28.0085   63.9653 O   0  0  0  0  0
    2.9395   28.3384   60.7030 O   0  0  0  0  0
    1.3862   30.7842   62.8529 O   0  0  0  0  0
   -0.2152   26.2511   62.5005 O   0  0  0  0  0
    3.5454   27.0178   64.6752 O   0  0  0  0  0
    2.7379   23.6097   65.7014 O   0  0  0  0  0
    6.0732   25.9271   65.2596 O   0  0  0  0  0
    5.5726   23.2780   66.8795 O   0  0  0  0  0
    3.8860   21.6229   65.6596 O   0  0  0  0  0
  1  2  1  0  0  0
  2  3  1  0  0  0
  2 21  1  0  0  0
  3 22  1  0  0  0
  3 26  1  0  0  0
  4 22  1  0  0  0
  4  5  1  0  0  0
  4  9  1  0  0  0
  4 10  1  0  0  0
  5  6  1  0  0  0
  5 24  1  0  0  0
  6  7  1  0  0  0
  6 23  1  0  0  0
  6  2  1  0  0  0
  8 24  1  0  0  0
 10 25  1  0  0  0
 11 26  1  0  0  0
 11 12  1  0  0  0
 11 20  1  0  0  0
 12 27  1  0  0  0
 12 18  1  0  0  0
 12 19  1  0  0  0
 13 27  1  0  0  0
 13 14  1  0  0  0
 13 30  1  0  0  0
 14 15  1  0  0  0
 14 17  1  0  0  0
 14 29  1  0  0  0
 15 16  1  0  0  0
 15 28  1  0  0  0
 15 11  1  0  0  0
M  END
> <rmsd>
0.57016778

$$$$
PubChem-140863656


 23 25  0  0  0  0  0  0  0  0999 V2000
    2.0992   24.7766   66.3424 C   0  0  0  0  0
    2.2651   25.4478   64.9774 C   0  0  0  0  0
    4.5221   25.3831   64.9830 C   0  0  0  0  0
    4.6287   24.6843   66.3437 C   0  0  0  0  0
    3.3303   23.9218   66.6599 C   0  0  0  0  0
    1.0391   26.2954   64.6794 C   0  0  0  0  0
    1.8612   27.5360   62.6697 C   0  0  0  0  0
    1.4085   27.6047   61.3653 C   0  0  0  0  0
    2.0023   28.4022   60.2834 C   0  0  0  0  0
    1.4404   28.3835   59.0010 C   0  0  0  0  0
    2.0200   29.1478   57.9872 C   0  0  0  0  0
    3.1498   29.9207   58.2588 C   0  0  0  0  0
    3.6843   29.9160   59.5486 C   0  0  0  0  0
    3.4180   26.2543   64.9815 O   0  0  0  0  0
    3.2099   21.5846   66.6240 O   0  0  0  0  0
    3.2628   22.5799   64.5875 O   0  0  0  0  0
    5.7279   23.8225   66.3702 O   0  0  0  0  0
    5.6841   26.1133   64.7336 O   0  0  0  0  0
    3.2634   22.6404   65.9624 N   0  0  0  0  0
    1.0127   26.6874   63.2786 N   0  0  0  0  0
    0.3201   26.8200   61.2293 N   0  0  0  0  0
    0.1007   26.2758   62.4150 N   0  0  0  0  0
    3.1057   29.1647   60.5240 N   0  0  0  0  0
  1  2  1  0  0  0
  2 14  1  0  0  0
  2  6  1  0  0  0
  3 14  1  0  0  0
  3  4  1  0  0  0
  3 18  1  0  0  0
  4  5  1  0  0  0
  4 17  1  0  0  0
  5 19  1  0  0  0
  5  1  1  0  0  0
  6 20  1  0  0  0
  8 21  1  0  0  0
  8  9  1  0  0  0
  9 23  1  0  0  0
 10 11  1  0  0  0
 12 13  1  0  0  0
 19 16  1  0  0  0
 20  7  1  0  0  0
 20 22  1  0  0  0
  7  8  2  0  0  0
  9 10  2  0  0  0
 11 12  2  0  0  0
 13 23  2  0  0  0
 19 15  2  0  0  0
 21 22  2  0  0  0
M  CHG  2  19   1  16  -1
M  END
> <rmsd>
0.727335274

$$$$
PubChem-140863656


 23 25  0  0  0  0  0  0  0  0999 V2000
    2.1725   24.9339   66.5887 C   0  0  0  0  0
    2.3026   25.5327   65.1865 C   0  0  0  0  0
    4.5546   25.3914   65.1046 C   0  0  0  0  0
    4.6955   24.7555   66.4928 C   0  0  0  0  0
    3.3876   24.0538   66.8983 C   0  0  0  0  0
    1.0930   26.4064   64.8965 C   0  0  0  0  0
    1.8698   27.5202   62.7966 C   0  0  0  0  0
    1.3655   27.5415   61.5097 C   0  0  0  0  0
    1.9388   28.2654   60.3666 C   0  0  0  0  0
    1.3235   28.2042   59.1104 C   0  0  0  0  0
    1.8845   28.8987   58.0375 C   0  0  0  0  0
    3.0489   29.6447   58.2250 C   0  0  0  0  0
    3.6365   29.6838   59.4910 C   0  0  0  0  0
    3.4800   26.2986   65.1045 O   0  0  0  0  0
    3.1908   21.7232   66.9828 O   0  0  0  0  0
    3.1905   22.6170   64.8991 O   0  0  0  0  0
    5.7666   23.8590   66.5177 O   0  0  0  0  0
    5.7281   26.0687   64.7730 O   0  0  0  0  0
    3.2504   22.7435   66.2682 N   0  0  0  0  0
    1.0207   26.7313   63.4802 N   0  0  0  0  0
    0.2476   26.7888   61.4565 N   0  0  0  0  0
    0.0607   26.3100   62.6755 N   0  0  0  0  0
    3.0753   29.0004   60.5247 N   0  0  0  0  0
  1  2  1  0  0  0
  2 14  1  0  0  0
  2  6  1  0  0  0
  3 14  1  0  0  0
  3  4  1  0  0  0
  3 18  1  0  0  0
  4  5  1  0  0  0
  4 17  1  0  0  0
  5 19  1  0  0  0
  5  1  1  0  0  0
  6 20  1  0  0  0
  8 21  1  0  0  0
  8  9  1  0  0  0
  9 23  1  0  0  0
 10 11  1  0  0  0
 12 13  1  0  0  0
 19 16  1  0  0  0
 20  7  1  0  0  0
 20 22  1  0  0  0
  7  8  2  0  0  0
  9 10  2  0  0  0
 11 12  2  0  0  0
 13 23  2  0  0  0
 19 15  2  0  0  0
 21 22  2  0  0  0
M  CHG  2  19   1  16  -1
M  END
> <rmsd>
0.733042002

$$$$
PubChem-140863656


 23 25  0  0  0  0  0  0  0  0999 V2000
    2.3757   24.9150   66.9018 C   0  0  0  0  0
    2.3777   25.4950   65.4858 C   0  0  0  0  0
    4.6078   25.3098   65.1848 C   0  0  0  0  0
    4.8734   24.6873   66.5607 C   0  0  0  0  0
    3.5995   24.0154   67.1021 C   0  0  0  0  0
    1.1613   26.3883   65.3046 C   0  0  0  0  0
    1.7472   27.4629   63.1239 C   0  0  0  0  0
    1.1189   27.4791   61.8926 C   0  0  0  0  0
    1.5896   28.1788   60.6892 C   0  0  0  0  0
    0.8525   28.1151   59.5005 C   0  0  0  0  0
    1.3174   28.7864   58.3685 C   0  0  0  0  0
    2.5077   29.5121   58.4307 C   0  0  0  0  0
    3.2178   29.5543   59.6321 C   0  0  0  0  0
    3.5548   26.2373   65.2783 O   0  0  0  0  0
    3.3702   21.6900   67.2365 O   0  0  0  0  0
    3.1806   22.5598   65.1513 O   0  0  0  0  0
    5.9255   23.7708   66.4921 O   0  0  0  0  0
    5.7548   25.9606   64.7304 O   0  0  0  0  0
    3.3775   22.7008   66.5060 N   0  0  0  0  0
    0.9556   26.6983   63.8981 N   0  0  0  0  0
   -0.0121   26.7474   61.9596 N   0  0  0  0  0
   -0.0865   26.2863   63.1973 N   0  0  0  0  0
    2.7491   28.8937   60.7250 N   0  0  0  0  0
  1  2  1  0  0  0
  2 14  1  0  0  0
  2  6  1  0  0  0
  3 14  1  0  0  0
  3  4  1  0  0  0
  3 18  1  0  0  0
  4  5  1  0  0  0
  4 17  1  0  0  0
  5 19  1  0  0  0
  5  1  1  0  0  0
  6 20  1  0  0  0
  8 21  1  0  0  0
  8  9  1  0  0  0
  9 23  1  0  0  0
 10 11  1  0  0  0
 12 13  1  0  0  0
 19 16  1  0  0  0
 20  7  1  0  0  0
 20 22  1  0  0  0
  7  8  2  0  0  0
  9 10  2  0  0  0
 11 12  2  0  0  0
 13 23  2  0  0  0
 19 15  2  0  0  0
 21 22  2  0  0  0
M  CHG  2  19   1  16  -1
M  END
> <rmsd>
0.685836494

$$$$
PubChem-58178411


 29 32  0  0  0  0  0  0  0  0999 V2000
    3.7053   32.4066   60.9715 C   0  0  0  0  0
    4.0452   30.9494   60.7120 C   0  0  0  0  0
    3.5229   30.0996   61.8673 C   0  0  0  0  0
    4.6695   29.5211   62.6810 C   0  0  0  0  0
    4.1272   28.4190   63.5734 C   0  0  0  0  0
    3.7283   27.1876   62.7452 C   0  0  0  0  0
    3.0457   27.5771   61.3888 C   0  0  0  0  0
    2.5670   29.0396   61.2646 C   0  0  0  0  0
    3.2764   30.4299   59.5570 C   0  0  0  0  0
    3.3905   30.8779   58.3138 C   0  0  0  0  0
    1.9057   26.6269   61.0082 C   0  0  0  0  0
    0.8962   26.6089   62.1162 C   0  0  0  0  0
    1.3574   26.5304   63.5406 C   0  0  0  0  0
    2.8563   26.2262   63.6003 C   0  0  0  0  0
    3.6385   24.8188   65.1344 C   0  0  0  0  0
    4.8974   24.7370   66.0020 C   0  0  0  0  0
    5.2671   23.2691   66.2166 C   0  0  0  0  0
    4.0475   22.4391   66.6234 C   0  0  0  0  0
    2.8672   22.7743   65.7017 C   0  0  0  0  0
    1.6364   21.9840   66.1140 C   0  0  0  0  0
    5.0017   26.4366   62.3940 C   0  0  0  0  0
    2.4523   29.3787   59.8946 O   0  0  0  0  0
   -0.2919   26.7159   61.8631 O   0  0  0  0  0
    3.2864   26.1568   64.9321 O   0  0  0  0  0
    2.5813   24.1496   65.7767 O   0  0  0  0  0
    0.6192   22.1703   65.1780 O   0  0  0  0  0
    4.3613   21.0819   66.5249 O   0  0  0  0  0
    6.2537   23.1698   67.1984 O   0  0  0  0  0
    5.9539   25.3952   65.3706 O   0  0  0  0  0
  1  2  1  0  0  0
  2  3  1  0  0  0
  2  9  1  0  0  0
  3  4  1  0  0  0
  4  5  1  0  0  0
  5  6  1  0  0  0
  6  7  1  0  0  0
  6 21  1  0  0  0
  7  8  1  0  0  0
  7 11  1  0  0  0
  8 22  1  0  0  0
  8  3  1  0  0  0
  9 22  1  0  0  0
 11 12  1  0  0  0
 13 12  1  0  0  0
 13 14  1  0  0  0
 14 24  1  0  0  0
 14  6  1  0  0  0
 15 24  1  0  0  0
 15 16  1  0  0  0
 15 25  1  0  0  0
 16 17  1  0  0  0
 16 29  1  0  0  0
 17 18  1  0  0  0
 17 28  1  0  0  0
 18 19  1  0  0  0
 18 27  1  0  0  0
 19 25  1  0  0  0
 19 20  1  0  0  0
 20 26  1  0  0  0
  9 10  2  0  0  0
 12 23  2  0  0  0
M  END
> <rmsd>
0.606382787

$$$$
PubChem-58178411


 29 32  0  0  0  0  0  0  0  0999 V2000
    4.2785   32.4897   61.0281 C   0  0  0  0  0
    4.7273   31.0519   60.8342 C   0  0  0  0  0
    4.2957   30.2063   62.0341 C   0  0  0  0  0
    5.4409   29.2173   62.2853 C   0  0  0  0  0
    5.0087   27.9737   63.0543 C   0  0  0  0  0
    3.9057   27.2152   62.3139 C   0  0  0  0  0
    2.6845   28.1508   62.1788 C   0  0  0  0  0
    2.9862   29.5246   61.5638 C   0  0  0  0  0
    3.9791   30.4268   59.7128 C   0  0  0  0  0
    4.1983   30.6768   58.4297 C   0  0  0  0  0
    1.4775   27.4724   61.5266 C   0  0  0  0  0
    1.1882   26.1950   62.2476 C   0  0  0  0  0
    2.3075   25.2303   62.4932 C   0  0  0  0  0
    3.5071   25.9572   63.1232 C   0  0  0  0  0
    3.9811   25.4783   65.3254 C   0  0  0  0  0
    3.5247   24.0104   65.3263 C   0  0  0  0  0
    4.3468   23.2245   66.3471 C   0  0  0  0  0
    5.8398   23.5364   66.2259 C   0  0  0  0  0
    6.0430   25.0560   66.1571 C   0  0  0  0  0
    7.5218   25.3843   66.0327 C   0  0  0  0  0
    4.4248   26.7708   60.9448 C   0  0  0  0  0
    3.0317   29.5266   60.1499 O   0  0  0  0  0
    0.0616   25.9496   62.6448 O   0  0  0  0  0
    3.2093   26.2897   64.4619 O   0  0  0  0  0
    5.3597   25.5798   65.0452 O   0  0  0  0  0
    7.7102   26.7631   66.1264 O   0  0  0  0  0
    6.5091   23.0134   67.3345 O   0  0  0  0  0
    4.1343   21.8568   66.1697 O   0  0  0  0  0
    2.1722   23.9361   65.6630 O   0  0  0  0  0
  1  2  1  0  0  0
  2  3  1  0  0  0
  2  9  1  0  0  0
  3  4  1  0  0  0
  4  5  1  0  0  0
  5  6  1  0  0  0
  6  7  1  0  0  0
  6 21  1  0  0  0
  7  8  1  0  0  0
  7 11  1  0  0  0
  8 22  1  0  0  0
  8  3  1  0  0  0
  9 22  1  0  0  0
 11 12  1  0  0  0
 13 12  1  0  0  0
 13 14  1  0  0  0
 14 24  1  0  0  0
 14  6  1  0  0  0
 15 24  1  0  0  0
 15 16  1  0  0  0
 15 25  1  0  0  0
 16 17  1  0  0  0
 16 29  1  0  0  0
 17 18  1  0  0  0
 17 28  1  0  0  0
 18 19  1  0  0  0
 18 27  1  0  0  0
 19 25  1  0  0  0
 19 20  1  0  0  0
 20 26  1  0  0  0
  9 10  2  0  0  0
 12 23  2  0  0  0
M  END
> <rmsd>
0.741153777

$$$$
PubChem-87508834


 34 37  0  0  0  0  0  0  0  0999 V2000
    3.7082   29.9712   58.5704 C   0  0  0  0  0
    2.4003   30.2628   59.2821 C   0  0  0  0  0
    2.1365   31.1514   61.3117 C   0  0  0  0  0
    2.1809   29.6649   61.4187 C   0  0  0  0  0
    1.0144   29.1763   62.2620 C   0  0  0  0  0
    1.1250   27.7099   62.5187 C   0  0  0  0  0
    1.7041   25.7450   63.2400 C   0  0  0  0  0
    2.0187   27.0605   63.3574 C   0  0  0  0  0
    3.0326   27.4523   64.2266 C   0  0  0  0  0
    3.3516   25.1442   64.7890 C   0  0  0  0  0
    3.4134   22.8981   65.8882 C   0  0  0  0  0
    5.4171   24.3789   65.9742 C   0  0  0  0  0
    0.0083   24.3462   62.0429 C   0  0  0  0  0
   -1.0530   24.0437   63.0445 C   0  0  0  0  0
   -2.3285   24.5996   62.9043 C   0  0  0  0  0
   -3.3146   24.3393   63.8606 C   0  0  0  0  0
   -3.0317   23.5277   64.9647 C   0  0  0  0  0
   -1.7466   22.9778   65.1052 C   0  0  0  0  0
   -0.7611   23.2378   64.1491 C   0  0  0  0  0
   -3.8389   22.4761   67.0529 C   0  0  0  0  0
    1.3110   30.4287   58.2394 C   0  0  0  0  0
    2.5284   31.4600   60.0125 O   0  0  0  0  0
    2.0759   29.1780   60.1185 O   0  0  0  0  0
    2.1568   22.8062   65.8809 O   0  0  0  0  0
    4.1665   21.7804   66.2301 O   0  0  0  0  0
    6.1249   25.2503   65.4020 O   0  0  0  0  0
    5.9674   23.6490   67.0218 O   0  0  0  0  0
   -4.0392   23.2861   65.9026 O   0  0  0  0  0
    0.3110   26.7875   61.9463 N   0  0  0  0  0
    0.6811   25.5901   62.3862 N   0  0  0  0  0
    3.6792   26.4727   64.9241 N   0  0  0  0  0
    2.3442   24.7767   63.9370 N   0  0  0  0  0
    4.0597   24.1419   65.5491 N   0  0  0  0  0
    3.4731   29.1317   64.4722 Cl  0  0  0  0  0
  1  2  1  0  0  0
  2 22  1  0  0  0
  2 21  1  0  0  0
  2 23  1  0  0  0
  3 22  1  0  0  0
  3  4  1  0  0  0
  4 23  1  0  0  0
  4  5  1  0  0  0
  5  6  1  0  0  0
  7 32  1  0  0  0
  8  9  1  0  0  0
  8  6  1  0  0  0
  9 34  1  0  0  0
 10 31  1  0  0  0
 10 33  1  0  0  0
 11 25  1  0  0  0
 12 27  1  0  0  0
 13 30  1  0  0  0
 13 14  1  0  0  0
 15 16  1  0  0  0
 17 18  1  0  0  0
 17 28  1  0  0  0
 19 14  1  0  0  0
 20 28  1  0  0  0
 30 29  1  0  0  0
 30  7  1  0  0  0
 33 11  1  0  0  0
 33 12  1  0  0  0
  6 29  2  0  0  0
  7  8  2  0  0  0
  9 31  2  0  0  0
 10 32  2  0  0  0
 11 24  2  0  0  0
 12 26  2  0  0  0
 14 15  2  0  0  0
 16 17  2  0  0  0
 18 19  2  0  0  0
M  END
> <rmsd>
0.561972976

$$$$
PubChem-120696753 CSC057737577 MCULE-5557812709 ZINC000262694074


 24 25  0  0  0  0  0  0  0  0999 V2000
    1.4542   21.5879   65.7004 C   0  0  0  0  0
    3.4604   23.0194   65.8207 C   0  0  0  0  0
    5.4257   22.2068   66.8639 C   0  0  0  0  0
    5.4319   24.4044   65.9812 C   0  0  0  0  0
    7.4682   25.7883   66.1441 C   0  0  0  0  0
    4.0955   24.2515   65.5532 C   0  0  0  0  0
    3.3852   25.3517   64.8482 C   0  0  0  0  0
    1.5258   26.0226   63.2396 C   0  0  0  0  0
    0.4789   25.7247   62.3956 C   0  0  0  0  0
    0.6095   29.2905   61.9982 C   0  0  0  0  0
   -0.8348   29.5796   61.6144 C   0  0  0  0  0
    0.9700   30.2125   63.1561 C   0  0  0  0  0
    1.4986   29.6036   60.8244 C   0  0  0  0  0
    1.7014   27.3898   63.2248 C   0  0  0  0  0
    2.1301   22.8102   65.4453 O   0  0  0  0  0
    6.1221   25.5954   65.7356 O   0  0  0  0  0
    3.7524   26.5463   65.0157 O   0  0  0  0  0
    2.2298   28.7145   60.3113 O   0  0  0  0  0
    1.5177   30.8879   60.2912 O   0  0  0  0  0
    4.1428   22.0337   66.4648 N   0  0  0  0  0
    6.0576   23.3806   66.6235 N   0  0  0  0  0
    2.2886   25.0576   63.9718 N   0  0  0  0  0
    0.0334   26.8907   61.8888 N   0  0  0  0  0
    0.7525   27.8817   62.4008 N   0  0  0  0  0
  1 15  1  0  0  0
  2 15  1  0  0  0
  3 20  1  0  0  0
  4 21  1  0  0  0
  4 16  1  0  0  0
  5 16  1  0  0  0
  6  7  1  0  0  0
  6  2  1  0  0  0
  7 22  1  0  0  0
  8  9  1  0  0  0
 10 24  1  0  0  0
 10 11  1  0  0  0
 10 12  1  0  0  0
 10 13  1  0  0  0
 13 19  1  0  0  0
 22  8  1  0  0  0
 24 23  1  0  0  0
 24 14  1  0  0  0
  2 20  2  0  0  0
  3 21  2  0  0  0
  4  6  2  0  0  0
  7 17  2  0  0  0
  9 23  2  0  0  0
 13 18  2  0  0  0
 14  8  2  0  0  0
M  END
> <rmsd>
0.542162538

$$$$
PubChem-122581486


 21 22  0  0  0  0  0  0  0  0999 V2000
    2.2223   24.9908   66.0792 C   0  0  0  0  0
    2.6574   25.7675   64.8347 C   0  0  0  0  0
    4.8725   25.4925   65.1780 C   0  0  0  0  0
    4.7033   24.6655   66.4581 C   0  0  0  0  0
    3.3164   24.0003   66.4894 C   0  0  0  0  0
    1.5686   26.7493   64.4474 C   0  0  0  0  0
    1.0230   27.2185   62.0302 C   0  0  0  0  0
    1.3956   27.8438   60.7524 C   0  0  0  0  0
    2.9261   29.1350   59.4801 C   0  0  0  0  0
    2.1000   29.0162   58.3615 C   0  0  0  0  0
    0.5698   27.7270   59.6277 C   0  0  0  0  0
    3.8541   26.4594   65.0980 O   0  0  0  0  0
    3.0248   21.6975   66.1889 O   0  0  0  0  0
    3.4815   22.8671   64.3011 O   0  0  0  0  0
    5.7144   23.7071   66.5629 O   0  0  0  0  0
    6.1128   26.1309   65.1877 O   0  0  0  0  0
   -0.0512   26.5639   62.1267 O   0  0  0  0  0
    3.2651   22.8002   65.6585 N   0  0  0  0  0
    1.8837   27.3535   63.1628 N   0  0  0  0  0
    2.5564   28.5472   60.6485 N   0  0  0  0  0
    0.9401   28.3150   58.4597 N   0  0  0  0  0
  1  2  1  0  0  0
  2 12  1  0  0  0
  2  6  1  0  0  0
  3 12  1  0  0  0
  3  4  1  0  0  0
  3 16  1  0  0  0
  4  5  1  0  0  0
  4 15  1  0  0  0
  5 18  1  0  0  0
  5  1  1  0  0  0
  6 19  1  0  0  0
  7  8  1  0  0  0
  9 20  1  0  0  0
 10 21  1  0  0  0
 11  8  1  0  0  0
 18 14  1  0  0  0
 19  7  1  0  0  0
  7 17  2  0  0  0
  8 20  2  0  0  0
  9 10  2  0  0  0
 11 21  2  0  0  0
 18 13  2  0  0  0
M  CHG  2  18   1  14  -1
M  END
> <rmsd>
0.621829867

$$$$
PubChem-102939197


 20 21  0  0  0  0  0  0  0  0999 V2000
   -1.5218   26.4125   63.1233 C   0  0  0  0  0
   -0.0136   26.4310   63.2544 C   0  0  0  0  0
    0.4628   25.1064   63.8500 C   0  0  0  0  0
    2.6285   25.6037   62.6842 C   0  0  0  0  0
    1.9331   26.8791   62.2091 C   0  0  0  0  0
    2.5828   27.3588   60.9259 C   0  0  0  0  0
    2.6034   24.1699   64.7379 C   0  0  0  0  0
    3.8796   24.4684   65.2660 C   0  0  0  0  0
    4.5068   23.4934   66.0660 C   0  0  0  0  0
    2.6378   22.0629   65.8244 C   0  0  0  0  0
    1.9251   25.0750   63.8538 N   0  0  0  0  0
    3.8710   22.3201   66.3244 N   0  0  0  0  0
    2.0174   22.9800   65.0423 N   0  0  0  0  0
    5.7881   23.7446   66.6469 N   0  0  0  0  0
    6.4163   22.7925   67.4597 N   0  0  0  0  0
    4.4923   25.7514   65.0527 N   0  0  0  0  0
    0.5672   26.6220   61.9879 O   0  0  0  0  0
    2.0637   28.6032   60.5691 O   0  0  0  0  0
    5.7210   25.8432   64.8528 O   0  0  0  0  0
    3.7415   26.9008   65.1438 O   0  0  0  0  0
  1  2  1  0  0  0
  2  3  1  0  0  0
  2 17  1  0  0  0
  3 11  1  0  0  0
  4 11  1  0  0  0
  4  5  1  0  0  0
  5 17  1  0  0  0
  5  6  1  0  0  0
  6 18  1  0  0  0
  7 13  1  0  0  0
  8  9  1  0  0  0
  8 16  1  0  0  0
  9 14  1  0  0  0
 10 12  1  0  0  0
 11  7  1  0  0  0
 14 15  1  0  0  0
 16 20  1  0  0  0
  7  8  2  0  0  0
  9 12  2  0  0  0
 10 13  2  0  0  0
 16 19  2  0  0  0
M  CHG  2  16   1  20  -1
M  END
> <rmsd>
0.730664909

$$$$
PubChem-156595282


 31 34  0  0  0  0  0  0  0  0999 V2000
    7.5249   21.9882   66.4896 C   0  0  0  0  0
    5.9481   23.5143   66.1764 C   0  0  0  0  0
    6.1250   25.0342   66.3226 C   0  0  0  0  0
    4.0323   25.5330   65.6222 C   0  0  0  0  0
    3.5963   24.0711   65.4276 C   0  0  0  0  0
    4.4615   23.1640   66.3011 C   0  0  0  0  0
    3.4555   26.2745   63.5261 C   0  0  0  0  0
    4.0297   27.5541   62.9181 C   0  0  0  0  0
    3.0184   28.6992   62.9855 C   0  0  0  0  0
    1.6952   28.3235   62.3063 C   0  0  0  0  0
    1.1276   27.0057   62.8573 C   0  0  0  0  0
    2.1633   25.8776   62.8126 C   0  0  0  0  0
   -0.1868   26.8477   60.7499 C   0  0  0  0  0
    0.6660   27.6180   60.0575 C   0  0  0  0  0
    1.7683   28.2781   60.8017 C   0  0  0  0  0
    0.4706   27.7959   58.5917 C   0  0  0  0  0
   -0.4252   26.9722   57.8856 C   0  0  0  0  0
   -0.6209   27.1413   56.5121 C   0  0  0  0  0
    0.0746   28.1388   55.8259 C   0  0  0  0  0
    0.9637   28.9677   56.5130 C   0  0  0  0  0
    1.1582   28.7974   57.8866 C   0  0  0  0  0
    7.5931   25.4114   66.2090 C   0  0  0  0  0
    6.6650   22.8480   67.1756 O   0  0  0  0  0
    5.3992   25.6996   65.3183 O   0  0  0  0  0
    4.2570   21.8312   65.9412 O   0  0  0  0  0
    2.2564   23.9252   65.7896 O   0  0  0  0  0
    3.2246   26.4442   64.9049 O   0  0  0  0  0
   -0.0372   26.6159   62.1262 O   0  0  0  0  0
    2.7520   28.7827   60.1947 O   0  0  0  0  0
   -0.1184   28.3070   54.4617 O   0  0  0  0  0
    7.7592   26.7634   66.5092 O   0  0  0  0  0
  1 23  1  0  0  0
  2 23  1  0  0  0
  2  3  1  0  0  0
  3 24  1  0  0  0
  3 22  1  0  0  0
  4 24  1  0  0  0
  4  5  1  0  0  0
  4 27  1  0  0  0
  5  6  1  0  0  0
  5 26  1  0  0  0
  6 25  1  0  0  0
  6  2  1  0  0  0
  7 27  1  0  0  0
  7  8  1  0  0  0
  8  9  1  0  0  0
  9 10  1  0  0  0
 10 11  1  0  0  0
 10 15  1  0  0  0
 11 12  1  0  0  0
 11 28  1  0  0  0
 12  7  1  0  0  0
 13 28  1  0  0  0
 14 15  1  0  0  0
 14 16  1  0  0  0
 17 18  1  0  0  0
 19 20  1  0  0  0
 19 30  1  0  0  0
 21 16  1  0  0  0
 22 31  1  0  0  0
 13 14  2  0  0  0
 15 29  2  0  0  0
 16 17  2  0  0  0
 18 19  2  0  0  0
 20 21  2  0  0  0
M  END
> <rmsd>
0.65197289

$$$$
PubChem-69112981


 26 27  0  0  0  0  0  0  0  0999 V2000
   -3.4565   26.1262   60.2933 C   0  0  0  0  0
   -2.7086   24.8754   60.7061 C   0  0  0  0  0
   -3.2110   24.4187   62.0601 C   0  0  0  0  0
   -2.9571   23.7837   59.6856 C   0  0  0  0  0
    0.0416   23.6915   61.3134 C   0  0  0  0  0
   -0.2609   25.8024   59.1298 C   0  0  0  0  0
    0.7548   26.7171   62.0089 C   0  0  0  0  0
    1.3058   26.3595   63.3919 C   0  0  0  0  0
    2.8210   26.5736   63.4222 C   0  0  0  0  0
    3.1573   28.0376   63.1395 C   0  0  0  0  0
    2.5037   28.4564   61.8595 C   0  0  0  0  0
    1.0439   28.1817   61.6728 C   0  0  0  0  0
    4.1832   25.1374   64.4200 C   0  0  0  0  0
    3.7253   23.9202   65.1841 C   0  0  0  0  0
    4.5030   23.3450   66.1077 C   0  0  0  0  0
    5.8459   23.8717   66.3950 C   0  0  0  0  0
    6.3131   24.9163   65.7097 C   0  0  0  0  0
   -0.8747   25.2445   60.8083 Si  0  0  0  0  0
   -0.6230   26.4897   61.9764 O   0  0  0  0  0
    3.1510   28.9992   60.9801 O   0  0  0  0  0
    3.3224   26.2089   64.6733 O   0  0  0  0  0
    5.5298   25.5244   64.7220 O   0  0  0  0  0
    7.5869   25.4085   65.9671 O   0  0  0  0  0
    6.6277   23.2716   67.3762 O   0  0  0  0  0
    4.0441   22.2325   66.8049 O   0  0  0  0  0
    2.4659   23.3948   64.9161 O   0  0  0  0  0
  1  2  1  0  0  0
  2  3  1  0  0  0
  2  4  1  0  0  0
  2 18  1  0  0  0
  7 19  1  0  0  0
  7  8  1  0  0  0
  8  9  1  0  0  0
  9 10  1  0  0  0
  9 21  1  0  0  0
 10 11  1  0  0  0
 12 11  1  0  0  0
 12  7  1  0  0  0
 13 21  1  0  0  0
 13 14  1  0  0  0
 13 22  1  0  0  0
 14 26  1  0  0  0
 15 16  1  0  0  0
 15 25  1  0  0  0
 16 24  1  0  0  0
 17 22  1  0  0  0
 17 23  1  0  0  0
 18  5  1  0  0  0
 18  6  1  0  0  0
 18 19  1  0  0  0
 11 20  2  0  0  0
 14 15  2  0  0  0
 16 17  2  0  0  0
M  END
> <rmsd>
0.677324116

$$$$
PubChem-88274167


 26 26  0  0  0  0  0  0  0  0999 V2000
    3.0831   27.4071   58.9103 C   0  0  0  0  0
    3.3278   27.8027   60.3557 C   0  0  0  0  0
    4.6473   27.1841   60.8032 C   0  0  0  0  0
    2.1641   27.3092   61.2247 C   0  0  0  0  0
    2.0124   25.7923   61.2173 C   0  0  0  0  0
    1.2475   25.9140   64.0389 C   0  0  0  0  0
    2.7110   25.6221   64.3439 C   0  0  0  0  0
    2.9168   24.1748   64.7857 C   0  0  0  0  0
    3.0958   23.7925   66.9704 C   0  0  0  0  0
    3.2995   22.3411   67.3758 C   0  0  0  0  0
    5.2035   21.2770   66.9848 C   0  0  0  0  0
    6.3762   21.9620   66.3042 C   0  0  0  0  0
    7.3030   23.8815   65.7197 C   0  0  0  0  0
    7.0819   25.3772   65.5934 C   0  0  0  0  0
    5.5348   26.9212   65.2678 C   0  0  0  0  0
    4.1688   27.2562   64.6940 C   0  0  0  0  0
    0.8019   25.2962   62.4252 S   0  0  0  0  0
    0.7297   23.7959   62.4639 O   0  0  0  0  0
   -0.5428   25.8454   62.0408 O   0  0  0  0  0
    2.1657   23.8819   65.9303 O   0  0  0  0  0
    4.0061   21.6647   66.3784 O   0  0  0  0  0
    6.3371   23.3325   66.5632 O   0  0  0  0  0
    5.8920   25.6213   64.9077 O   0  0  0  0  0
    3.1805   26.4968   65.3274 O   0  0  0  0  0
    3.4126   29.2631   60.4129 N   0  0  0  0  0
    3.7028   29.8276   62.0459 Cl  0  0  0  0  0
  1  2  1  0  0  0
  2  3  1  0  0  0
  2  4  1  0  0  0
  2 25  1  0  0  0
  4  5  1  0  0  0
  5 17  1  0  0  0
  7  6  1  0  0  0
  7  8  1  0  0  0
  7 24  1  0  0  0
  8 20  1  0  0  0
  9 20  1  0  0  0
  9 10  1  0  0  0
 10 21  1  0  0  0
 11 21  1  0  0  0
 11 12  1  0  0  0
 12 22  1  0  0  0
 13 22  1  0  0  0
 13 14  1  0  0  0
 14 23  1  0  0  0
 15 23  1  0  0  0
 15 16  1  0  0  0
 16 24  1  0  0  0
 17  6  1  0  0  0
 25 26  1  0  0  0
 17 18  2  0  0  0
 17 19  2  0  0  0
M  END
> <rmsd>
0.678791046

$$$$
PubChem-163015023


 32 35  0  0  0  0  0  0  0  0999 V2000
    2.6157   34.3365   61.0873 C   0  0  0  0  0
    2.9575   33.7769   62.3205 C   0  0  0  0  0
    3.0777   32.3865   62.4600 C   0  0  0  0  0
    2.8519   31.5527   61.3481 C   0  0  0  0  0
    2.5119   32.1250   60.1132 C   0  0  0  0  0
    2.3932   33.5107   59.9838 C   0  0  0  0  0
    2.9839   30.0860   61.4783 C   0  0  0  0  0
    3.2638   29.4757   62.8093 C   0  0  0  0  0
    3.3090   28.0700   63.0032 C   0  0  0  0  0
    3.6802   27.5416   64.2489 C   0  0  0  0  0
    3.9593   28.4034   65.3155 C   0  0  0  0  0
    3.8769   29.7816   65.1474 C   0  0  0  0  0
    3.5291   30.3278   63.9075 C   0  0  0  0  0
    3.4454   31.7969   63.7606 C   0  0  0  0  0
    4.1243   25.5229   65.6259 C   0  0  0  0  0
    3.7621   24.0387   65.5766 C   0  0  0  0  0
    4.1337   23.4039   66.9129 C   0  0  0  0  0
    5.5852   23.7206   67.2859 C   0  0  0  0  0
    5.8662   25.2194   67.1211 C   0  0  0  0  0
    5.2607   26.0539   68.2483 C   0  0  0  0  0
    1.6399   26.9952   61.5488 C   0  0  0  0  0
    0.8559   26.2104   62.5840 C   0  0  0  0  0
    2.8941   29.3676   60.4460 O   0  0  0  0  0
    3.6832   32.5462   64.7479 O   0  0  0  0  0
    3.7453   26.1518   64.4065 O   0  0  0  0  0
    5.7272   27.3658   68.1687 O   0  0  0  0  0
    5.5130   25.6906   65.8315 O   0  0  0  0  0
    6.4659   22.9936   66.4808 O   0  0  0  0  0
    3.9305   22.0231   66.8696 O   0  0  0  0  0
    2.3904   23.8964   65.3596 O   0  0  0  0  0
    2.9839   27.1756   61.9795 O   0  0  0  0  0
   -0.4587   26.0523   62.1491 O   0  0  0  0  0
  2  3  1  0  0  0
  4  5  1  0  0  0
  4  7  1  0  0  0
  6  1  1  0  0  0
  7  8  1  0  0  0
  9 10  1  0  0  0
  9 31  1  0  0  0
 10 25  1  0  0  0
 11 12  1  0  0  0
 13 14  1  0  0  0
 13  8  1  0  0  0
 14  3  1  0  0  0
 15 25  1  0  0  0
 15 16  1  0  0  0
 15 27  1  0  0  0
 16 17  1  0  0  0
 16 30  1  0  0  0
 17 18  1  0  0  0
 17 29  1  0  0  0
 18 19  1  0  0  0
 18 28  1  0  0  0
 19 20  1  0  0  0
 19 27  1  0  0  0
 20 26  1  0  0  0
 21 31  1  0  0  0
 21 22  1  0  0  0
 22 32  1  0  0  0
  1  2  2  0  0  0
  3  4  2  0  0  0
  5  6  2  0  0  0
  7 23  2  0  0  0
  8  9  2  0  0  0
 10 11  2  0  0  0
 12 13  2  0  0  0
 14 24  2  0  0  0
M  END
> <rmsd>
0.694074929

$$$$
PubChem-372717 CHEMBL292626 NSC648277


 25 26  0  0  0  0  0  0  0  0999 V2000
    0.2935   30.1575   61.5689 C   0  0  0  0  0
    1.5790   29.4170   61.7147 C   0  0  0  0  0
    3.4690   28.5324   61.2158 C   0  0  0  0  0
    3.1698   28.2640   62.5382 C   0  0  0  0  0
    1.2477   28.7338   64.1088 C   0  0  0  0  0
    0.1983   27.6355   64.0337 C   0  0  0  0  0
    0.6615   25.4816   62.8071 C   0  0  0  0  0
    1.3988   24.1881   62.7359 C   0  0  0  0  0
    0.6385   23.0799   63.4537 C   0  0  0  0  0
    0.6544   23.2648   64.9677 C   0  0  0  0  0
    2.2978   22.0027   66.3507 C   0  0  0  0  0
    4.0160   23.1798   66.0309 C   0  0  0  0  0
    2.4559   29.2638   60.7008 N   0  0  0  0  0
    1.9853   28.8216   62.8523 N   0  0  0  0  0
    0.8465   26.3381   63.9344 N   0  0  0  0  0
    1.9780   23.0035   65.5129 N   0  0  0  0  0
    3.5990   22.0827   66.7000 N   0  0  0  0  0
    3.0412   23.7584   65.3075 N   0  0  0  0  0
    5.3526   23.6800   66.0909 N   0  0  0  0  0
    3.9952   27.5047   63.4336 N   0  0  0  0  0
   -0.1269   25.8036   61.8786 O   0  0  0  0  0
    6.2102   23.1005   66.7875 O   0  0  0  0  0
    5.7043   24.7970   65.3705 O   0  0  0  0  0
    5.0498   26.9834   63.0172 O   0  0  0  0  0
    3.6545   27.3571   64.7578 O   0  0  0  0  0
  1  2  1  0  0  0
  3 13  1  0  0  0
  4 14  1  0  0  0
  4 20  1  0  0  0
  5 14  1  0  0  0
  5  6  1  0  0  0
  6 15  1  0  0  0
  8  7  1  0  0  0
  8  9  1  0  0  0
  9 10  1  0  0  0
 10 16  1  0  0  0
 12 17  1  0  0  0
 12 19  1  0  0  0
 14  2  1  0  0  0
 15  7  1  0  0  0
 16 11  1  0  0  0
 16 18  1  0  0  0
 19 23  1  0  0  0
 20 25  1  0  0  0
  2 13  2  0  0  0
  3  4  2  0  0  0
  7 21  2  0  0  0
 11 17  2  0  0  0
 12 18  2  0  0  0
 19 22  2  0  0  0
 20 24  2  0  0  0
M  CHG  4  19   1  23  -1  20   1  25  -1
M  END
> <rmsd>
0.645421624

$$$$
PubChem-156543812


 33 36  0  0  0  0  0  0  0  0999 V2000
    3.4696   23.3647   61.2560 C   0  0  0  0  0
    2.9932   24.4971   60.3973 C   0  0  0  0  0
    1.8097   25.0434   61.1648 C   0  0  0  0  0
    2.6569   23.4888   62.5267 C   0  0  0  0  0
    3.5847   23.4123   63.7259 C   0  0  0  0  0
    3.7848   24.2692   65.8859 C   0  0  0  0  0
    2.9454   24.8766   67.0242 C   0  0  0  0  0
    2.0377   25.9969   66.6092 C   0  0  0  0  0
    0.9258   25.7587   65.7906 C   0  0  0  0  0
    0.0880   26.8150   65.4203 C   0  0  0  0  0
    0.3563   28.1108   65.8709 C   0  0  0  0  0
    1.4566   28.3490   66.6986 C   0  0  0  0  0
    2.2942   27.2930   67.0693 C   0  0  0  0  0
    4.5604   23.1267   66.5105 C   0  0  0  0  0
    4.7283   25.3417   65.3433 C   0  0  0  0  0
    2.5481   27.3860   60.4882 C   0  0  0  0  0
    0.8799   28.5338   61.1243 C   0  0  0  0  0
   -0.0719   29.4989   61.4212 C   0  0  0  0  0
   -1.4611   27.7633   62.2884 C   0  0  0  0  0
    0.6356   27.2382   61.4114 C   0  0  0  0  0
    1.9789   24.7191   62.5173 O   0  0  0  0  0
    2.8886   23.7789   64.8949 O   0  0  0  0  0
    4.3763   21.9385   66.1334 O   0  0  0  0  0
    5.4569   23.3744   67.5454 O   0  0  0  0  0
    4.2664   26.3219   64.6997 O   0  0  0  0  0
    6.1054   25.2414   65.5164 O   0  0  0  0  0
   -0.6925   29.4337   65.4123 Cl  0  0  0  0  0
   -2.9646   27.2789   63.0409 Cl  0  0  0  0  0
    1.6707   26.4909   61.0172 N   0  0  0  0  0
    2.0842   28.6674   60.5381 N   0  0  0  0  0
   -1.2369   29.0870   62.0036 N   0  0  0  0  0
   -0.5175   26.8199   61.9878 N   0  0  0  0  0
    0.1434   30.8735   61.1196 N   0  0  0  0  0
  1  2  1  0  0  0
  2  3  1  0  0  0
  3 21  1  0  0  0
  3 29  1  0  0  0
  4 21  1  0  0  0
  4  5  1  0  0  0
  4  1  1  0  0  0
  5 22  1  0  0  0
  6 22  1  0  0  0
  6  7  1  0  0  0
  6 14  1  0  0  0
  6 15  1  0  0  0
  7  8  1  0  0  0
  9 10  1  0  0  0
 11 12  1  0  0  0
 11 27  1  0  0  0
 13  8  1  0  0  0
 14 24  1  0  0  0
 15 26  1  0  0  0
 17 30  1  0  0  0
 18 31  1  0  0  0
 18 33  1  0  0  0
 19 32  1  0  0  0
 19 28  1  0  0  0
 20 29  1  0  0  0
 20 17  1  0  0  0
 29 16  1  0  0  0
  8  9  2  0  0  0
 10 11  2  0  0  0
 12 13  2  0  0  0
 14 23  2  0  0  0
 15 25  2  0  0  0
 16 30  2  0  0  0
 17 18  2  0  0  0
 19 31  2  0  0  0
 20 32  2  0  0  0
M  END
> <rmsd>
0.697342396

$$$$
PubChem-87509034


 31 33  0  0  0  0  0  0  0  0999 V2000
   -2.9167   22.0532   66.0487 C   0  0  0  0  0
   -2.0348   22.5735   64.9664 C   0  0  0  0  0
   -2.3963   23.7893   64.3861 C   0  0  0  0  0
   -0.5415   23.7099   62.9098 C   0  0  0  0  0
   -0.1360   22.4784   63.4535 C   0  0  0  0  0
   -0.8783   21.8978   64.4984 C   0  0  0  0  0
   -0.9688   19.9843   66.1308 C   0  0  0  0  0
    1.0830   21.7835   62.9318 C   0  0  0  0  0
    0.2445   24.3719   61.8213 C   0  0  0  0  0
    1.8001   25.7601   63.2186 C   0  0  0  0  0
    2.0873   27.0752   63.3897 C   0  0  0  0  0
    1.2325   27.7370   62.5243 C   0  0  0  0  0
    1.1605   29.2067   62.2746 C   0  0  0  0  0
    2.0808   29.5975   61.1645 C   0  0  0  0  0
    3.0696   27.4567   64.2970 C   0  0  0  0  0
    3.3967   25.1398   64.8126 C   0  0  0  0  0
    3.4074   22.9024   65.9206 C   0  0  0  0  0
    5.4448   24.3394   66.0017 C   0  0  0  0  0
   -1.6533   24.3266   63.3867 N   0  0  0  0  0
    0.8309   25.6160   62.3006 N   0  0  0  0  0
    0.4793   26.8206   61.8646 N   0  0  0  0  0
    3.7047   26.4678   64.9922 N   0  0  0  0  0
    2.4302   24.7812   63.9105 N   0  0  0  0  0
    4.0841   24.1272   65.5756 N   0  0  0  0  0
   -0.4208   20.6704   65.0148 O   0  0  0  0  0
    1.8597   29.2344   60.0205 O   0  0  0  0  0
    2.1486   22.8495   65.9347 O   0  0  0  0  0
    4.1321   21.7615   66.2467 O   0  0  0  0  0
    6.1601   25.2163   65.4474 O   0  0  0  0  0
    5.9902   23.5803   67.0310 O   0  0  0  0  0
    3.4967   29.1351   64.5718 Cl  0  0  0  0  0
  1  2  1  0  0  0
  3 19  1  0  0  0
  4  5  1  0  0  0
  6 25  1  0  0  0
  6  2  1  0  0  0
  7 25  1  0  0  0
  8  5  1  0  0  0
  9  4  1  0  0  0
  9 20  1  0  0  0
 10 23  1  0  0  0
 11 12  1  0  0  0
 11 15  1  0  0  0
 13 12  1  0  0  0
 13 14  1  0  0  0
 15 31  1  0  0  0
 16 22  1  0  0  0
 16 24  1  0  0  0
 17 28  1  0  0  0
 18 30  1  0  0  0
 20 10  1  0  0  0
 20 21  1  0  0  0
 24 17  1  0  0  0
 24 18  1  0  0  0
  2  3  2  0  0  0
  4 19  2  0  0  0
  5  6  2  0  0  0
 10 11  2  0  0  0
 12 21  2  0  0  0
 14 26  2  0  0  0
 15 22  2  0  0  0
 16 23  2  0  0  0
 17 27  2  0  0  0
 18 29  2  0  0  0
M  END
> <rmsd>
0.640345812

$$$$
PubChem-51420856 6232624 ZINC000006232624


 27 29  0  0  0  0  0  0  0  0999 V2000
    6.1151   27.5164   64.5517 C   0  0  0  0  0
    5.4557   26.1596   64.3843 C   0  0  0  0  0
    5.9330   25.5520   63.0789 C   0  0  0  0  0
    4.6951   25.2173   66.2392 C   0  0  0  0  0
    4.5596   23.8535   66.9042 C   0  0  0  0  0
    5.5027   21.9564   67.4454 C   0  0  0  0  0
    6.7940   21.3080   66.9791 C   0  0  0  0  0
    5.1529   21.4032   68.8161 C   0  0  0  0  0
    4.2640   22.8461   65.8723 C   0  0  0  0  0
    3.0214   24.1715   64.5866 C   0  0  0  0  0
    1.6999   24.4140   63.9414 C   0  0  0  0  0
    0.3880   24.7270   61.7974 C   0  0  0  0  0
    0.1915   26.2053   61.8441 C   0  0  0  0  0
    1.1366   28.5245   61.5531 C   0  0  0  0  0
    2.4348   29.1544   61.1951 C   0  0  0  0  0
    3.5326   25.4671   65.2975 C   0  0  0  0  0
    5.8374   25.3187   65.4510 O   0  0  0  0  0
    5.6905   23.3603   67.5361 O   0  0  0  0  0
    4.4598   21.6431   66.5336 O   0  0  0  0  0
    2.9492   23.0453   65.4417 O   0  0  0  0  0
    0.6886   24.6785   64.6470 O   0  0  0  0  0
   -0.9308   26.6712   62.1767 O   0  0  0  0  0
    2.6275   29.5765   60.0253 O   0  0  0  0  0
    3.4485   29.2427   62.1405 O   0  0  0  0  0
    4.0525   26.3283   64.3317 O   0  0  0  0  0
    1.5981   24.3545   62.5176 N   0  0  0  0  0
    1.2665   27.0785   61.4944 N   0  0  0  0  0
  1  2  1  0  0  0
  2  3  1  0  0  0
  2 17  1  0  0  0
  2 25  1  0  0  0
  4 17  1  0  0  0
  4  5  1  0  0  0
  5 18  1  0  0  0
  6 18  1  0  0  0
  6  7  1  0  0  0
  6  8  1  0  0  0
  6 19  1  0  0  0
  9 19  1  0  0  0
  9 20  1  0  0  0
  9  5  1  0  0  0
 10 20  1  0  0  0
 10 11  1  0  0  0
 10 16  1  0  0  0
 11 26  1  0  0  0
 12 26  1  0  0  0
 12 13  1  0  0  0
 13 27  1  0  0  0
 14 27  1  0  0  0
 14 15  1  0  0  0
 15 24  1  0  0  0
 16 25  1  0  0  0
 16  4  1  0  0  0
 11 21  2  0  0  0
 13 22  2  0  0  0
 15 23  2  0  0  0
M  END
> <rmsd>
0.630168319

$$$$
PubChem-70863280


 35 39  0  0  0  0  0  0  0  0999 V2000
    5.6248   27.5300   63.7431 C   0  0  0  0  0
    5.0009   26.1455   63.7492 C   0  0  0  0  0
    3.6307   25.3127   65.3160 C   0  0  0  0  0
    2.9052   24.0398   64.8607 C   0  0  0  0  0
    4.3139   22.5568   65.8048 C   0  0  0  0  0
    5.3491   23.5921   66.1723 C   0  0  0  0  0
    5.0678   25.0172   65.6648 C   0  0  0  0  0
    5.0242   22.2465   67.8996 C   0  0  0  0  0
    4.0022   22.3337   69.0191 C   0  0  0  0  0
    6.2145   21.4465   68.3961 C   0  0  0  0  0
    1.4361   24.3140   64.5809 C   0  0  0  0  0
    0.0334   24.7053   62.9123 C   0  0  0  0  0
   -0.7622   25.9767   62.6699 C   0  0  0  0  0
   -0.5916   28.0369   61.3403 C   0  0  0  0  0
    0.0561   28.8848   60.5675 C   0  0  0  0  0
   -0.7622   30.0681   60.3554 C   0  0  0  0  0
   -1.9079   29.8992   61.0031 C   0  0  0  0  0
   -1.9288   28.5778   61.7085 C   0  0  0  0  0
    1.4506   28.6884   60.0645 C   0  0  0  0  0
    3.5991   29.4550   60.1970 C   0  0  0  0  0
    3.4743   30.3480   58.9672 C   0  0  0  0  0
    2.0346   30.2690   58.4722 C   0  0  0  0  0
    1.9663   30.6480   57.0052 C   0  0  0  0  0
    0.5143   31.9422   55.9569 C   0  0  0  0  0
    4.9394   25.6380   62.3206 C   0  0  0  0  0
    3.6906   26.2295   64.2655 O   0  0  0  0  0
    3.0079   23.0783   65.8718 O   0  0  0  0  0
    5.8036   25.2743   64.5124 O   0  0  0  0  0
    5.4465   23.5488   67.5575 O   0  0  0  0  0
    4.4478   21.5825   66.7921 O   0  0  0  0  0
    1.3056   25.0265   63.3869 O   0  0  0  0  0
   -0.0698   26.8121   61.7532 O   0  0  0  0  0
    2.3681   29.4136   60.8724 O   0  0  0  0  0
    1.5270   28.9689   58.6677 O   0  0  0  0  0
    0.6335   30.7073   56.5950 O   0  0  0  0  0
  1  2  1  0  0  0
  2 26  1  0  0  0
  2 25  1  0  0  0
  2 28  1  0  0  0
  3 26  1  0  0  0
  3  4  1  0  0  0
  4 27  1  0  0  0
  4 11  1  0  0  0
  5 27  1  0  0  0
  5  6  1  0  0  0
  5 30  1  0  0  0
  6  7  1  0  0  0
  6 29  1  0  0  0
  7 28  1  0  0  0
  7  3  1  0  0  0
  8 29  1  0  0  0
  8 30  1  0  0  0
  8  9  1  0  0  0
  8 10  1  0  0  0
 11 31  1  0  0  0
 12 31  1  0  0  0
 12 13  1  0  0  0
 13 32  1  0  0  0
 14 32  1  0  0  0
 15 16  1  0  0  0
 18 17  1  0  0  0
 18 14  1  0  0  0
 19 15  1  0  0  0
 19 33  1  0  0  0
 19 34  1  0  0  0
 20 33  1  0  0  0
 20 21  1  0  0  0
 21 22  1  0  0  0
 22 34  1  0  0  0
 22 23  1  0  0  0
 23 35  1  0  0  0
 24 35  1  0  0  0
 14 15  2  0  0  0
 16 17  2  0  0  0
M  END
> <rmsd>
0.702636838

$$$$
PubChem-148735882


 28 30  0  0  0  0  0  0  0  0999 V2000
    0.3746   23.8580   64.8005 C   0  0  0  0  0
    1.4539   22.9683   65.1791 C   0  0  0  0  0
    1.4542   22.4162   63.7934 C   0  0  0  0  0
    0.3978   23.2831   63.4282 C   0  0  0  0  0
   -0.1542   23.3140   62.1634 C   0  0  0  0  0
    0.4243   22.4053   61.2434 C   0  0  0  0  0
    1.4939   21.5291   61.6075 C   0  0  0  0  0
    2.0375   21.5217   62.9165 C   0  0  0  0  0
    3.8027   23.2742   65.8517 C   0  0  0  0  0
    4.9509   24.1849   65.9688 C   0  0  0  0  0
    5.0241   25.5094   65.6165 C   0  0  0  0  0
    4.2009   27.6170   64.6307 C   0  0  0  0  0
    4.9335   27.6324   63.3251 C   0  0  0  0  0
    4.6019   26.6379   62.2551 C   0  0  0  0  0
    3.8967   27.3044   61.0814 C   0  0  0  0  0
    2.4532   27.6441   61.4234 C   0  0  0  0  0
    1.6199   26.3762   61.5041 C   0  0  0  0  0
    2.0048   20.6874   60.6767 F   0  0  0  0  0
    2.6701   23.7392   65.4045 N   0  0  0  0  0
    6.1637   23.8327   66.4292 N   0  0  0  0  0
    6.2702   25.9445   65.8675 N   0  0  0  0  0
    3.9832   21.9006   66.2311 N   0  0  0  0  0
    6.8996   24.9079   66.3482 O   0  0  0  0  0
    3.9938   26.2832   65.0796 O   0  0  0  0  0
    5.7920   28.4764   63.1266 O   0  0  0  0  0
    0.3371   26.6784   61.9599 O   0  0  0  0  0
    1.9338   28.4819   60.4370 O   0  0  0  0  0
    2.9834   20.9881   66.2584 O   0  0  0  0  0
  1  2  1  0  0  0
  1  4  1  0  0  0
  2  3  1  0  0  0
  2 19  1  0  0  0
  4  5  1  0  0  0
  6  7  1  0  0  0
  7 18  1  0  0  0
  8  3  1  0  0  0
  9 10  1  0  0  0
  9 22  1  0  0  0
 11 24  1  0  0  0
 11 10  1  0  0  0
 12 24  1  0  0  0
 12 13  1  0  0  0
 14 13  1  0  0  0
 14 15  1  0  0  0
 15 16  1  0  0  0
 16 17  1  0  0  0
 16 27  1  0  0  0
 17 26  1  0  0  0
 20 23  1  0  0  0
 22 28  1  0  0  0
 23 21  1  0  0  0
  3  4  2  0  0  0
  5  6  2  0  0  0
  7  8  2  0  0  0
  9 19  2  0  0  0
 10 20  2  0  0  0
 11 21  2  0  0  0
 13 25  2  0  0  0
M  END
> <rmsd>
0.759999812

$$$$
PubChem-22528137 MCULE-5724745641 ZINC40628852


 23 24  0  0  0  0  0  0  0  0999 V2000
    7.7666   22.5470   66.9500 C   0  0  0  0  0
    6.7386   23.5098   68.8062 C   0  0  0  0  0
    4.5204   23.3890   66.1778 C   0  0  0  0  0
    3.8533   24.3121   65.3521 C   0  0  0  0  0
    2.5797   23.9541   64.8518 C   0  0  0  0  0
    2.6927   21.8966   66.0227 C   0  0  0  0  0
    1.6751   26.5748   62.2588 C   0  0  0  0  0
    2.3301   27.6246   61.4602 C   0  0  0  0  0
    3.7077   27.8490   61.5703 C   0  0  0  0  0
    4.3186   28.8472   60.8100 C   0  0  0  0  0
    3.5400   29.6151   59.9423 C   0  0  0  0  0
    1.5888   28.4199   60.5767 C   0  0  0  0  0
    6.4771   22.8061   67.5639 N   0  0  0  0  0
    5.8032   23.7034   66.7253 N   0  0  0  0  0
    2.0349   22.7632   65.2133 N   0  0  0  0  0
    3.9250   22.2086   66.4927 N   0  0  0  0  0
    1.8459   24.7770   63.9363 N   0  0  0  0  0
    2.4463   25.7701   63.1514 N   0  0  0  0  0
    2.2027   29.3879   59.8441 N   0  0  0  0  0
    4.4255   25.6038   65.1031 N   0  0  0  0  0
    0.4323   26.3850   62.1582 O   0  0  0  0  0
    5.6158   25.7070   64.7417 O   0  0  0  0  0
    3.7225   26.7393   65.4335 O   0  0  0  0  0
  1 13  1  0  0  0
  2 13  1  0  0  0
  3 16  1  0  0  0
  4  5  1  0  0  0
  4 20  1  0  0  0
  5 17  1  0  0  0
  6 15  1  0  0  0
  7  8  1  0  0  0
  9 10  1  0  0  0
 11 19  1  0  0  0
 12  8  1  0  0  0
 13 14  1  0  0  0
 14  3  1  0  0  0
 17 18  1  0  0  0
 18  7  1  0  0  0
 20 23  1  0  0  0
  3  4  2  0  0  0
  5 15  2  0  0  0
  6 16  2  0  0  0
  7 21  2  0  0  0
  8  9  2  0  0  0
 10 11  2  0  0  0
 12 19  2  0  0  0
 20 22  2  0  0  0
M  CHG  2  20   1  23  -1
M  END
> <rmsd>
0.761407495

$$$$
PubChem-135083156


 31 33  0  0  0  0  0  0  0  0999 V2000
    1.3797   30.4598   66.0274 C   0  0  0  0  0
    2.1186   29.0552   64.4831 C   0  0  0  0  0
    2.3811   27.5547   64.6625 C   0  0  0  0  0
    1.3207   26.7493   63.9020 C   0  0  0  0  0
    1.1829   27.2495   62.4651 C   0  0  0  0  0
    0.9851   28.7718   62.4880 C   0  0  0  0  0
    0.8020   29.3296   61.0815 C   0  0  0  0  0
    0.5788   24.7902   64.6231 C   0  0  0  0  0
    1.1151   24.0330   65.8242 C   0  0  0  0  0
    1.6543   21.9779   66.4129 C   0  0  0  0  0
    2.7714   20.9520   66.3848 C   0  0  0  0  0
    4.7816   21.2667   67.8046 C   0  0  0  0  0
    4.3336   20.3002   68.7218 C   0  0  0  0  0
    5.0755   20.0053   69.8662 C   0  0  0  0  0
    6.2730   20.6760   70.1106 C   0  0  0  0  0
    6.7326   21.6348   69.2064 C   0  0  0  0  0
    6.0078   21.9341   68.0467 C   0  0  0  0  0
    6.1144   23.1054   65.8456 C   0  0  0  0  0
    6.7961   24.3298   65.2664 C   0  0  0  0  0
    5.6857   26.1879   64.8339 C   0  0  0  0  0
    4.3117   26.6515   65.2710 C   0  0  0  0  0
    0.9575   29.4542   65.1575 O   0  0  0  0  0
    2.0747   29.4184   63.1148 O   0  0  0  0  0
    1.9572   29.1349   60.3214 O   0  0  0  0  0
    0.0810   26.6350   61.8662 O   0  0  0  0  0
    1.6308   25.3855   63.9225 O   0  0  0  0  0
    1.8436   22.9207   65.4018 O   0  0  0  0  0
    4.0116   21.5825   66.6793 O   0  0  0  0  0
    6.5432   22.9016   67.1850 O   0  0  0  0  0
    6.2933   25.4822   65.8723 O   0  0  0  0  0
    3.6617   27.2486   64.1903 O   0  0  0  0  0
  1 22  1  0  0  0
  2 22  1  0  0  0
  2  3  1  0  0  0
  2 23  1  0  0  0
  3  4  1  0  0  0
  3 31  1  0  0  0
  4  5  1  0  0  0
  4 26  1  0  0  0
  5  6  1  0  0  0
  5 25  1  0  0  0
  6 23  1  0  0  0
  6  7  1  0  0  0
  7 24  1  0  0  0
  8 26  1  0  0  0
  8  9  1  0  0  0
  9 27  1  0  0  0
 10 27  1  0  0  0
 10 11  1  0  0  0
 11 28  1  0  0  0
 12 28  1  0  0  0
 13 14  1  0  0  0
 15 16  1  0  0  0
 17 29  1  0  0  0
 17 12  1  0  0  0
 18 29  1  0  0  0
 18 19  1  0  0  0
 19 30  1  0  0  0
 20 30  1  0  0  0
 20 21  1  0  0  0
 21 31  1  0  0  0
 12 13  2  0  0  0
 14 15  2  0  0  0
 16 17  2  0  0  0
M  END
> <rmsd>
0.669465661

$$$$
PubChem-135207959


 29 31  0  0  0  0  0  0  0  0999 V2000
    4.2537   24.1459   60.6677 C   0  0  0  0  0
    2.8266   24.5992   60.9449 C   0  0  0  0  0
    2.2579   25.3453   59.7270 C   0  0  0  0  0
    3.1353   26.5079   59.2601 C   0  0  0  0  0
    2.4027   27.4623   58.3153 C   0  0  0  0  0
    1.0041   27.8598   58.8050 C   0  0  0  0  0
    0.9293   28.6549   60.1192 C   0  0  0  0  0
   -0.3448   28.1830   60.8280 C   0  0  0  0  0
    0.7721   27.0412   62.4435 C   0  0  0  0  0
    1.3572   25.6740   62.8106 C   0  0  0  0  0
    2.7748   25.4320   62.2555 C   0  0  0  0  0
    3.6516   26.7062   62.2489 C   0  0  0  0  0
    1.8627   28.1380   62.2511 C   0  0  0  0  0
    5.0615   26.4494   62.7802 C   0  0  0  0  0
    4.5307   24.2277   64.6006 C   0  0  0  0  0
    4.2976   23.8230   66.0473 C   0  0  0  0  0
    3.4294   22.6049   66.1001 C   0  0  0  0  0
    0.7874   30.1268   59.7870 C   0  0  0  0  0
    2.0062   23.3339   61.1268 C   0  0  0  0  0
   -0.1060   26.9041   61.3490 O   0  0  0  0  0
    3.0568   27.7961   62.9218 O   0  0  0  0  0
    2.1133   28.4662   60.8911 O   0  0  0  0  0
    6.5028   26.0050   64.9967 O   0  0  0  0  0
    4.2112   26.8056   65.3243 O   0  0  0  0  0
    2.2418   22.6669   65.6866 O   0  0  0  0  0
    3.9130   21.4058   66.6115 O   0  0  0  0  0
    1.3749   25.5383   64.1985 O   0  0  0  0  0
    5.0913   25.9178   64.4893 S   0  0  0  0  0
    5.5729   23.5719   66.7002 N   0  0  0  0  0
  1  2  1  0  0  0
  2  3  1  0  0  0
  2 19  1  0  0  0
  3  4  1  0  0  0
  4  5  1  0  0  0
  5  6  1  0  0  0
  6  7  1  0  0  0
  7  8  1  0  0  0
  7 18  1  0  0  0
  7 22  1  0  0  0
  8 20  1  0  0  0
  9 20  1  0  0  0
  9 10  1  0  0  0
 10 11  1  0  0  0
 10 27  1  0  0  0
 11 12  1  0  0  0
 11  2  1  0  0  0
 12 21  1  0  0  0
 12 14  1  0  0  0
 13 21  1  0  0  0
 13 22  1  0  0  0
 13  9  1  0  0  0
 14 28  1  0  0  0
 15 16  1  0  0  0
 16 17  1  0  0  0
 16 29  1  0  0  0
 17 26  1  0  0  0
 28 15  1  0  0  0
 17 25  2  0  0  0
 28 23  2  0  0  0
 28 24  2  0  0  0
M  END
> <rmsd>
0.721432984

$$$$
PubChem-80928673


 19 20  0  0  0  0  0  0  0  0999 V2000
    0.3169   25.0404   63.9834 C   0  0  0  0  0
   -0.2713   26.3811   63.5434 C   0  0  0  0  0
    1.6097   27.0849   62.5201 C   0  0  0  0  0
    2.4112   25.8243   62.8454 C   0  0  0  0  0
    2.5427   24.1864   64.7365 C   0  0  0  0  0
    3.8056   24.5265   65.2715 C   0  0  0  0  0
    4.5233   23.5258   65.9553 C   0  0  0  0  0
    2.7610   21.9883   65.5979 C   0  0  0  0  0
    2.1640   27.7230   61.3253 C   0  0  0  0  0
    0.2623   26.7503   62.2955 O   0  0  0  0  0
    5.5283   26.0736   64.9712 O   0  0  0  0  0
    3.4840   26.9407   65.4077 O   0  0  0  0  0
    1.7771   25.1223   63.9623 N   0  0  0  0  0
    3.9835   22.2870   66.1011 N   0  0  0  0  0
    2.0548   22.9303   64.9256 N   0  0  0  0  0
    5.7962   23.8139   66.5376 N   0  0  0  0  0
    6.5135   22.8350   67.2365 N   0  0  0  0  0
    4.3154   25.8678   65.1826 N   0  0  0  0  0
    2.6020   28.2282   60.3807 N   0  0  0  0  0
  1  2  1  0  0  0
  1 13  1  0  0  0
  2 10  1  0  0  0
  3 10  1  0  0  0
  3  4  1  0  0  0
  3  9  1  0  0  0
  4 13  1  0  0  0
  5 15  1  0  0  0
  6  7  1  0  0  0
  6 18  1  0  0  0
  7 16  1  0  0  0
  8 14  1  0  0  0
 13  5  1  0  0  0
 16 17  1  0  0  0
 18 12  1  0  0  0
  5  6  2  0  0  0
  7 14  2  0  0  0
  8 15  2  0  0  0
 18 11  2  0  0  0
  9 19  3  0  0  0
M  CHG  2  18   1  12  -1
M  END
> <rmsd>
0.765054703

$$$$
PubChem-80928673


 19 20  0  0  0  0  0  0  0  0999 V2000
    0.3132   24.9818   63.9811 C   0  0  0  0  0
   -0.3973   25.7538   62.8704 C   0  0  0  0  0
    1.4260   26.3259   61.7418 C   0  0  0  0  0
    2.4296   25.6349   62.6638 C   0  0  0  0  0
    2.5326   24.0405   64.5981 C   0  0  0  0  0
    3.7469   24.4665   65.1849 C   0  0  0  0  0
    4.4751   23.5313   65.9440 C   0  0  0  0  0
    2.8118   21.8927   65.5608 C   0  0  0  0  0
    2.0965   27.3924   60.9965 C   0  0  0  0  0
    0.3707   26.8614   62.4905 O   0  0  0  0  0
    3.3929   26.7705   65.2159 O   0  0  0  0  0
    5.5334   26.1076   64.9001 O   0  0  0  0  0
    1.7603   24.8981   63.7459 N   0  0  0  0  0
    3.9897   22.2730   66.1131 N   0  0  0  0  0
    2.0972   22.7702   64.8143 N   0  0  0  0  0
    5.6983   23.9072   66.5797 N   0  0  0  0  0
    6.4247   22.9943   67.3547 N   0  0  0  0  0
    4.1978   25.8269   65.0732 N   0  0  0  0  0
    2.6261   28.2358   60.4069 N   0  0  0  0  0
  1  2  1  0  0  0
  1 13  1  0  0  0
  2 10  1  0  0  0
  3 10  1  0  0  0
  3  4  1  0  0  0
  3  9  1  0  0  0
  4 13  1  0  0  0
  5 15  1  0  0  0
  6  7  1  0  0  0
  6 18  1  0  0  0
  7 16  1  0  0  0
  8 14  1  0  0  0
 13  5  1  0  0  0
 16 17  1  0  0  0
 18 12  1  0  0  0
  5  6  2  0  0  0
  7 14  2  0  0  0
  8 15  2  0  0  0
 18 11  2  0  0  0
  9 19  3  0  0  0
M  CHG  2  18   1  12  -1
M  END
> <rmsd>
0.780058086

$$$$
PubChem-140364250


 28 29  0  0  0  0  0  0  0  0999 V2000
    3.5081   29.9802   64.9818 C   0  0  0  0  0
    2.0714   29.8177   64.6196 C   0  0  0  0  0
    1.6351   29.0470   63.5090 C   0  0  0  0  0
    0.2337   28.9192   63.2806 C   0  0  0  0  0
   -0.6659   29.5970   64.1148 C   0  0  0  0  0
   -0.2175   30.3661   65.1828 C   0  0  0  0  0
    1.1449   30.4668   65.4368 C   0  0  0  0  0
   -0.3557   28.0869   62.2085 C   0  0  0  0  0
    3.3842   26.0763   63.9312 C   0  0  0  0  0
    4.0783   23.9699   65.1817 C   0  0  0  0  0
    3.4759   22.8267   65.7206 C   0  0  0  0  0
    5.2678   22.5813   67.2477 C   0  0  0  0  0
    5.3301   24.3645   65.6891 C   0  0  0  0  0
    7.2815   25.8693   65.6008 C   0  0  0  0  0
    5.9016   21.8398   68.3685 C   0  0  0  0  0
    1.5958   21.2330   65.7213 C   0  0  0  0  0
   -1.4384   28.4356   61.6665 O   0  0  0  0  0
    0.2226   26.8811   61.8350 O   0  0  0  0  0
    2.3536   28.5360   60.9748 O   0  0  0  0  0
    4.1778   28.9417   62.5159 O   0  0  0  0  0
    3.6733   26.8424   64.8893 O   0  0  0  0  0
    6.0143   25.4431   65.1232 O   0  0  0  0  0
    2.2538   22.3824   65.2098 O   0  0  0  0  0
    2.8171   28.3169   62.3876 S   0  0  0  0  0
    2.9482   26.6153   62.6838 N   0  0  0  0  0
    3.4391   24.6563   64.0955 N   0  0  0  0  0
    4.0792   22.1634   66.7446 N   0  0  0  0  0
    5.8866   23.6657   66.7167 N   0  0  0  0  0
  1  2  1  0  0  0
  3  4  1  0  0  0
  4  8  1  0  0  0
  5  6  1  0  0  0
  7  2  1  0  0  0
  8 18  1  0  0  0
  9 26  1  0  0  0
 11 27  1  0  0  0
 11 23  1  0  0  0
 12 28  1  0  0  0
 13 22  1  0  0  0
 13 10  1  0  0  0
 14 22  1  0  0  0
 15 12  1  0  0  0
 16 23  1  0  0  0
 24  3  1  0  0  0
 24 25  1  0  0  0
 25  9  1  0  0  0
 26 10  1  0  0  0
  2  3  2  0  0  0
  4  5  2  0  0  0
  6  7  2  0  0  0
  8 17  2  0  0  0
  9 21  2  0  0  0
 10 11  2  0  0  0
 12 27  2  0  0  0
 13 28  2  0  0  0
 24 19  2  0  0  0
 24 20  2  0  0  0
M  END
> <rmsd>
0.647764802

$$$$
PubChem-76379289


 30 32  0  0  0  0  0  0  0  0999 V2000
    2.3782   29.2598   62.6782 C   0  0  0  0  0
    2.1714   28.9921   61.2280 C   0  0  0  0  0
    0.9834   26.6990   60.7858 C   0  0  0  0  0
    0.2840   25.8882   59.7025 C   0  0  0  0  0
    0.9175   26.1067   58.3684 C   0  0  0  0  0
    0.1772   26.6979   57.3390 C   0  0  0  0  0
    0.7580   26.8981   56.0830 C   0  0  0  0  0
    2.0796   26.5037   55.8530 C   0  0  0  0  0
    2.8204   25.9074   56.8782 C   0  0  0  0  0
    2.2397   25.7067   58.1342 C   0  0  0  0  0
    0.6018   26.1907   62.1361 C   0  0  0  0  0
    1.3325   25.1706   64.3338 C   0  0  0  0  0
    1.1165   26.3511   65.2896 C   0  0  0  0  0
    2.4102   27.0225   65.7423 C   0  0  0  0  0
    4.2615   25.9398   65.1917 C   0  0  0  0  0
    5.6329   26.1820   64.5607 C   0  0  0  0  0
    6.1185   24.0043   64.2798 C   0  0  0  0  0
    4.7898   23.4963   64.8507 C   0  0  0  0  0
    2.3958   24.2119   64.7855 C   0  0  0  0  0
    4.9724   22.9247   66.2226 C   0  0  0  0  0
    3.0930   29.1427   60.4436 O   0  0  0  0  0
   -0.5980   26.2458   62.5226 O   0  0  0  0  0
    3.3800   26.9275   64.7420 O   0  0  0  0  0
    6.5265   25.1713   64.9490 O   0  0  0  0  0
    2.0442   23.0298   65.0441 O   0  0  0  0  0
    4.7169   21.7101   66.4293 O   0  0  0  0  0
    5.4056   23.7255   67.2726 O   0  0  0  0  0
    0.5657   28.4672   60.6328 S   0  0  0  0  0
    1.6089   25.6323   62.9797 N   0  0  0  0  0
    3.7943   24.5765   64.8571 N   0  0  0  0  0
  1  2  1  0  0  0
  2 28  1  0  0  0
  3 28  1  0  0  0
  3  4  1  0  0  0
  3 11  1  0  0  0
  4  5  1  0  0  0
  6  7  1  0  0  0
  8  9  1  0  0  0
 10  5  1  0  0  0
 11 29  1  0  0  0
 12 29  1  0  0  0
 12 13  1  0  0  0
 12 19  1  0  0  0
 13 14  1  0  0  0
 14 23  1  0  0  0
 15 23  1  0  0  0
 15 16  1  0  0  0
 15 30  1  0  0  0
 16 24  1  0  0  0
 17 24  1  0  0  0
 17 18  1  0  0  0
 18 30  1  0  0  0
 18 20  1  0  0  0
 20 27  1  0  0  0
 30 19  1  0  0  0
  2 21  2  0  0  0
  5  6  2  0  0  0
  7  8  2  0  0  0
  9 10  2  0  0  0
 11 22  2  0  0  0
 19 25  2  0  0  0
 20 26  2  0  0  0
M  END
> <rmsd>
0.680855632

$$$$
PubChem-70604475


 31 33  0  0  0  0  0  0  0  0999 V2000
    4.3923   29.2245   62.2932 C   0  0  0  0  0
    2.8706   27.5374   63.1969 C   0  0  0  0  0
    1.7267   26.8192   63.1919 C   0  0  0  0  0
    0.7690   27.0292   62.2083 C   0  0  0  0  0
    2.2087   28.6985   61.2685 C   0  0  0  0  0
    0.0455   28.2313   60.2020 C   0  0  0  0  0
    2.9377   26.1939   64.8394 C   0  0  0  0  0
    0.7756   24.9479   64.5980 C   0  0  0  0  0
    0.8952   23.7237   63.6882 C   0  0  0  0  0
    2.2480   23.0488   63.8402 C   0  0  0  0  0
    3.7880   22.3711   65.4414 C   0  0  0  0  0
    4.0013   22.1268   66.9246 C   0  0  0  0  0
    5.4483   22.3975   67.2992 C   0  0  0  0  0
    5.2708   24.8498   67.7307 C   0  0  0  0  0
    4.4794   24.6493   68.8767 C   0  0  0  0  0
    3.9467   25.7310   69.5787 C   0  0  0  0  0
    4.1963   27.0286   69.1420 C   0  0  0  0  0
    4.9867   27.2440   68.0109 C   0  0  0  0  0
    5.5380   26.1685   67.2965 C   0  0  0  0  0
    6.3750   26.4670   66.1084 C   0  0  0  0  0
    3.1406   28.4770   62.2542 N   0  0  0  0  0
    1.0290   27.9800   61.2502 N   0  0  0  0  0
    1.7513   25.9652   64.2275 N   0  0  0  0  0
    3.6597   27.1712   64.2246 N   0  0  0  0  0
    2.3690   22.4660   65.1622 N   0  0  0  0  0
    6.7226   27.8162   65.7982 N   0  0  0  0  0
   -0.3065   26.3686   62.1998 O   0  0  0  0  0
    2.4347   29.5635   60.3742 O   0  0  0  0  0
    5.7940   23.7548   67.0262 O   0  0  0  0  0
    6.7975   25.5475   65.3613 O   0  0  0  0  0
    3.6813   20.8047   67.2282 O   0  0  0  0  0
  1 21  1  0  0  0
  2 24  1  0  0  0
  3  4  1  0  0  0
  3 23  1  0  0  0
  4 22  1  0  0  0
  5 21  1  0  0  0
  6 22  1  0  0  0
  8 23  1  0  0  0
  8  9  1  0  0  0
  9 10  1  0  0  0
 10 25  1  0  0  0
 11 25  1  0  0  0
 11 12  1  0  0  0
 12 13  1  0  0  0
 12 31  1  0  0  0
 13 29  1  0  0  0
 14 29  1  0  0  0
 15 16  1  0  0  0
 17 18  1  0  0  0
 19 20  1  0  0  0
 19 14  1  0  0  0
 20 26  1  0  0  0
 21  2  1  0  0  0
 22  5  1  0  0  0
 23  7  1  0  0  0
  2  3  2  0  0  0
  4 27  2  0  0  0
  5 28  2  0  0  0
  7 24  2  0  0  0
 14 15  2  0  0  0
 16 17  2  0  0  0
 18 19  2  0  0  0
 20 30  2  0  0  0
M  END
> <rmsd>
0.698412657

$$$$
PubChem-11406155


 26 27  0  0  0  0  0  0  0  0999 V2000
    6.3842   28.9000   63.7515 C   0  0  0  0  0
    5.3266   29.0249   62.6754 C   0  0  0  0  0
    3.0796   28.1258   62.2003 C   0  0  0  0  0
    1.9345   27.2538   62.5867 C   0  0  0  0  0
    2.0291   26.3582   63.5811 C   0  0  0  0  0
    3.2744   25.1527   65.3914 C   0  0  0  0  0
    4.5492   25.2703   66.2052 C   0  0  0  0  0
    4.8389   23.8675   66.5864 C   0  0  0  0  0
    3.9076   23.0246   65.7277 C   0  0  0  0  0
    2.9237   22.2418   66.5966 C   0  0  0  0  0
    2.0076   21.3998   65.7286 C   0  0  0  0  0
    6.6508   24.7767   65.6353 C   0  0  0  0  0
    7.2828   24.4219   64.3041 C   0  0  0  0  0
    7.7128   25.4005   66.5239 C   0  0  0  0  0
    0.6399   27.3472   61.8677 C   0  0  0  0  0
   -0.7943   28.4942   60.2092 C   0  0  0  0  0
   -1.8133   29.1758   61.1031 C   0  0  0  0  0
    4.2090   28.2200   63.0183 O   0  0  0  0  0
    3.0362   28.7849   61.1254 O   0  0  0  0  0
    3.2180   23.8664   64.8329 O   0  0  0  0  0
    3.6183   21.4017   67.4683 O   0  0  0  0  0
    6.1636   23.6036   66.2381 O   0  0  0  0  0
    5.6177   25.7024   65.4168 O   0  0  0  0  0
   -0.2892   26.5331   62.1329 O   0  0  0  0  0
    0.4386   28.3379   60.9007 O   0  0  0  0  0
    3.2166   26.1607   64.3451 N   0  0  0  0  0
  1  2  1  0  0  0
  2 18  1  0  0  0
  3 18  1  0  0  0
  3  4  1  0  0  0
  4 15  1  0  0  0
  5 26  1  0  0  0
  6 26  1  0  0  0
  6  7  1  0  0  0
  6 20  1  0  0  0
  7  8  1  0  0  0
  7 23  1  0  0  0
  8  9  1  0  0  0
  8 22  1  0  0  0
  9 20  1  0  0  0
  9 10  1  0  0  0
 10 11  1  0  0  0
 10 21  1  0  0  0
 12 22  1  0  0  0
 12 23  1  0  0  0
 12 13  1  0  0  0
 12 14  1  0  0  0
 15 25  1  0  0  0
 16 25  1  0  0  0
 16 17  1  0  0  0
  3 19  2  0  0  0
  4  5  2  0  0  0
 15 24  2  0  0  0
M  END
> <rmsd>
0.789358556

$$$$
PubChem-54378575


 24 25  0  0  0  0  0  0  0  0999 V2000
   -2.0950   27.0571   65.2307 C   0  0  0  0  0
   -1.0753   27.7278   66.1416 C   0  0  0  0  0
    0.1985   28.0388   65.3601 C   0  0  0  0  0
    0.8021   26.7734   64.7428 C   0  0  0  0  0
   -0.2248   25.9848   63.9137 C   0  0  0  0  0
   -1.5264   25.7494   64.6866 C   0  0  0  0  0
    0.4391   26.1542   61.6769 C   0  0  0  0  0
    0.6468   27.1711   60.5681 C   0  0  0  0  0
    1.5533   28.2673   61.0171 C   0  0  0  0  0
    2.6365   24.8565   64.8066 C   0  0  0  0  0
    4.0078   25.5180   64.5999 C   0  0  0  0  0
    4.8979   25.3032   65.8194 C   0  0  0  0  0
    4.9074   23.8286   66.2122 C   0  0  0  0  0
    3.4626   23.3188   66.3190 C   0  0  0  0  0
    3.4189   21.8552   66.7423 C   0  0  0  0  0
   -0.4978   26.6728   62.6610 N   0  0  0  0  0
    2.6664   28.4279   60.4533 O   0  0  0  0  0
    1.1690   29.1222   62.0425 O   0  0  0  0  0
    2.7690   23.4789   65.0976 O   0  0  0  0  0
    4.0050   21.0443   65.7680 O   0  0  0  0  0
    5.5560   23.6843   67.4406 O   0  0  0  0  0
    6.1979   25.7216   65.5319 O   0  0  0  0  0
    3.8683   26.8809   64.3309 O   0  0  0  0  0
    1.5661   25.7228   66.0201 S   0  0  0  0  0
  1  2  1  0  0  0
  2  3  1  0  0  0
  3  4  1  0  0  0
  4  5  1  0  0  0
  4 24  1  0  0  0
  5  6  1  0  0  0
  5 16  1  0  0  0
  6  1  1  0  0  0
  7 16  1  0  0  0
  7  8  1  0  0  0
  8  9  1  0  0  0
  9 18  1  0  0  0
 10 24  1  0  0  0
 10 11  1  0  0  0
 10 19  1  0  0  0
 11 12  1  0  0  0
 11 23  1  0  0  0
 12 13  1  0  0  0
 12 22  1  0  0  0
 13 14  1  0  0  0
 13 21  1  0  0  0
 14 19  1  0  0  0
 14 15  1  0  0  0
 15 20  1  0  0  0
  9 17  2  0  0  0
M  END
> <rmsd>
0.611743271

$$$$
PubChem-69415277


 34 37  0  0  0  0  0  0  0  0999 V2000
    7.8944   22.7574   67.6672 C   0  0  0  0  0
    6.4418   22.4637   67.5608 C   0  0  0  0  0
    5.8138   21.6889   68.5342 C   0  0  0  0  0
    4.4498   21.4351   68.3990 C   0  0  0  0  0
    4.3930   22.6942   66.3979 C   0  0  0  0  0
    4.2446   24.0168   64.3116 C   0  0  0  0  0
    4.3732   25.4232   64.8249 C   0  0  0  0  0
    3.4495   23.9135   62.9781 C   0  0  0  0  0
    4.1444   24.8487   61.9543 C   0  0  0  0  0
    5.3758   24.3845   61.4438 C   0  0  0  0  0
    6.1678   25.1592   60.6016 C   0  0  0  0  0
    5.7612   26.4412   60.2594 C   0  0  0  0  0
    4.5637   26.9423   60.7600 C   0  0  0  0  0
    3.7366   26.1799   61.6033 C   0  0  0  0  0
    1.2693   26.0827   62.0544 C   0  0  0  0  0
    1.2733   24.6119   62.1212 C   0  0  0  0  0
    2.5297   28.2061   62.4605 C   0  0  0  0  0
    1.8439   29.0892   61.4249 C   0  0  0  0  0
    3.4865   22.4721   62.4422 C   0  0  0  0  0
    4.2807   21.4739   63.0405 C   0  0  0  0  0
    4.3292   20.1813   62.5126 C   0  0  0  0  0
    3.5921   19.8665   61.3699 C   0  0  0  0  0
    2.8108   20.8451   60.7535 C   0  0  0  0  0
    2.7633   22.1374   61.2830 C   0  0  0  0  0
    3.7430   20.6126   69.4149 C   0  0  0  0  0
    3.7666   21.9392   67.3385 N   0  0  0  0  0
    5.7257   22.9504   66.5143 N   0  0  0  0  0
    2.5139   26.7956   62.0636 N   0  0  0  0  0
    2.0500   24.2498   63.2934 N   0  0  0  0  0
    3.6602   23.1925   65.3188 O   0  0  0  0  0
    5.5054   25.9700   64.8672 O   0  0  0  0  0
    3.2541   26.1200   65.2633 O   0  0  0  0  0
    0.1694   26.6975   62.0623 O   0  0  0  0  0
    2.6085   29.1593   60.2611 O   0  0  0  0  0
  1  2  1  0  0  0
  2 27  1  0  0  0
  3  4  1  0  0  0
  5 26  1  0  0  0
  5 30  1  0  0  0
  6 30  1  0  0  0
  6  7  1  0  0  0
  6  8  1  0  0  0
  7 32  1  0  0  0
  8  9  1  0  0  0
  8 19  1  0  0  0
  8 29  1  0  0  0
 10 11  1  0  0  0
 12 13  1  0  0  0
 14 28  1  0  0  0
 14  9  1  0  0  0
 16 15  1  0  0  0
 16 29  1  0  0  0
 17 28  1  0  0  0
 17 18  1  0  0  0
 18 34  1  0  0  0
 20 21  1  0  0  0
 22 23  1  0  0  0
 24 19  1  0  0  0
 25  4  1  0  0  0
 28 15  1  0  0  0
  2  3  2  0  0  0
  4 26  2  0  0  0
  5 27  2  0  0  0
  7 31  2  0  0  0
  9 10  2  0  0  0
 11 12  2  0  0  0
 13 14  2  0  0  0
 15 33  2  0  0  0
 19 20  2  0  0  0
 21 22  2  0  0  0
 23 24  2  0  0  0
M  END
> <rmsd>
0.754660249

$$$$
PubChem-10950799


 32 34  0  0  0  0  0  0  0  0999 V2000
    2.7874   25.6738   57.9959 C   0  0  0  0  0
    1.7433   26.6126   58.5727 C   0  0  0  0  0
    2.2703   26.2302   60.9852 C   0  0  0  0  0
    3.7133   26.1123   61.5107 C   0  0  0  0  0
    3.0896   25.7347   63.6340 C   0  0  0  0  0
    1.5795   25.9093   63.4139 C   0  0  0  0  0
    1.2719   26.6166   62.0890 C   0  0  0  0  0
   -0.6955   27.5508   61.6949 C   0  0  0  0  0
    4.0116   24.7801   65.4084 C   0  0  0  0  0
    3.1514   24.1243   66.5043 C   0  0  0  0  0
    3.9171   23.1460   67.3580 C   0  0  0  0  0
    5.3706   23.5854   67.5911 C   0  0  0  0  0
    5.4270   25.0692   65.9168 C   0  0  0  0  0
    6.7102   26.7910   65.3887 C   0  0  0  0  0
    6.1478   22.5223   68.3442 C   0  0  0  0  0
    2.6377   22.0221   65.9418 C   0  0  0  0  0
    1.5760   21.1377   66.5698 C   0  0  0  0  0
    2.8990   21.5321   64.5301 C   0  0  0  0  0
    2.4807   28.5624   59.9908 C   0  0  0  0  0
    2.3533   29.5056   58.8263 C   0  0  0  0  0
    2.1952   27.1531   59.8499 N   0  0  0  0  0
    3.8260   26.6131   62.8204 O   0  0  0  0  0
   -0.0321   26.3227   61.6856 O   0  0  0  0  0
    3.4005   25.9608   64.9766 O   0  0  0  0  0
    6.0064   23.8754   66.3748 O   0  0  0  0  0
    6.2055   25.5927   64.8827 O   0  0  0  0  0
    3.8289   21.9275   66.6908 O   0  0  0  0  0
    2.1650   23.3534   65.8909 O   0  0  0  0  0
    2.8435   29.0208   61.1087 O   0  0  0  0  0
    3.2011   29.1081   57.8091 F   0  0  0  0  0
    2.6885   30.7933   59.2073 F   0  0  0  0  0
    1.0497   29.5033   58.3654 F   0  0  0  0  0
  1  2  1  0  0  0
  2 21  1  0  0  0
  3 21  1  0  0  0
  3  4  1  0  0  0
  4 22  1  0  0  0
  5 22  1  0  0  0
  5  6  1  0  0  0
  5 24  1  0  0  0
  6  7  1  0  0  0
  7 23  1  0  0  0
  7  3  1  0  0  0
  8 23  1  0  0  0
  9 24  1  0  0  0
  9 10  1  0  0  0
 10 11  1  0  0  0
 10 28  1  0  0  0
 11 12  1  0  0  0
 11 27  1  0  0  0
 12 25  1  0  0  0
 12 15  1  0  0  0
 13 25  1  0  0  0
 13 26  1  0  0  0
 13  9  1  0  0  0
 14 26  1  0  0  0
 16 27  1  0  0  0
 16 28  1  0  0  0
 16 17  1  0  0  0
 16 18  1  0  0  0
 20 19  1  0  0  0
 20 30  1  0  0  0
 20 31  1  0  0  0
 20 32  1  0  0  0
 21 19  1  0  0  0
 19 29  2  0  0  0
M  END
> <rmsd>
0.668725014

$$$$
PubChem-40430596 2665363 ZINC000002665363


 35 38  0  0  0  0  0  0  0  0999 V2000
   -0.1849   28.3966   59.9913 C   0  0  0  0  0
    1.0985   27.7689   60.5078 C   0  0  0  0  0
    0.1957   26.5634   62.5467 C   0  0  0  0  0
    0.2283   26.3692   64.0202 C   0  0  0  0  0
    1.8012   25.3755   65.7313 C   0  0  0  0  0
    3.0977   24.6937   66.0314 C   0  0  0  0  0
    4.2589   22.7416   65.7304 C   0  0  0  0  0
    4.5755   22.2330   67.8878 C   0  0  0  0  0
    3.7725   22.6207   69.1149 C   0  0  0  0  0
    5.2953   20.9253   68.1787 C   0  0  0  0  0
    5.5196   23.4177   66.2439 C   0  0  0  0  0
    5.6081   24.9123   65.8948 C   0  0  0  0  0
    5.2961   26.1407   64.0539 C   0  0  0  0  0
    4.7262   25.7328   62.7088 C   0  0  0  0  0
    6.2097   27.3349   63.8455 C   0  0  0  0  0
    4.2973   25.6579   66.0111 C   0  0  0  0  0
    2.2713   28.6304   60.1787 C   0  0  0  0  0
    4.5059   28.8642   59.0071 C   0  0  0  0  0
    4.1625   29.7396   57.8488 C   0  0  0  0  0
    4.0320   29.1894   56.5684 C   0  0  0  0  0
    3.6858   30.0062   55.4873 C   0  0  0  0  0
    3.4616   31.3731   55.6865 C   0  0  0  0  0
    3.5801   31.9225   56.9672 C   0  0  0  0  0
    3.9283   31.1059   58.0484 C   0  0  0  0  0
    1.0224   27.5648   61.9477 N   0  0  0  0  0
    1.4418   25.6526   64.3771 N   0  0  0  0  0
    3.3452   28.0816   59.4113 N   0  0  0  0  0
   -0.5205   25.8114   61.8351 O   0  0  0  0  0
    1.0517   25.7318   66.6782 O   0  0  0  0  0
    3.3159   23.6214   65.1449 O   0  0  0  0  0
    3.6923   22.0525   66.8047 O   0  0  0  0  0
    5.5206   23.2456   67.6261 O   0  0  0  0  0
    6.0422   25.0686   64.5809 O   0  0  0  0  0
    4.2374   26.5117   64.9067 O   0  0  0  0  0
    2.3248   29.8214   60.5952 O   0  0  0  0  0
  2  1  1  0  0  0
  2 25  1  0  0  0
  2 17  1  0  0  0
  4  3  1  0  0  0
  4 26  1  0  0  0
  6  5  1  0  0  0
  6 30  1  0  0  0
  7 30  1  0  0  0
  7 31  1  0  0  0
  8 31  1  0  0  0
  8  9  1  0  0  0
  8 10  1  0  0  0
  8 32  1  0  0  0
 11 32  1  0  0  0
 11 12  1  0  0  0
 11  7  1  0  0  0
 12 33  1  0  0  0
 13 33  1  0  0  0
 13 14  1  0  0  0
 13 15  1  0  0  0
 13 34  1  0  0  0
 16 34  1  0  0  0
 16  6  1  0  0  0
 16 12  1  0  0  0
 17 27  1  0  0  0
 18 27  1  0  0  0
 18 19  1  0  0  0
 20 21  1  0  0  0
 22 23  1  0  0  0
 24 19  1  0  0  0
 25  3  1  0  0  0
 26  5  1  0  0  0
  3 28  2  0  0  0
  5 29  2  0  0  0
 17 35  2  0  0  0
 19 20  2  0  0  0
 21 22  2  0  0  0
 23 24  2  0  0  0
M  END
> <rmsd>
0.787436247

$$$$
PubChem-139597022


 33 35  0  0  0  0  0  0  0  0999 V2000
    3.7828   28.9970   61.7906 C   0  0  0  0  0
    3.2286   29.2172   59.5411 C   0  0  0  0  0
    1.5854   28.6476   61.1012 C   0  0  0  0  0
    0.6940   27.5363   60.5396 C   0  0  0  0  0
   -0.6576   28.0958   60.1907 C   0  0  0  0  0
   -1.5001   28.6399   61.1717 C   0  0  0  0  0
   -2.7503   29.1535   60.8176 C   0  0  0  0  0
   -3.1713   29.1300   59.4782 C   0  0  0  0  0
   -2.3276   28.5889   58.5027 C   0  0  0  0  0
   -1.0768   28.0749   58.8565 C   0  0  0  0  0
   -5.3347   30.2020   60.0156 C   0  0  0  0  0
    0.6319   26.2908   61.4559 C   0  0  0  0  0
   -0.3242   25.2470   60.8567 C   0  0  0  0  0
   -0.3446   23.9627   61.6815 C   0  0  0  0  0
    1.0536   23.3563   61.7387 C   0  0  0  0  0
    2.0540   24.3437   62.3375 C   0  0  0  0  0
    2.0360   25.6719   61.5691 C   0  0  0  0  0
    3.0222   24.4442   64.3339 C   0  0  0  0  0
    3.2395   25.6519   65.2529 C   0  0  0  0  0
    4.6076   25.5362   65.9314 C   0  0  0  0  0
    4.7758   24.1392   66.5423 C   0  0  0  0  0
    4.3863   23.0645   65.5081 C   0  0  0  0  0
    4.5416   21.6838   66.0727 C   0  0  0  0  0
    2.9733   28.4247   60.7310 N   0  0  0  0  0
   -4.4157   29.6351   59.0917 O   0  0  0  0  0
    1.7837   24.5498   63.6951 O   0  0  0  0  0
    3.0530   23.2622   65.0964 O   0  0  0  0  0
    5.6908   21.2220   66.2983 O   0  0  0  0  0
    3.4257   20.8956   66.3294 O   0  0  0  0  0
    6.0927   23.9654   66.9766 O   0  0  0  0  0
    5.6281   25.7856   65.0063 O   0  0  0  0  0
    3.1575   26.8424   64.5270 O   0  0  0  0  0
    0.1792   26.6647   62.7265 O   0  0  0  0  0
  1 24  1  0  0  0
  2 24  1  0  0  0
  3 24  1  0  0  0
  3  4  1  0  0  0
  4  5  1  0  0  0
  4 12  1  0  0  0
  6  7  1  0  0  0
  8  9  1  0  0  0
  8 25  1  0  0  0
 10  5  1  0  0  0
 11 25  1  0  0  0
 12 13  1  0  0  0
 12 33  1  0  0  0
 13 14  1  0  0  0
 14 15  1  0  0  0
 15 16  1  0  0  0
 16 17  1  0  0  0
 16 26  1  0  0  0
 17 12  1  0  0  0
 18 26  1  0  0  0
 18 19  1  0  0  0
 18 27  1  0  0  0
 19 20  1  0  0  0
 19 32  1  0  0  0
 20 21  1  0  0  0
 20 31  1  0  0  0
 21 22  1  0  0  0
 21 30  1  0  0  0
 22 27  1  0  0  0
 22 23  1  0  0  0
 23 29  1  0  0  0
  5  6  2  0  0  0
  7  8  2  0  0  0
  9 10  2  0  0  0
 23 28  2  0  0  0
M  END
> <rmsd>
0.628792584

$$$$
PubChem-146474213


 28 29  0  0  0  0  0  0  0  0999 V2000
    5.2859   21.2383   67.3536 C   0  0  0  0  0
    6.3577   22.1286   66.7511 C   0  0  0  0  0
    7.0257   24.2058   66.4083 C   0  0  0  0  0
    6.6621   25.6777   66.4037 C   0  0  0  0  0
    5.5053   27.3030   65.4547 C   0  0  0  0  0
    4.5843   27.7227   64.3268 C   0  0  0  0  0
    2.2735   27.1584   63.5403 C   0  0  0  0  0
    1.2846   26.2510   63.6344 C   0  0  0  0  0
    0.4214   24.2449   64.7670 C   0  0  0  0  0
    0.7527   23.3879   65.9743 C   0  0  0  0  0
    1.8440   21.5287   66.4572 C   0  0  0  0  0
    3.0788   21.2724   67.3015 C   0  0  0  0  0
   -0.1854   27.1952   61.8056 C   0  0  0  0  0
    0.1601   26.6635   60.4236 C   0  0  0  0  0
    1.5895   27.6447   59.0355 C   0  0  0  0  0
    1.8230   29.0965   59.4303 C   0  0  0  0  0
    2.8023   30.0314   61.1819 C   0  0  0  0  0
    3.1061   29.2584   62.4520 C   0  0  0  0  0
    5.8883   23.4397   66.6652 O   0  0  0  0  0
    5.8402   25.9560   65.3117 O   0  0  0  0  0
    3.3448   27.0406   64.4420 O   0  0  0  0  0
    1.3968   25.2656   64.6174 O   0  0  0  0  0
    1.9741   22.7419   65.7790 O   0  0  0  0  0
    4.2003   21.1469   66.4809 O   0  0  0  0  0
    0.1447   26.2357   62.8048 O   0  0  0  0  0
    1.5245   26.8308   60.1719 O   0  0  0  0  0
    3.0590   29.2291   60.0672 O   0  0  0  0  0
    2.2161   28.1581   62.5579 O   0  0  0  0  0
  1  2  1  0  0  0
  1 24  1  0  0  0
  2 19  1  0  0  0
  3 19  1  0  0  0
  3  4  1  0  0  0
  4 20  1  0  0  0
  5 20  1  0  0  0
  5  6  1  0  0  0
  6 21  1  0  0  0
  7 21  1  0  0  0
  7 28  1  0  0  0
  8 22  1  0  0  0
  8 25  1  0  0  0
  9 22  1  0  0  0
  9 10  1  0  0  0
 10 23  1  0  0  0
 11 23  1  0  0  0
 11 12  1  0  0  0
 12 24  1  0  0  0
 13 25  1  0  0  0
 13 14  1  0  0  0
 14 26  1  0  0  0
 15 26  1  0  0  0
 15 16  1  0  0  0
 16 27  1  0  0  0
 17 27  1  0  0  0
 17 18  1  0  0  0
 18 28  1  0  0  0
  7  8  2  0  0  0
M  END
> <rmsd>
0.643019438

$$$$
PubChem-166325768 1875355256 MolPort-047-839-319


 32 35  0  0  0  0  0  0  0  0999 V2000
    1.9393   24.7322   60.8903 C   0  0  0  0  0
    3.1281   26.8725   61.3541 C   0  0  0  0  0
    3.0963   27.9705   60.3437 C   0  0  0  0  0
    3.1286   27.6727   58.9777 C   0  0  0  0  0
    3.0830   28.7159   58.0511 C   0  0  0  0  0
    3.0057   30.0364   58.4965 C   0  0  0  0  0
    2.9552   31.1557   57.5207 C   0  0  0  0  0
    2.9771   30.2953   59.8683 C   0  0  0  0  0
    0.6237   26.6799   61.7576 C   0  0  0  0  0
    0.5519   27.9765   62.4617 C   0  0  0  0  0
   -0.2597   28.9713   61.9055 C   0  0  0  0  0
   -0.2928   30.2423   62.4761 C   0  0  0  0  0
    1.2484   29.5702   64.1470 C   0  0  0  0  0
    1.3059   28.2703   63.6259 C   0  0  0  0  0
    1.8465   25.9615   64.3999 C   0  0  0  0  0
    2.8515   25.4582   65.2027 C   0  0  0  0  0
    2.9709   24.0570   65.6512 C   0  0  0  0  0
    1.8231   22.0638   66.2582 C   0  0  0  0  0
    3.0201   21.4927   66.6769 C   0  0  0  0  0
    4.1969   23.4596   66.0410 C   0  0  0  0  0
    5.5138   24.0976   65.8489 C   0  0  0  0  0
    1.8809   26.1137   61.3393 N   0  0  0  0  0
    3.0230   29.2656   60.7558 N   0  0  0  0  0
    0.4632   30.5168   63.5697 N   0  0  0  0  0
    2.0934   27.2836   64.3152 N   0  0  0  0  0
    3.6341   26.4747   65.6154 N   0  0  0  0  0
    3.1503   27.5723   65.0580 N   0  0  0  0  0
    1.8269   23.3261   65.7603 N   0  0  0  0  0
    4.1722   22.1996   66.5570 N   0  0  0  0  0
   -0.4518   26.0823   61.4801 O   0  0  0  0  0
    6.4675   23.8048   66.6171 O   0  0  0  0  0
    5.7463   24.9508   64.7769 O   0  0  0  0  0
  1 22  1  0  0  0
  2 22  1  0  0  0
  2  3  1  0  0  0
  3 23  1  0  0  0
  4  5  1  0  0  0
  6  8  1  0  0  0
  7  6  1  0  0  0
  9 10  1  0  0  0
 11 12  1  0  0  0
 13 24  1  0  0  0
 14 25  1  0  0  0
 14 10  1  0  0  0
 16 26  1  0  0  0
 16 17  1  0  0  0
 18 28  1  0  0  0
 19 29  1  0  0  0
 20 21  1  0  0  0
 20 17  1  0  0  0
 21 32  1  0  0  0
 22  9  1  0  0  0
 25 15  1  0  0  0
 25 27  1  0  0  0
  3  4  2  0  0  0
  5  6  2  0  0  0
  8 23  2  0  0  0
  9 30  2  0  0  0
 10 11  2  0  0  0
 12 24  2  0  0  0
 13 14  2  0  0  0
 15 16  2  0  0  0
 17 28  2  0  0  0
 18 19  2  0  0  0
 20 29  2  0  0  0
 21 31  2  0  0  0
 26 27  2  0  0  0
M  END
> <rmsd>
0.807577133

$$$$
PubChem-58621668


 33 36  0  0  0  0  0  0  0  0999 V2000
   10.0529   31.1369   63.0728 C   0  0  0  0  0
    8.6430   30.6880   62.7351 C   0  0  0  0  0
    7.4276   31.8510   64.5850 C   0  0  0  0  0
    8.1274   32.0106   65.9227 C   0  0  0  0  0
    7.3225   29.3294   64.3941 C   0  0  0  0  0
    6.3996   29.2592   65.4494 C   0  0  0  0  0
    5.8963   28.0304   65.8853 C   0  0  0  0  0
    6.3097   26.8393   65.2503 C   0  0  0  0  0
    7.2536   26.9046   64.2216 C   0  0  0  0  0
    7.7514   28.1364   63.7928 C   0  0  0  0  0
    4.5805   25.2122   65.7326 C   0  0  0  0  0
    4.0408   23.8724   66.0335 C   0  0  0  0  0
    3.4177   25.9136   65.2150 C   0  0  0  0  0
    2.1682   26.4875   63.6002 C   0  0  0  0  0
    1.5913   25.3923   64.2413 C   0  0  0  0  0
    0.4724   24.5360   63.7530 C   0  0  0  0  0
    1.6804   27.1602   62.3817 C   0  0  0  0  0
    0.0221   27.4313   60.7061 C   0  0  0  0  0
    0.7818   28.4407   60.1138 C   0  0  0  0  0
    2.4375   28.1754   61.7853 C   0  0  0  0  0
    4.7994   22.7195   66.5371 C   0  0  0  0  0
    4.7399   20.4338   67.1651 C   0  0  0  0  0
    5.3584   19.3767   67.6090 C   0  0  0  0  0
    4.9748   28.0205   67.0572 C   0  0  0  0  0
    7.8338   30.6018   63.9462 N   0  0  0  0  0
    5.8340   25.5494   65.6588 N   0  0  0  0  0
    2.7756   23.8139   65.7281 N   0  0  0  0  0
    2.3899   25.0795   65.2690 N   0  0  0  0  0
    3.3600   26.7808   64.1833 N   0  0  0  0  0
    0.4869   26.8155   61.8249 N   0  0  0  0  0
    1.9727   28.7911   60.6665 N   0  0  0  0  0
    4.1348   21.4661   66.7314 N   0  0  0  0  0
    6.0282   22.8411   66.7972 O   0  0  0  0  0
  1  2  1  0  0  0
  2 25  1  0  0  0
  3 25  1  0  0  0
  3  4  1  0  0  0
  6  7  1  0  0  0
  8  9  1  0  0  0
  8 26  1  0  0  0
 10  5  1  0  0  0
 11 12  1  0  0  0
 12 21  1  0  0  0
 13 11  1  0  0  0
 14 29  1  0  0  0
 14 17  1  0  0  0
 15 28  1  0  0  0
 16 15  1  0  0  0
 18 30  1  0  0  0
 19 31  1  0  0  0
 20 17  1  0  0  0
 21 32  1  0  0  0
 24  7  1  0  0  0
 25  5  1  0  0  0
 28 27  1  0  0  0
 28 13  1  0  0  0
  5  6  2  0  0  0
  7  8  2  0  0  0
  9 10  2  0  0  0
 11 26  2  0  0  0
 12 27  2  0  0  0
 13 29  2  0  0  0
 14 15  2  0  0  0
 17 30  2  0  0  0
 18 19  2  0  0  0
 20 31  2  0  0  0
 21 33  2  0  0  0
 23 22  2  0  0  0
 32 22  2  0  0  0
M  END
> <rmsd>
0.632959723

$$$$
PubChem-100955587


 34 38  0  0  0  0  0  0  0  0999 V2000
    4.5660   28.8046   61.3150 C   0  0  0  0  0
    3.0870   28.8248   61.6637 C   0  0  0  0  0
    1.4862   28.4259   60.1462 C   0  0  0  0  0
    0.0447   28.7553   60.5845 C   0  0  0  0  0
   -0.8215   27.5048   60.5397 C   0  0  0  0  0
    0.9832   26.0094   60.8844 C   0  0  0  0  0
    2.0207   27.1428   60.7258 C   0  0  0  0  0
    1.5599   24.8783   61.6881 C   0  0  0  0  0
    2.3522   24.0072   63.8491 C   0  0  0  0  0
    2.4788   24.4710   65.3057 C   0  0  0  0  0
    3.5565   25.5408   65.5699 C   0  0  0  0  0
    4.8422   24.9717   66.1044 C   0  0  0  0  0
    5.0438   23.5006   65.7283 C   0  0  0  0  0
    3.7980   22.6552   65.9164 C   0  0  0  0  0
    5.4639   21.8110   67.1387 C   0  0  0  0  0
    5.7679   21.8508   68.6229 C   0  0  0  0  0
    6.0809   20.5508   66.5563 C   0  0  0  0  0
    5.2739   26.4712   64.4930 C   0  0  0  0  0
    5.5694   27.9456   64.6906 C   0  0  0  0  0
    5.8842   26.0295   63.1766 C   0  0  0  0  0
   -1.2584   25.4069   61.4097 C   0  0  0  0  0
   -0.5809   30.5606   61.7071 C   0  0  0  0  0
    2.9050   29.6575   62.9181 C   0  0  0  0  0
    2.3626   29.4155   60.6014 O   0  0  0  0  0
    2.6402   27.5118   61.9141 O   0  0  0  0  0
    1.8259   23.7867   61.1157 O   0  0  0  0  0
    1.7838   25.0388   63.0565 O   0  0  0  0  0
    2.6217   23.3914   66.2081 O   0  0  0  0  0
    4.0684   21.7759   66.9604 O   0  0  0  0  0
    6.0395   22.9411   66.5261 O   0  0  0  0  0
    5.8627   25.7376   65.5451 O   0  0  0  0  0
    3.8793   26.2824   64.4368 O   0  0  0  0  0
    0.0069   29.3053   61.8711 O   0  0  0  0  0
   -0.2877   26.4921   61.4450 N   0  0  0  0  0
  1  2  1  0  0  0
  2 24  1  0  0  0
  2 23  1  0  0  0
  2 25  1  0  0  0
  3 24  1  0  0  0
  3  4  1  0  0  0
  4  5  1  0  0  0
  4 33  1  0  0  0
  5 34  1  0  0  0
  6 34  1  0  0  0
  6  7  1  0  0  0
  6  8  1  0  0  0
  7 25  1  0  0  0
  7  3  1  0  0  0
  8 27  1  0  0  0
  9 27  1  0  0  0
 10  9  1  0  0  0
 10 11  1  0  0  0
 10 28  1  0  0  0
 11 12  1  0  0  0
 11 32  1  0  0  0
 12 13  1  0  0  0
 12 31  1  0  0  0
 13 14  1  0  0  0
 13 30  1  0  0  0
 14 28  1  0  0  0
 14 29  1  0  0  0
 15 29  1  0  0  0
 15 30  1  0  0  0
 15 16  1  0  0  0
 15 17  1  0  0  0
 18 31  1  0  0  0
 18 32  1  0  0  0
 18 19  1  0  0  0
 18 20  1  0  0  0
 21 34  1  0  0  0
 22 33  1  0  0  0
  8 26  2  0  0  0
M  END
> <rmsd>
0.636405647

$$$$
PubChem-106162210


 18 18  0  0  0  0  0  0  0  0999 V2000
   -1.0865   26.0881   63.1911 C   0  0  0  0  0
    0.9898   26.5334   63.7860 C   0  0  0  0  0
    2.3809   26.9943   63.3708 C   0  0  0  0  0
    2.4095   28.5051   63.1825 C   0  0  0  0  0
    1.8673   28.9027   61.8194 C   0  0  0  0  0
    3.9330   25.3650   64.0037 C   0  0  0  0  0
    4.8146   24.8522   65.0950 C   0  0  0  0  0
    6.7790   25.1585   66.3851 C   0  0  0  0  0
    5.4385   23.2588   66.7837 C   0  0  0  0  0
    4.5380   23.6510   65.7877 C   0  0  0  0  0
    3.3575   22.7925   65.5275 C   0  0  0  0  0
    0.1359   26.5246   62.6829 O   0  0  0  0  0
    2.7487   28.4940   60.8182 O   0  0  0  0  0
    2.4986   23.1027   64.6607 O   0  0  0  0  0
    3.1832   21.6190   66.2527 O   0  0  0  0  0
    3.3349   26.6285   64.4031 N   0  0  0  0  0
    5.9265   25.5685   65.4123 N   0  0  0  0  0
    6.5329   24.0107   67.0638 N   0  0  0  0  0
  1 12  1  0  0  0
  2 12  1  0  0  0
  2  3  1  0  0  0
  3  4  1  0  0  0
  3 16  1  0  0  0
  4  5  1  0  0  0
  5 13  1  0  0  0
  6 16  1  0  0  0
  6  7  1  0  0  0
  8 17  1  0  0  0
  9 18  1  0  0  0
 10 11  1  0  0  0
 10  7  1  0  0  0
 11 15  1  0  0  0
  7 17  2  0  0  0
  8 18  2  0  0  0
  9 10  2  0  0  0
 11 14  2  0  0  0
M  END
> <rmsd>
0.653577745

$$$$
PubChem-19511127


 24 25  0  0  0  0  0  0  0  0999 V2000
   -3.3346   29.2179   61.5522 C   0  0  0  0  0
   -2.6130   27.9950   61.0258 C   0  0  0  0  0
   -0.2623   27.5414   61.6005 C   0  0  0  0  0
    1.1578   27.8824   61.4410 C   0  0  0  0  0
    2.2513   27.2812   62.0261 C   0  0  0  0  0
    1.6742   28.8973   60.6515 C   0  0  0  0  0
    4.7435   27.5019   61.8123 C   0  0  0  0  0
    3.1052   25.8486   63.9462 C   0  0  0  0  0
    3.1268   24.5015   64.5401 C   0  0  0  0  0
    4.0393   23.9610   65.4372 C   0  0  0  0  0
    3.5442   22.7075   65.7163 C   0  0  0  0  0
    3.5480   20.4975   66.7852 C   0  0  0  0  0
   -1.2264   28.2766   60.9080 O   0  0  0  0  0
   -0.6046   26.5932   62.3588 O   0  0  0  0  0
    3.7983   26.7774   64.4392 O   0  0  0  0  0
    4.1318   21.7720   66.5673 O   0  0  0  0  0
    5.8806   25.3824   65.2602 O   0  0  0  0  0
    5.8879   23.9618   67.0171 O   0  0  0  0  0
    3.3638   27.8955   61.5817 N   0  0  0  0  0
    3.0221   28.8708   60.7553 N   0  0  0  0  0
    2.2105   26.1171   62.8622 N   0  0  0  0  0
    2.4062   22.5025   65.0262 N   0  0  0  0  0
    2.1546   23.5921   64.3133 N   0  0  0  0  0
    5.2732   24.5136   65.9175 N   0  0  0  0  0
  1  2  1  0  0  0
  2 13  1  0  0  0
  3 13  1  0  0  0
  3  4  1  0  0  0
  5 19  1  0  0  0
  5 21  1  0  0  0
  6  4  1  0  0  0
  7 19  1  0  0  0
  8  9  1  0  0  0
 10 11  1  0  0  0
 10 24  1  0  0  0
 11 16  1  0  0  0
 12 16  1  0  0  0
 19 20  1  0  0  0
 21  8  1  0  0  0
 23 22  1  0  0  0
 23  9  1  0  0  0
 24 18  1  0  0  0
  3 14  2  0  0  0
  4  5  2  0  0  0
  6 20  2  0  0  0
  8 15  2  0  0  0
  9 10  2  0  0  0
 11 22  2  0  0  0
 24 17  2  0  0  0
M  CHG  2  24   1  18  -1
M  END
> <rmsd>
0.557763457

$$$$
PubChem-102409191


 30 32  0  0  0  0  0  0  0  0999 V2000
    3.9482   20.6009   68.2676 C   0  0  0  0  0
    3.2931   22.2027   66.9005 C   0  0  0  0  0
    3.6225   23.0628   65.6900 C   0  0  0  0  0
    4.7577   24.0575   66.0070 C   0  0  0  0  0
    5.0206   24.9328   64.7729 C   0  0  0  0  0
    3.7139   25.4905   64.1941 C   0  0  0  0  0
    2.7238   24.3249   64.0463 C   0  0  0  0  0
    1.4218   24.7785   63.4059 C   0  0  0  0  0
    1.6278   25.0413   61.9245 C   0  0  0  0  0
    0.3719   25.6413   61.3196 C   0  0  0  0  0
   -0.6812   28.3549   59.9595 C   0  0  0  0  0
   -0.1252   29.4359   59.1529 C   0  0  0  0  0
   -0.7385   30.3026   58.2511 C   0  0  0  0  0
    0.0660   31.2714   57.6252 C   0  0  0  0  0
    1.4452   31.3557   57.9126 C   0  0  0  0  0
    2.0414   30.4726   58.8301 C   0  0  0  0  0
    1.2257   29.5185   59.4342 C   0  0  0  0  0
    1.5370   28.4905   60.4214 C   0  0  0  0  0
    3.1630   27.6378   64.2668 C   0  0  0  0  0
    6.9694   25.8158   64.2018 C   0  0  0  0  0
    6.2808   23.8550   67.6038 C   0  0  0  0  0
    4.2295   21.1769   67.0298 O   0  0  0  0  0
    2.4622   23.7612   65.3073 O   0  0  0  0  0
    0.1830   26.9411   61.8009 O   0  0  0  0  0
   -1.8927   28.0159   60.0111 O   0  0  0  0  0
    2.6592   28.2926   60.9567 O   0  0  0  0  0
    3.1859   26.4754   65.0395 O   0  0  0  0  0
    5.9021   25.9712   65.0876 O   0  0  0  0  0
    5.9283   23.3701   66.3428 O   0  0  0  0  0
    0.3579   27.7464   60.7243 N   0  0  0  0  0
  1 22  1  0  0  0
  2 22  1  0  0  0
  3  2  1  0  0  0
  3  4  1  0  0  0
  3 23  1  0  0  0
  4  5  1  0  0  0
  4 29  1  0  0  0
  5  6  1  0  0  0
  5 28  1  0  0  0
  6  7  1  0  0  0
  6 27  1  0  0  0
  7 23  1  0  0  0
  7  8  1  0  0  0
  8  9  1  0  0  0
  9 10  1  0  0  0
 10 24  1  0  0  0
 11 12  1  0  0  0
 13 14  1  0  0  0
 15 16  1  0  0  0
 17 18  1  0  0  0
 17 12  1  0  0  0
 18 30  1  0  0  0
 19 27  1  0  0  0
 20 28  1  0  0  0
 21 29  1  0  0  0
 30 24  1  0  0  0
 30 11  1  0  0  0
 11 25  2  0  0  0
 12 13  2  0  0  0
 14 15  2  0  0  0
 16 17  2  0  0  0
 18 26  2  0  0  0
M  END
> <rmsd>
0.662362099

$$$$
PubChem-56999145


 25 27  0  0  0  0  0  0  0  0999 V2000
    1.4091   23.9835   64.7133 C   0  0  0  0  0
    2.4283   24.7065   63.8359 C   0  0  0  0  0
    2.1734   26.1132   63.7112 C   0  0  0  0  0
    3.4399   26.3564   64.4756 C   0  0  0  0  0
    4.1315   24.0331   65.6453 C   0  0  0  0  0
    3.3296   23.0046   65.9970 C   0  0  0  0  0
    3.7530   21.9357   66.9497 C   0  0  0  0  0
    5.4678   24.3108   66.2202 C   0  0  0  0  0
    1.2629   26.9232   61.5050 C   0  0  0  0  0
    1.5143   27.3506   60.1040 C   0  0  0  0  0
    2.1834   29.4067   58.9031 C   0  0  0  0  0
    2.5328   30.7598   58.9736 C   0  0  0  0  0
    2.8435   31.4703   57.8100 C   0  0  0  0  0
    2.8062   30.8299   56.5683 C   0  0  0  0  0
    2.4582   29.4786   56.4892 C   0  0  0  0  0
    2.1476   28.7680   57.6522 C   0  0  0  0  0
    4.0678   27.3766   64.8615 O   0  0  0  0  0
    2.0469   22.8997   65.4139 O   0  0  0  0  0
    4.2237   20.8330   66.2377 O   0  0  0  0  0
    5.9174   23.6482   67.1922 O   0  0  0  0  0
    6.2451   25.3298   65.6844 O   0  0  0  0  0
    0.0904   26.9509   61.9652 O   0  0  0  0  0
    1.8786   28.7245   60.0837 O   0  0  0  0  0
    3.5986   24.8995   64.6503 N   0  0  0  0  0
    2.3582   26.5207   62.3274 N   0  0  0  0  0
  1 18  1  0  0  0
  2  1  1  0  0  0
  2  3  1  0  0  0
  2 24  1  0  0  0
  3  4  1  0  0  0
  3 25  1  0  0  0
  4 24  1  0  0  0
  5  8  1  0  0  0
  6 18  1  0  0  0
  7  6  1  0  0  0
  7 19  1  0  0  0
  8 21  1  0  0  0
 10  9  1  0  0  0
 10 23  1  0  0  0
 11 23  1  0  0  0
 12 13  1  0  0  0
 14 15  1  0  0  0
 16 11  1  0  0  0
 24  5  1  0  0  0
 25  9  1  0  0  0
  4 17  2  0  0  0
  5  6  2  0  0  0
  8 20  2  0  0  0
  9 22  2  0  0  0
 11 12  2  0  0  0
 13 14  2  0  0  0
 15 16  2  0  0  0
M  END
> <rmsd>
0.687079787

$$$$
PubChem-124867986 252695295 ZINC000252695295


 29 31  0  0  0  0  0  0  0  0999 V2000
    0.1056   26.1082   61.5691 O   0  0  0  0  0
    2.2242   25.3369   62.0707 O   0  0  0  0  0
    2.7056   23.7927   65.3207 O   0  0  0  0  0
    3.3573   22.2239   66.8486 O   0  0  0  0  0
    6.0396   23.0227   66.5245 O   0  0  0  0  0
    6.3649   25.6238   65.3103 O   0  0  0  0  0
    3.7394   26.4226   65.1131 O   0  0  0  0  0
    2.1196   29.0018   60.8490 O   0  0  0  0  0
    4.3849   28.9959   60.4030 O   0  0  0  0  0
    1.3000   25.9301   61.2089 C   0  0  0  0  0
    1.8788   24.9494   63.3922 C   0  0  0  0  0
    3.0883   24.3429   64.0838 C   0  0  0  0  0
    3.7701   22.9777   65.7496 C   0  0  0  0  0
    4.9776   23.8414   66.1364 C   0  0  0  0  0
    5.3995   24.6882   64.9330 C   0  0  0  0  0
    4.1961   25.3858   64.2918 C   0  0  0  0  0
    1.7204   26.3425   59.8346 C   0  0  0  0  0
    1.9901   25.1102   58.9888 C   0  0  0  0  0
    3.5046   24.9914   58.8660 C   0  0  0  0  0
    4.0774   26.3362   59.2727 C   0  0  0  0  0
    3.1255   28.3884   60.3974 C   0  0  0  0  0
    4.5891   30.3310   60.8504 C   0  0  0  0  0
    4.2007   31.3003   59.7863 C   0  0  0  0  0
    5.0228   31.4814   58.6681 C   0  0  0  0  0
    4.6493   32.3789   57.6631 C   0  0  0  0  0
    3.4521   33.0936   57.7733 C   0  0  0  0  0
    2.6282   32.9108   58.8885 C   0  0  0  0  0
    3.0017   32.0135   59.8938 C   0  0  0  0  0
    2.9821   27.0591   59.8844 N   0  0  0  0  0
 10  2  1  0  0  0
 11  2  1  0  0  0
 12 11  1  0  0  0
 12  3  1  0  0  0
 13  3  1  0  0  0
 13  4  1  0  0  0
 13 14  1  0  0  0
 14  5  1  0  0  0
 14 15  1  0  0  0
 15  6  1  0  0  0
 15 16  1  0  0  0
 16  7  1  0  0  0
 16 12  1  0  0  0
 17 10  1  0  0  0
 17 18  1  0  0  0
 17 29  1  0  0  0
 18 19  1  0  0  0
 19 20  1  0  0  0
 20 29  1  0  0  0
 21  9  1  0  0  0
 22  9  1  0  0  0
 22 23  1  0  0  0
 24 25  1  0  0  0
 26 27  1  0  0  0
 28 23  1  0  0  0
 29 21  1  0  0  0
 10  1  2  0  0  0
 21  8  2  0  0  0
 23 24  2  0  0  0
 25 26  2  0  0  0
 27 28  2  0  0  0
M  END
> <rmsd>
0.648897231

$$$$
PubChem-102070255


 30 31  0  0  0  0  0  0  0  0999 V2000
   -0.4808   27.4615   59.3404 C   0  0  0  0  0
    0.3465   26.1889   59.3364 C   0  0  0  0  0
    1.2164   26.2432   61.6538 C   0  0  0  0  0
    2.3693   26.3973   62.5657 C   0  0  0  0  0
    2.2496   25.9961   63.8358 C   0  0  0  0  0
    3.3458   26.0710   64.8591 C   0  0  0  0  0
    4.5325   25.2327   64.4726 C   0  0  0  0  0
    5.2024   27.2752   65.1154 C   0  0  0  0  0
    5.8480   28.3386   64.2495 C   0  0  0  0  0
    5.6087   27.5196   66.5581 C   0  0  0  0  0
    4.6202   23.9296   65.2697 C   0  0  0  0  0
    3.5844   22.9046   64.8053 C   0  0  0  0  0
    3.9498   21.5387   65.2949 C   0  0  0  0  0
    1.9652   22.1099   66.1359 C   0  0  0  0  0
    0.7793   21.3880   65.5204 C   0  0  0  0  0
    1.5569   22.6277   67.5010 C   0  0  0  0  0
    5.5665   23.8809   67.5458 C   0  0  0  0  0
    5.4030   24.1533   68.9969 C   0  0  0  0  0
    3.7362   27.9357   61.1791 C   0  0  0  0  0
    5.0729   28.2083   60.5911 C   0  0  0  0  0
    1.4150   26.2902   60.2703 O   0  0  0  0  0
    0.0626   26.0323   62.1218 O   0  0  0  0  0
    5.6668   26.0087   64.7081 O   0  0  0  0  0
    3.8037   27.3779   64.9991 O   0  0  0  0  0
    3.0345   21.2097   66.2904 O   0  0  0  0  0
    2.3220   23.2009   65.3219 O   0  0  0  0  0
    4.5206   24.1724   66.6708 O   0  0  0  0  0
    6.6473   23.3910   67.1219 O   0  0  0  0  0
    3.5971   26.9055   62.1151 O   0  0  0  0  0
    2.7607   28.6689   60.8656 O   0  0  0  0  0
  1  2  1  0  0  0
  2 21  1  0  0  0
  3 21  1  0  0  0
  3  4  1  0  0  0
  4 29  1  0  0  0
  6  5  1  0  0  0
  6  7  1  0  0  0
  6 24  1  0  0  0
  7 23  1  0  0  0
  7 11  1  0  0  0
  8 23  1  0  0  0
  8 24  1  0  0  0
  8  9  1  0  0  0
  8 10  1  0  0  0
 11 12  1  0  0  0
 11 27  1  0  0  0
 12 13  1  0  0  0
 12 26  1  0  0  0
 13 25  1  0  0  0
 14 25  1  0  0  0
 14 26  1  0  0  0
 14 15  1  0  0  0
 14 16  1  0  0  0
 17 27  1  0  0  0
 18 17  1  0  0  0
 19 29  1  0  0  0
 20 19  1  0  0  0
  3 22  2  0  0  0
  4  5  2  0  0  0
 17 28  2  0  0  0
 19 30  2  0  0  0
M  END
> <rmsd>
0.649427414

$$$$
PubChem-11212120


 29 31  0  0  0  0  0  0  0  0999 V2000
   -0.7729   27.3872   63.6918 C   0  0  0  0  0
   -0.5949   27.1704   62.1955 C   0  0  0  0  0
    0.2831   28.1249   60.2895 C   0  0  0  0  0
    1.7972   27.9289   60.2051 C   0  0  0  0  0
    2.3528   26.7511   60.9689 C   0  0  0  0  0
    1.5894   26.4217   62.2619 C   0  0  0  0  0
    2.2733   25.2750   62.9880 C   0  0  0  0  0
    1.7676   25.1834   64.4172 C   0  0  0  0  0
    2.5504   24.1646   65.1800 C   0  0  0  0  0
    3.9008   24.3672   65.5438 C   0  0  0  0  0
    4.5581   23.3258   66.2243 C   0  0  0  0  0
    2.5862   22.0109   66.1688 C   0  0  0  0  0
    0.5799   20.5835   66.1572 C   0  0  0  0  0
    6.5930   22.4543   67.3113 C   0  0  0  0  0
    3.6877   28.5387   61.1916 C   0  0  0  0  0
    3.9122   29.1288   62.5712 C   0  0  0  0  0
    4.8422   28.9518   60.2978 C   0  0  0  0  0
   -1.9735   26.8464   61.6368 C   0  0  0  0  0
   -0.1118   28.3738   61.6177 O   0  0  0  0  0
    0.2606   26.0599   61.9643 O   0  0  0  0  0
    1.9384   20.8191   66.4954 O   0  0  0  0  0
    5.8909   23.4746   66.6171 O   0  0  0  0  0
    3.9919   26.6893   65.2857 O   0  0  0  0  0
    5.9362   25.5863   64.9534 O   0  0  0  0  0
    3.6577   27.1299   61.2893 O   0  0  0  0  0
    2.4843   29.0474   60.6630 O   0  0  0  0  0
    3.8858   22.1792   66.5167 N   0  0  0  0  0
    1.9322   23.0008   65.5064 N   0  0  0  0  0
    4.5910   25.5950   65.2415 N   0  0  0  0  0
  1  2  1  0  0  0
  2 19  1  0  0  0
  2 18  1  0  0  0
  2 20  1  0  0  0
  3 19  1  0  0  0
  4  3  1  0  0  0
  4  5  1  0  0  0
  4 26  1  0  0  0
  5  6  1  0  0  0
  5 25  1  0  0  0
  6 20  1  0  0  0
  6  7  1  0  0  0
  7  8  1  0  0  0
  8  9  1  0  0  0
  9 28  1  0  0  0
 10 11  1  0  0  0
 10 29  1  0  0  0
 11 22  1  0  0  0
 12 27  1  0  0  0
 12 21  1  0  0  0
 13 21  1  0  0  0
 14 22  1  0  0  0
 15 25  1  0  0  0
 15 26  1  0  0  0
 15 16  1  0  0  0
 15 17  1  0  0  0
 29 24  1  0  0  0
  9 10  2  0  0  0
 11 27  2  0  0  0
 12 28  2  0  0  0
 29 23  2  0  0  0
M  CHG  2  29   1  24  -1
M  END
> <rmsd>
0.597798169

$$$$
PubChem-80144515


 20 21  0  0  0  0  0  0  0  0999 V2000
    6.5612   22.7588   67.3575 C   0  0  0  0  0
    4.5489   23.4069   66.0878 C   0  0  0  0  0
    2.7106   21.9238   65.9297 C   0  0  0  0  0
    2.5638   24.0334   64.8585 C   0  0  0  0  0
    3.8565   24.3651   65.3256 C   0  0  0  0  0
    0.3576   24.9195   64.0866 C   0  0  0  0  0
   -0.1804   26.2326   63.5179 C   0  0  0  0  0
    1.6930   26.7182   62.3627 C   0  0  0  0  0
    2.4457   25.4619   62.8053 C   0  0  0  0  0
    2.2446   27.2196   61.0727 C   0  0  0  0  0
    5.8270   23.6901   66.5767 O   0  0  0  0  0
    3.7321   26.6893   65.1838 O   0  0  0  0  0
    5.7837   25.7921   64.8623 O   0  0  0  0  0
    0.3228   26.4332   62.2201 O   0  0  0  0  0
    2.7640   28.3642   61.0183 O   0  0  0  0  0
    2.1836   26.4333   59.9285 O   0  0  0  0  0
    3.9600   22.2129   66.3683 N   0  0  0  0  0
    2.0265   22.8267   65.1852 N   0  0  0  0  0
    4.4330   25.6607   65.0884 N   0  0  0  0  0
    1.8184   24.9218   64.0122 N   0  0  0  0  0
  1 11  1  0  0  0
  2 11  1  0  0  0
  3 17  1  0  0  0
  4 18  1  0  0  0
  4 20  1  0  0  0
  5 19  1  0  0  0
  5  2  1  0  0  0
  6 20  1  0  0  0
  6  7  1  0  0  0
  7 14  1  0  0  0
  8 14  1  0  0  0
  8  9  1  0  0  0
  8 10  1  0  0  0
  9 20  1  0  0  0
 10 16  1  0  0  0
 19 13  1  0  0  0
  2 17  2  0  0  0
  3 18  2  0  0  0
  4  5  2  0  0  0
 10 15  2  0  0  0
 19 12  2  0  0  0
M  CHG  2  19   1  13  -1
M  END
> <rmsd>
0.681435943

$$$$
PubChem-80144515


 20 21  0  0  0  0  0  0  0  0999 V2000
    6.5695   22.7685   67.3641 C   0  0  0  0  0
    4.5502   23.4040   66.0992 C   0  0  0  0  0
    2.7117   21.9187   65.9650 C   0  0  0  0  0
    2.5583   24.0180   64.8747 C   0  0  0  0  0
    3.8534   24.3547   65.3317 C   0  0  0  0  0
    0.3476   24.8962   64.1067 C   0  0  0  0  0
   -0.1940   26.2043   63.5298 C   0  0  0  0  0
    1.6722   26.6789   62.3579 C   0  0  0  0  0
    2.4285   25.4271   62.8090 C   0  0  0  0  0
    2.2173   27.1771   61.0623 C   0  0  0  0  0
    5.8308   23.6922   66.5785 O   0  0  0  0  0
    3.7272   26.6774   65.1687 O   0  0  0  0  0
    5.7773   25.7780   64.8448 O   0  0  0  0  0
    0.3007   26.3932   62.2270 O   0  0  0  0  0
    2.1540   26.4651   60.0252 O   0  0  0  0  0
    2.7931   28.4385   60.9988 O   0  0  0  0  0
    3.9634   22.2124   66.3941 N   0  0  0  0  0
    2.0232   22.8143   65.2158 N   0  0  0  0  0
    4.4280   25.6481   65.0793 N   0  0  0  0  0
    1.8079   24.8982   64.0243 N   0  0  0  0  0
  1 11  1  0  0  0
  2 11  1  0  0  0
  3 17  1  0  0  0
  4 18  1  0  0  0
  4 20  1  0  0  0
  5 19  1  0  0  0
  5  2  1  0  0  0
  6 20  1  0  0  0
  6  7  1  0  0  0
  7 14  1  0  0  0
  8 14  1  0  0  0
  8  9  1  0  0  0
  8 10  1  0  0  0
  9 20  1  0  0  0
 10 16  1  0  0  0
 19 13  1  0  0  0
  2 17  2  0  0  0
  3 18  2  0  0  0
  4  5  2  0  0  0
 10 15  2  0  0  0
 19 12  2  0  0  0
M  CHG  2  19   1  13  -1
M  END
> <rmsd>
0.668613613

$$$$
PubChem-101037023


 33 36  0  0  0  0  0  0  0  0999 V2000
    4.3734   32.5906   59.5068 C   0  0  0  0  0
    5.6142   32.9242   60.0511 C   0  0  0  0  0
    6.1423   32.1356   61.0760 C   0  0  0  0  0
    4.2317   30.7136   61.0248 C   0  0  0  0  0
    3.6760   31.4821   59.9919 C   0  0  0  0  0
    3.5088   29.5434   61.5586 C   0  0  0  0  0
    4.0235   28.8344   62.6499 C   0  0  0  0  0
    3.3274   27.7275   63.1515 C   0  0  0  0  0
    2.1264   27.3484   62.5532 C   0  0  0  0  0
    1.6311   28.0730   61.4625 C   0  0  0  0  0
    0.3635   27.6781   60.8203 C   0  0  0  0  0
   -0.1253   28.3912   59.7171 C   0  0  0  0  0
   -1.3297   28.0053   59.1269 C   0  0  0  0  0
   -2.0365   26.9169   59.6389 C   0  0  0  0  0
   -1.5216   26.2263   60.7372 C   0  0  0  0  0
    5.0201   27.3081   64.9069 C   0  0  0  0  0
    5.2740   26.3017   66.0120 C   0  0  0  0  0
    5.3555   24.1539   66.5332 C   0  0  0  0  0
    4.3656   23.0420   66.1723 C   0  0  0  0  0
    4.2370   22.0775   67.3512 C   0  0  0  0  0
    5.6096   21.6800   67.8978 C   0  0  0  0  0
    6.4817   22.9317   68.0636 C   0  0  0  0  0
    7.8612   22.5423   68.5682 C   0  0  0  0  0
    5.4482   31.0595   61.5361 N   0  0  0  0  0
    2.3322   29.1456   60.9979 N   0  0  0  0  0
   -0.3472   26.6176   61.2995 N   0  0  0  0  0
    3.8049   26.9915   64.2389 O   0  0  0  0  0
    5.4874   25.0370   65.4600 O   0  0  0  0  0
    6.6102   23.5912   66.8277 O   0  0  0  0  0
    8.6017   23.6885   68.8581 O   0  0  0  0  0
    5.4468   21.0442   69.1305 O   0  0  0  0  0
    3.5398   20.9356   66.9539 O   0  0  0  0  0
    3.1169   23.5930   65.8815 O   0  0  0  0  0
  2  3  1  0  0  0
  4 24  1  0  0  0
  4  6  1  0  0  0
  5  1  1  0  0  0
  6 25  1  0  0  0
  7  8  1  0  0  0
  8 27  1  0  0  0
  9 10  1  0  0  0
 10 11  1  0  0  0
 11 26  1  0  0  0
 12 13  1  0  0  0
 14 15  1  0  0  0
 16 27  1  0  0  0
 16 17  1  0  0  0
 17 28  1  0  0  0
 18 28  1  0  0  0
 18 19  1  0  0  0
 18 29  1  0  0  0
 19 20  1  0  0  0
 19 33  1  0  0  0
 20 21  1  0  0  0
 20 32  1  0  0  0
 21 22  1  0  0  0
 21 31  1  0  0  0
 22 29  1  0  0  0
 22 23  1  0  0  0
 23 30  1  0  0  0
  1  2  2  0  0  0
  3 24  2  0  0  0
  4  5  2  0  0  0
  6  7  2  0  0  0
  8  9  2  0  0  0
 10 25  2  0  0  0
 11 12  2  0  0  0
 13 14  2  0  0  0
 15 26  2  0  0  0
M  END
> <rmsd>
0.728637993

$$$$
PubChem-121299573


 27 28  0  0  0  0  0  0  0  0999 V2000
    5.2334   23.0196   66.5972 C   0  0  0  0  0
    4.1227   22.3314   67.3705 C   0  0  0  0  0
    2.0714   22.5821   66.5785 C   0  0  0  0  0
    1.6803   23.1094   65.2074 C   0  0  0  0  0
    2.0935   25.1946   64.5985 C   0  0  0  0  0
    3.0281   26.1535   63.8777 C   0  0  0  0  0
    5.2375   26.3049   63.7483 C   0  0  0  0  0
    6.5517   26.4720   64.4902 C   0  0  0  0  0
    6.8697   25.7454   66.5598 C   0  0  0  0  0
    5.7979   25.0254   67.3637 C   0  0  0  0  0
    2.3186   27.4785   63.6476 C   0  0  0  0  0
    1.3457   28.0817   61.3977 C   0  0  0  0  0
    0.3152   27.8998   60.3507 C   0  0  0  0  0
   -0.7394   26.9666   60.4697 C   0  0  0  0  0
   -1.6744   26.8564   59.4318 C   0  0  0  0  0
   -1.5581   27.6603   58.2993 C   0  0  0  0  0
   -0.5060   28.5692   58.2132 C   0  0  0  0  0
    3.2073   21.7757   66.4750 O   0  0  0  0  0
    2.6876   23.9363   64.7053 O   0  0  0  0  0
    4.1723   26.3654   64.6513 O   0  0  0  0  0
    6.8297   25.3207   65.2297 O   0  0  0  0  0
    6.1043   23.6655   67.4782 O   0  0  0  0  0
    2.2716   28.9180   61.2123 O   0  0  0  0  0
   -2.6235   26.0329   59.5139 O   0  0  0  0  0
   -0.8682   26.1550   61.5930 O   0  0  0  0  0
    1.3089   27.3276   62.6115 N   0  0  0  0  0
    0.3943   28.6671   59.2264 N   0  0  0  0  0
  1  2  1  0  0  0
  1 22  1  0  0  0
  2 18  1  0  0  0
  3 18  1  0  0  0
  3  4  1  0  0  0
  4 19  1  0  0  0
  5 19  1  0  0  0
  5  6  1  0  0  0
  6 20  1  0  0  0
  6 11  1  0  0  0
  7 20  1  0  0  0
  7  8  1  0  0  0
  8 21  1  0  0  0
  9 21  1  0  0  0
  9 10  1  0  0  0
 10 22  1  0  0  0
 11 26  1  0  0  0
 12 13  1  0  0  0
 14 15  1  0  0  0
 14 25  1  0  0  0
 15 16  1  0  0  0
 17 27  1  0  0  0
 26 12  1  0  0  0
 27 13  1  0  0  0
 12 23  2  0  0  0
 13 14  2  0  0  0
 15 24  2  0  0  0
 16 17  2  0  0  0
M  END
> <rmsd>
0.799186945

$$$$
PubChem-13178093


 23 24  0  0  0  0  0  0  0  0999 V2000
    2.1582   23.7375   65.6316 O   0  0  0  0  0
    3.3400   26.0132   64.4977 O   0  0  0  0  0
    3.2879   27.1015   62.4566 O   0  0  0  0  0
    6.2433   23.1719   66.7467 O   0  0  0  0  0
    3.5448   23.9037   65.6410 C   0  0  0  0  0
    3.9644   24.7622   64.4436 C   0  0  0  0  0
    2.6467   26.1257   63.2895 C   0  0  0  0  0
    2.7532   28.3688   62.1836 C   0  0  0  0  0
    1.6494   28.7886   62.8113 C   0  0  0  0  0
    1.0039   27.9422   63.8646 C   0  0  0  0  0
    1.1741   26.4560   63.5578 C   0  0  0  0  0
    3.4373   29.2347   61.1724 C   0  0  0  0  0
    4.0279   30.4724   61.8228 C   0  0  0  0  0
    5.4879   24.9322   64.3757 C   0  0  0  0  0
    6.1945   23.5730   64.3688 C   0  0  0  0  0
    5.7563   22.6750   65.5323 C   0  0  0  0  0
    7.1628   22.2164   67.1823 C   0  0  0  0  0
    4.2269   22.5349   65.5661 C   0  0  0  0  0
    3.6636   20.3501   66.1887 C   0  0  0  0  0
    0.3655   26.0843   62.4084 N   0  0  0  0  0
    2.5147   29.6200   60.1175 N   0  0  0  0  0
    5.9750   25.7575   65.4715 N   0  0  0  0  0
    3.8191   21.7045   66.6906 N   0  0  0  0  0
  5  1  1  0  0  0
  5  6  1  0  0  0
  6  2  1  0  0  0
  6 14  1  0  0  0
  7  2  1  0  0  0
  7  3  1  0  0  0
  8  3  1  0  0  0
 10  9  1  0  0  0
 10 11  1  0  0  0
 11 20  1  0  0  0
 11  7  1  0  0  0
 12  8  1  0  0  0
 12 21  1  0  0  0
 12 13  1  0  0  0
 14 22  1  0  0  0
 14 15  1  0  0  0
 15 16  1  0  0  0
 16  4  1  0  0  0
 16 18  1  0  0  0
 17  4  1  0  0  0
 18 23  1  0  0  0
 18  5  1  0  0  0
 19 23  1  0  0  0
  8  9  2  0  0  0
M  END
> <rmsd>
0.631482065

$$$$
PubChem-22536625 MCULE-4947239096 ZINC40659010


 23 24  0  0  0  0  0  0  0  0999 V2000
    7.8870   22.2392   66.9819 C   0  0  0  0  0
    6.5717   22.6072   67.6358 C   0  0  0  0  0
    6.8402   23.2543   68.9784 C   0  0  0  0  0
    4.6009   23.2273   66.2872 C   0  0  0  0  0
    3.9425   24.1661   65.4742 C   0  0  0  0  0
    2.6624   23.8306   64.9749 C   0  0  0  0  0
    2.7535   21.7584   66.1212 C   0  0  0  0  0
    1.7927   26.4759   62.3958 C   0  0  0  0  0
    2.4644   27.5109   61.5918 C   0  0  0  0  0
    3.8481   27.7020   61.6874 C   0  0  0  0  0
    4.4748   28.6865   60.9221 C   0  0  0  0  0
    3.7056   29.4744   60.0640 C   0  0  0  0  0
    1.7330   28.3255   60.7174 C   0  0  0  0  0
    5.8672   23.5172   66.8038 O   0  0  0  0  0
    0.5447   26.3164   62.3085 O   0  0  0  0  0
    5.7355   25.5453   64.9222 O   0  0  0  0  0
    3.8330   26.5941   65.5593 O   0  0  0  0  0
    2.1032   22.6431   65.3256 N   0  0  0  0  0
    3.9923   22.0485   66.5884 N   0  0  0  0  0
    1.9380   24.6718   64.0688 N   0  0  0  0  0
    2.5538   25.6513   63.2788 N   0  0  0  0  0
    2.3622   29.2797   59.9799 N   0  0  0  0  0
    4.5320   25.4528   65.2403 N   0  0  0  0  0
  1  2  1  0  0  0
  2  3  1  0  0  0
  2 14  1  0  0  0
  4 14  1  0  0  0
  4 19  1  0  0  0
  5  6  1  0  0  0
  5 23  1  0  0  0
  6 20  1  0  0  0
  7 18  1  0  0  0
  8  9  1  0  0  0
 10 11  1  0  0  0
 12 22  1  0  0  0
 13  9  1  0  0  0
 20 21  1  0  0  0
 21  8  1  0  0  0
 23 17  1  0  0  0
  4  5  2  0  0  0
  6 18  2  0  0  0
  7 19  2  0  0  0
  8 15  2  0  0  0
  9 10  2  0  0  0
 11 12  2  0  0  0
 13 22  2  0  0  0
 23 16  2  0  0  0
M  CHG  2  23   1  17  -1
M  END
> <rmsd>
0.673626482

$$$$
PubChem-4834982


 25 28  0  0  0  0  0  0  0  0999 V2000
   -1.3641   27.2029   64.3161 C   0  0  0  0  0
   -0.7794   26.1393   63.4080 C   0  0  0  0  0
    0.7626   26.3970   61.8052 C   0  0  0  0  0
    1.5876   27.6717   61.8066 C   0  0  0  0  0
    2.6269   26.2850   63.2326 C   0  0  0  0  0
    1.3214   25.5798   62.9080 C   0  0  0  0  0
    3.8725   25.0368   64.7841 C   0  0  0  0  0
    4.7750   25.2507   65.9779 C   0  0  0  0  0
    4.8409   23.9215   66.6297 C   0  0  0  0  0
    3.9561   23.0394   65.7730 C   0  0  0  0  0
    3.0991   22.1400   66.6460 C   0  0  0  0  0
    6.9030   24.5762   66.0730 C   0  0  0  0  0
    7.8394   24.0954   64.9825 C   0  0  0  0  0
    7.7354   25.1606   67.2013 C   0  0  0  0  0
    2.3193   27.8183   60.4824 C   0  0  0  0  0
   -1.7737   24.9965   63.2986 C   0  0  0  0  0
   -0.5598   26.6946   62.1348 O   0  0  0  0  0
    2.5062   27.6355   62.8731 O   0  0  0  0  0
    0.4190   25.6686   63.9695 O   0  0  0  0  0
    3.1321   23.8625   64.9923 O   0  0  0  0  0
    3.8931   21.1663   67.2525 O   0  0  0  0  0
    6.1616   23.4822   66.5525 O   0  0  0  0  0
    6.0608   25.5706   65.5453 O   0  0  0  0  0
    2.9548   29.0585   60.4279 O   0  0  0  0  0
    2.9730   26.1709   64.6435 N   0  0  0  0  0
  1  2  1  0  0  0
  2 17  1  0  0  0
  2 16  1  0  0  0
  2 19  1  0  0  0
  3 17  1  0  0  0
  3  4  1  0  0  0
  4 18  1  0  0  0
  4 15  1  0  0  0
  5 18  1  0  0  0
  5  6  1  0  0  0
  5 25  1  0  0  0
  6 19  1  0  0  0
  6  3  1  0  0  0
  7 25  1  0  0  0
  7  8  1  0  0  0
  7 20  1  0  0  0
  8  9  1  0  0  0
  8 23  1  0  0  0
  9 10  1  0  0  0
  9 22  1  0  0  0
 10 20  1  0  0  0
 10 11  1  0  0  0
 11 21  1  0  0  0
 12 22  1  0  0  0
 12 23  1  0  0  0
 12 13  1  0  0  0
 12 14  1  0  0  0
 15 24  1  0  0  0
M  END
> <rmsd>
0.624695361

$$$$
PubChem-136806238


 31 33  0  0  0  0  0  0  0  0999 V2000
    0.9930   27.7828   59.8123 C   0  0  0  0  0
   -0.4043   27.3623   60.2491 C   0  0  0  0  0
    0.2632   25.8390   61.9815 C   0  0  0  0  0
    0.2642   25.3600   63.3716 C   0  0  0  0  0
    1.0825   24.2786   63.7429 C   0  0  0  0  0
    1.0799   23.8138   65.0672 C   0  0  0  0  0
    0.2548   24.4365   66.0170 C   0  0  0  0  0
   -0.5546   25.5130   65.6519 C   0  0  0  0  0
   -0.5489   25.9738   64.3347 C   0  0  0  0  0
    1.8552   22.1162   66.6941 C   0  0  0  0  0
    3.0071   21.1383   66.8304 C   0  0  0  0  0
    5.0038   21.6134   65.9960 C   0  0  0  0  0
    6.4270   22.0401   66.3110 C   0  0  0  0  0
    7.4102   23.9539   65.7966 C   0  0  0  0  0
    7.2917   25.4660   65.8207 C   0  0  0  0  0
    5.8582   26.6792   64.2046 C   0  0  0  0  0
    6.9659   27.2289   63.5403 C   0  0  0  0  0
    6.7850   28.0460   62.4232 C   0  0  0  0  0
    5.4967   28.3168   61.9590 C   0  0  0  0  0
    4.3799   27.7752   62.6108 C   0  0  0  0  0
    4.5647   26.9579   63.7393 C   0  0  0  0  0
    3.0232   28.0360   62.1097 C   0  0  0  0  0
    1.4569   29.0021   60.5939 C   0  0  0  0  0
   -0.4053   26.8906   61.6278 N   0  0  0  0  0
    2.8098   28.7899   61.0794 N   0  0  0  0  0
    1.9067   22.7416   65.4181 O   0  0  0  0  0
    4.1860   21.8327   67.1062 O   0  0  0  0  0
    6.4554   23.3946   66.6466 O   0  0  0  0  0
    6.0176   25.8546   65.3229 O   0  0  0  0  0
    3.4661   26.4173   64.4010 O   0  0  0  0  0
    1.9021   23.6640   62.8007 O   0  0  0  0  0
  1  2  1  0  0  0
  2 24  1  0  0  0
  3  4  1  0  0  0
  5  6  1  0  0  0
  5 31  1  0  0  0
  6 26  1  0  0  0
  7  8  1  0  0  0
  9  4  1  0  0  0
 10 26  1  0  0  0
 10 11  1  0  0  0
 11 27  1  0  0  0
 12 27  1  0  0  0
 12 13  1  0  0  0
 13 28  1  0  0  0
 14 28  1  0  0  0
 14 15  1  0  0  0
 15 29  1  0  0  0
 16 29  1  0  0  0
 17 18  1  0  0  0
 19 20  1  0  0  0
 20 22  1  0  0  0
 21 30  1  0  0  0
 21 16  1  0  0  0
 23 25  1  0  0  0
 23  1  1  0  0  0
  3 24  2  0  0  0
  4  5  2  0  0  0
  6  7  2  0  0  0
  8  9  2  0  0  0
 16 17  2  0  0  0
 18 19  2  0  0  0
 20 21  2  0  0  0
 22 25  2  0  0  0
M  END
> <rmsd>
0.670064151

$$$$
PubChem-81217856


 20 21  0  0  0  0  0  0  0  0999 V2000
   -0.2084   23.8529   62.7786 C   0  0  0  0  0
    0.4294   24.8808   63.6991 C   0  0  0  0  0
    0.0256   26.2965   63.2721 C   0  0  0  0  0
    1.9913   26.7436   62.2382 C   0  0  0  0  0
    2.5928   25.3669   62.5176 C   0  0  0  0  0
    2.5823   23.9907   64.6393 C   0  0  0  0  0
    3.8396   24.3815   65.1537 C   0  0  0  0  0
    4.4847   23.5114   66.0530 C   0  0  0  0  0
    2.6649   22.0052   65.9334 C   0  0  0  0  0
    2.6491   27.3399   61.0093 C   0  0  0  0  0
    0.6038   26.6219   62.0282 O   0  0  0  0  0
    5.6269   25.7708   64.5921 O   0  0  0  0  0
    3.6389   26.7984   64.9360 O   0  0  0  0  0
    2.2247   28.6574   60.8377 O   0  0  0  0  0
    1.8876   24.7706   63.6520 N   0  0  0  0  0
    3.8822   22.3495   66.4196 N   0  0  0  0  0
    2.0292   22.8195   65.0556 N   0  0  0  0  0
    5.7483   23.8620   66.6210 N   0  0  0  0  0
    6.3946   23.0171   67.5320 N   0  0  0  0  0
    4.4087   25.6622   64.8413 N   0  0  0  0  0
  2  1  1  0  0  0
  2  3  1  0  0  0
  2 15  1  0  0  0
  3 11  1  0  0  0
  4 11  1  0  0  0
  4  5  1  0  0  0
  4 10  1  0  0  0
  5 15  1  0  0  0
  6 17  1  0  0  0
  7  8  1  0  0  0
  7 20  1  0  0  0
  8 18  1  0  0  0
  9 16  1  0  0  0
 10 14  1  0  0  0
 15  6  1  0  0  0
 18 19  1  0  0  0
 20 13  1  0  0  0
  6  7  2  0  0  0
  8 16  2  0  0  0
  9 17  2  0  0  0
 20 12  2  0  0  0
M  CHG  2  20   1  13  -1
M  END
> <rmsd>
0.744092286

$$$$
PubChem-22536553 MCULE-7972073266 ZINC40658936


 23 24  0  0  0  0  0  0  0  0999 V2000
    7.9924   22.4497   66.7006 C   0  0  0  0  0
    6.7092   22.7631   67.4409 C   0  0  0  0  0
    7.0381   23.4405   68.7548 C   0  0  0  0  0
    4.6219   23.2698   66.2269 C   0  0  0  0  0
    3.8638   24.1650   65.4523 C   0  0  0  0  0
    2.5702   23.7618   65.0469 C   0  0  0  0  0
    2.8412   21.7120   66.2052 C   0  0  0  0  0
    1.3963   26.3271   62.5079 C   0  0  0  0  0
    1.9594   27.3823   61.6478 C   0  0  0  0  0
    3.3367   27.6362   61.6486 C   0  0  0  0  0
    3.8527   28.6414   60.8278 C   0  0  0  0  0
    1.6800   29.1418   60.0142 C   0  0  0  0  0
    1.1256   28.1455   60.8207 C   0  0  0  0  0
    5.9053   23.6269   66.6508 O   0  0  0  0  0
    0.1544   26.1067   62.5099 O   0  0  0  0  0
    5.5450   25.6208   64.7625 O   0  0  0  0  0
    3.6422   26.5857   65.5198 O   0  0  0  0  0
    2.0951   22.5538   65.4479 N   0  0  0  0  0
    4.0937   22.0675   66.5818 N   0  0  0  0  0
    1.7447   24.5549   64.1851 N   0  0  0  0  0
    2.2559   25.5518   63.3440 N   0  0  0  0  0
    3.0210   29.3675   60.0339 N   0  0  0  0  0
    4.3724   25.4750   65.1647 N   0  0  0  0  0
  1  2  1  0  0  0
  2  3  1  0  0  0
  2 14  1  0  0  0
  4 14  1  0  0  0
  4 19  1  0  0  0
  5  6  1  0  0  0
  5 23  1  0  0  0
  6 20  1  0  0  0
  7 18  1  0  0  0
  8  9  1  0  0  0
 10 11  1  0  0  0
 12 22  1  0  0  0
 13  9  1  0  0  0
 20 21  1  0  0  0
 21  8  1  0  0  0
 23 17  1  0  0  0
  4  5  2  0  0  0
  6 18  2  0  0  0
  7 19  2  0  0  0
  8 15  2  0  0  0
  9 10  2  0  0  0
 11 22  2  0  0  0
 12 13  2  0  0  0
 23 16  2  0  0  0
M  CHG  2  23   1  17  -1
M  END
> <rmsd>
0.712584794

$$$$
PubChem-92447140 ZINC000013361702 ZINC13361702


 34 37  0  0  0  0  0  0  0  0999 V2000
   -0.8346   29.5270   60.7958 C   0  0  0  0  0
    0.4885   28.7944   60.9414 C   0  0  0  0  0
    1.6230   29.7564   60.8354 C   0  0  0  0  0
    2.8137   31.7801   61.8716 C   0  0  0  0  0
    3.8852   31.7800   60.9653 C   0  0  0  0  0
    4.8886   32.7500   61.0568 C   0  0  0  0  0
    4.8290   33.7250   62.0564 C   0  0  0  0  0
    3.7671   33.7282   62.9649 C   0  0  0  0  0
    2.7641   32.7578   62.8720 C   0  0  0  0  0
   -0.2108   26.9295   62.5109 C   0  0  0  0  0
   -0.0940   26.2887   63.8476 C   0  0  0  0  0
    1.6702   25.1060   65.2062 C   0  0  0  0  0
    3.0559   24.5532   65.2827 C   0  0  0  0  0
    3.9980   25.5433   65.9729 C   0  0  0  0  0
    5.3848   24.9671   66.1056 C   0  0  0  0  0
    5.4591   23.4337   66.2090 C   0  0  0  0  0
    4.2602   22.6901   65.6727 C   0  0  0  0  0
    5.0198   21.7236   67.5378 C   0  0  0  0  0
    4.0887   21.6101   68.7305 C   0  0  0  0  0
    6.1144   20.6808   67.6804 C   0  0  0  0  0
    5.4019   26.5577   64.5512 C   0  0  0  0  0
    6.2317   27.7932   64.8492 C   0  0  0  0  0
    5.2004   26.4637   63.0506 C   0  0  0  0  0
    2.4465   29.6283   59.8913 O   0  0  0  0  0
   -0.9548   26.4140   61.6346 O   0  0  0  0  0
    0.9268   25.1057   66.2254 O   0  0  0  0  0
    3.0561   23.3461   65.9917 O   0  0  0  0  0
    4.2899   21.4736   66.3521 O   0  0  0  0  0
    5.5982   23.0107   67.5246 O   0  0  0  0  0
    6.0926   25.4123   64.9945 O   0  0  0  0  0
    4.1439   26.6802   65.1780 O   0  0  0  0  0
    1.7653   30.8032   61.8080 N   0  0  0  0  0
    0.5456   28.1082   62.2247 N   0  0  0  0  0
    1.2219   25.6872   63.9827 N   0  0  0  0  0
  2  1  1  0  0  0
  2  3  1  0  0  0
  2 33  1  0  0  0
  3 32  1  0  0  0
  5  6  1  0  0  0
  7  8  1  0  0  0
  9  4  1  0  0  0
 11 10  1  0  0  0
 11 34  1  0  0  0
 13 12  1  0  0  0
 13 14  1  0  0  0
 13 27  1  0  0  0
 14 15  1  0  0  0
 14 31  1  0  0  0
 15 16  1  0  0  0
 15 30  1  0  0  0
 16 17  1  0  0  0
 16 29  1  0  0  0
 17 27  1  0  0  0
 17 28  1  0  0  0
 18 28  1  0  0  0
 18 29  1  0  0  0
 18 19  1  0  0  0
 18 20  1  0  0  0
 21 30  1  0  0  0
 21 31  1  0  0  0
 21 22  1  0  0  0
 21 23  1  0  0  0
 32  4  1  0  0  0
 33 10  1  0  0  0
 34 12  1  0  0  0
  3 24  2  0  0  0
  4  5  2  0  0  0
  6  7  2  0  0  0
  8  9  2  0  0  0
 10 25  2  0  0  0
 12 26  2  0  0  0
M  END
> <rmsd>
0.685216308

$$$$
PubChem-57824768


 23 24  0  0  0  0  0  0  0  0999 V2000
    2.3531   30.1467   60.8208 C   0  0  0  0  0
    2.6508   28.3142   59.4177 C   0  0  0  0  0
    1.0335   28.2471   61.1044 C   0  0  0  0  0
    1.0737   26.9005   61.8085 C   0  0  0  0  0
    1.6185   27.0648   63.2290 C   0  0  0  0  0
    0.3457   24.9723   63.7485 C   0  0  0  0  0
   -0.0951   25.0218   62.2838 C   0  0  0  0  0
    2.6917   25.2618   64.6210 C   0  0  0  0  0
    3.6893   23.5345   65.9072 C   0  0  0  0  0
    4.8791   24.2826   66.0162 C   0  0  0  0  0
    4.9191   25.5445   65.3917 C   0  0  0  0  0
    6.1621   27.5981   64.8260 C   0  0  0  0  0
    2.4020   21.4990   66.4390 C   0  0  0  0  0
    2.3814   28.6961   60.7930 N   0  0  0  0  0
    1.5613   25.7686   63.8985 N   0  0  0  0  0
    2.6339   24.0419   65.2146 N   0  0  0  0  0
    3.8288   25.9981   64.7159 N   0  0  0  0  0
    6.0174   23.7764   66.7428 N   0  0  0  0  0
   -0.2254   26.3599   61.8635 O   0  0  0  0  0
    6.0772   26.3243   65.4478 O   0  0  0  0  0
    6.1808   22.5486   66.8972 O   0  0  0  0  0
    6.9451   24.6368   67.2833 O   0  0  0  0  0
    3.5833   22.2827   66.5196 O   0  0  0  0  0
  1 14  1  0  0  0
  2 14  1  0  0  0
  3 14  1  0  0  0
  4  3  1  0  0  0
  4  5  1  0  0  0
  4 19  1  0  0  0
  5 15  1  0  0  0
  6 15  1  0  0  0
  6  7  1  0  0  0
  7 19  1  0  0  0
  8 17  1  0  0  0
  9 16  1  0  0  0
  9 23  1  0  0  0
 10 11  1  0  0  0
 10 18  1  0  0  0
 11 20  1  0  0  0
 12 20  1  0  0  0
 13 23  1  0  0  0
 15  8  1  0  0  0
 18 22  1  0  0  0
  8 16  2  0  0  0
  9 10  2  0  0  0
 11 17  2  0  0  0
 18 21  2  0  0  0
M  CHG  2  18   1  22  -1
M  END
> <rmsd>
0.730769753

$$$$
PubChem-156595560


 33 36  0  0  0  0  0  0  0  0999 V2000
   -0.5811   23.0059   62.5200 C   0  0  0  0  0
    0.0906   22.9595   63.8445 C   0  0  0  0  0
    1.7657   21.8963   65.3203 C   0  0  0  0  0
    3.0317   22.7343   65.2019 C   0  0  0  0  0
    3.9558   22.4912   66.4017 C   0  0  0  0  0
    5.2073   23.3640   66.2667 C   0  0  0  0  0
    4.8540   24.8032   65.8838 C   0  0  0  0  0
    3.8398   24.7860   64.7374 C   0  0  0  0  0
    3.4613   26.1008   62.9830 C   0  0  0  0  0
    4.0137   27.4214   62.4488 C   0  0  0  0  0
    3.1154   28.5958   62.8424 C   0  0  0  0  0
    1.6682   28.3831   62.3779 C   0  0  0  0  0
    1.1122   27.0315   62.8533 C   0  0  0  0  0
    2.0375   25.8744   62.4672 C   0  0  0  0  0
   -0.5608   27.2249   61.0223 C   0  0  0  0  0
    0.2110   28.0387   60.2858 C   0  0  0  0  0
    1.4707   28.5404   60.8920 C   0  0  0  0  0
   -0.2240   28.4191   58.9132 C   0  0  0  0  0
   -1.2848   27.7397   58.2864 C   0  0  0  0  0
   -1.7048   28.0989   57.0027 C   0  0  0  0  0
   -1.0715   29.1450   56.3287 C   0  0  0  0  0
   -0.0203   29.8324   56.9388 C   0  0  0  0  0
    0.3984   29.4720   58.2227 C   0  0  0  0  0
   -0.1934   23.8251   64.7152 O   0  0  0  0  0
    1.0209   21.9515   64.1087 O   0  0  0  0  0
    2.6866   24.0948   65.1446 O   0  0  0  0  0
    3.4903   26.0928   64.3836 O   0  0  0  0  0
   -0.1898   26.8051   62.3093 O   0  0  0  0  0
    2.3644   29.0782   60.1830 O   0  0  0  0  0
   -1.4872   29.5020   55.0535 O   0  0  0  0  0
    6.0099   25.4751   65.4827 O   0  0  0  0  0
    5.9194   23.3564   67.4667 O   0  0  0  0  0
    4.3347   21.1480   66.4495 O   0  0  0  0  0
  1  2  1  0  0  0
  2 25  1  0  0  0
  3 25  1  0  0  0
  4  3  1  0  0  0
  4  5  1  0  0  0
  4 26  1  0  0  0
  5  6  1  0  0  0
  5 33  1  0  0  0
  6  7  1  0  0  0
  6 32  1  0  0  0
  7  8  1  0  0  0
  7 31  1  0  0  0
  8 26  1  0  0  0
  8 27  1  0  0  0
  9 27  1  0  0  0
  9 10  1  0  0  0
 10 11  1  0  0  0
 11 12  1  0  0  0
 12 13  1  0  0  0
 12 17  1  0  0  0
 13 14  1  0  0  0
 13 28  1  0  0  0
 14  9  1  0  0  0
 15 28  1  0  0  0
 16 17  1  0  0  0
 16 18  1  0  0  0
 19 20  1  0  0  0
 21 22  1  0  0  0
 21 30  1  0  0  0
 23 18  1  0  0  0
  2 24  2  0  0  0
 15 16  2  0  0  0
 17 29  2  0  0  0
 18 19  2  0  0  0
 20 21  2  0  0  0
 22 23  2  0  0  0
M  END
> <rmsd>
0.57727778

$$$$
PubChem-140426796


 25 27  0  0  0  0  0  0  0  0999 V2000
    0.5259   31.3516   60.9165 C   0  0  0  0  0
    1.0088   30.2495   61.8393 C   0  0  0  0  0
    1.1300   28.9389   61.0782 C   0  0  0  0  0
    0.4041   26.7148   62.1580 C   0  0  0  0  0
    0.9243   25.8054   63.1723 C   0  0  0  0  0
    2.1057   26.3366   63.6511 C   0  0  0  0  0
    2.3458   27.5881   62.9362 C   0  0  0  0  0
    2.8696   25.6716   64.6113 C   0  0  0  0  0
    2.3651   24.4525   65.1262 C   0  0  0  0  0
    1.1573   23.9175   64.6270 C   0  0  0  0  0
    0.4262   24.5904   63.6342 C   0  0  0  0  0
    3.8742   22.7174   65.9194 C   0  0  0  0  0
    5.2846   22.9341   65.4636 C   0  0  0  0  0
    5.4219   24.1363   64.5276 C   0  0  0  0  0
    5.2456   25.4588   65.2253 C   0  0  0  0  0
    2.2675   28.9847   60.1734 N   0  0  0  0  0
    1.2833   27.8282   62.0096 N   0  0  0  0  0
   -0.6568   26.5548   61.4983 O   0  0  0  0  0
    3.3369   28.3493   63.0933 O   0  0  0  0  0
    3.0250   23.7953   66.1642 O   0  0  0  0  0
    3.4842   21.5500   66.1814 O   0  0  0  0  0
    6.1728   25.9185   65.9432 O   0  0  0  0  0
    4.0845   26.2167   65.0427 O   0  0  0  0  0
    6.6499   24.0969   63.8656 O   0  0  0  0  0
    6.1365   23.0477   66.5648 O   0  0  0  0  0
  1  2  1  0  0  0
  2  3  1  0  0  0
  3 16  1  0  0  0
  3 17  1  0  0  0
  4  5  1  0  0  0
  6  7  1  0  0  0
  6  8  1  0  0  0
  7 17  1  0  0  0
  8 23  1  0  0  0
  9 10  1  0  0  0
  9 20  1  0  0  0
 11  5  1  0  0  0
 12 20  1  0  0  0
 13 12  1  0  0  0
 13 14  1  0  0  0
 13 25  1  0  0  0
 14 15  1  0  0  0
 14 24  1  0  0  0
 15 23  1  0  0  0
 17  4  1  0  0  0
  4 18  2  0  0  0
  5  6  2  0  0  0
  7 19  2  0  0  0
  8  9  2  0  0  0
 10 11  2  0  0  0
 12 21  2  0  0  0
 15 22  2  0  0  0
M  END
> <rmsd>
0.710101783

$$$$
