PubChem-127029401 CHEMBL3792460


 27 30  0  0  0  0  0  0  0  0999 V2000
    2.9093   29.5161   60.4789 O   0  0  0  0  0
    0.5003   28.8172   62.2901 O   0  0  0  0  0
   -0.3712   26.4916   63.0080 O   0  0  0  0  0
    2.6064   26.0926   61.5476 O   0  0  0  0  0
    5.4935   23.1505   66.6093 O   0  0  0  0  0
    3.3538   28.2786   60.9455 C   0  0  0  0  0
    2.1684   27.4067   61.3221 C   0  0  0  0  0
    1.5215   27.9106   62.5884 C   0  0  0  0  0
    0.9978   26.6562   63.2369 C   0  0  0  0  0
    1.7507   25.5476   62.5253 C   0  0  0  0  0
    2.3536   23.4432   63.7616 C   0  0  0  0  0
    3.9758   24.0843   64.9736 C   0  0  0  0  0
    5.0388   24.2304   65.8526 C   0  0  0  0  0
    6.5733   23.2761   67.5236 C   0  0  0  0  0
    6.8059   21.9528   68.2354 C   0  0  0  0  0
    5.6646   21.6183   69.1376 C   0  0  0  0  0
    4.8714   20.4989   68.8635 C   0  0  0  0  0
    3.8055   20.1714   69.7072 C   0  0  0  0  0
    3.5333   20.9606   70.8288 C   0  0  0  0  0
    4.3280   22.0766   71.1085 C   0  0  0  0  0
    5.3940   22.4045   70.2653 C   0  0  0  0  0
    5.1641   26.5256   65.1979 C   0  0  0  0  0
    3.5471   25.1396   64.2499 C   0  0  0  0  0
    2.5216   24.7594   63.4787 N   0  0  0  0  0
    3.2432   22.9909   64.6913 N   0  0  0  0  0
    5.6171   25.4679   65.9461 N   0  0  0  0  0
    4.1152   26.3672   64.3350 N   0  0  0  0  0
  6  1  1  0  0  0
  7  6  1  0  0  0
  7  8  1  0  0  0
  7  4  1  0  0  0
  8  2  1  0  0  0
  8  9  1  0  0  0
  9  3  1  0  0  0
  9 10  1  0  0  0
 10  4  1  0  0  0
 10 24  1  0  0  0
 12 25  1  0  0  0
 13  5  1  0  0  0
 13 26  1  0  0  0
 14  5  1  0  0  0
 14 15  1  0  0  0
 15 16  1  0  0  0
 17 18  1  0  0  0
 19 20  1  0  0  0
 21 16  1  0  0  0
 22 27  1  0  0  0
 23 24  1  0  0  0
 23 12  1  0  0  0
 24 11  1  0  0  0
 11 25  2  0  0  0
 12 13  2  0  0  0
 16 17  2  0  0  0
 18 19  2  0  0  0
 20 21  2  0  0  0
 22 26  2  0  0  0
 23 27  2  0  0  0
M  END
> <rmsd>
0.803696036

$$$$
PubChem-66894509


 36 40  0  0  0  0  0  0  0  0999 V2000
    5.6354   28.8063   63.7598 C   0  0  0  0  0
    5.2660   26.5869   64.8964 C   0  0  0  0  0
    3.4710   25.1992   64.3483 C   0  0  0  0  0
    3.8561   24.2807   65.2579 C   0  0  0  0  0
    4.9873   24.4975   66.0307 C   0  0  0  0  0
    6.5006   23.6616   67.8255 C   0  0  0  0  0
    8.1191   22.4726   69.3222 C   0  0  0  0  0
    9.2557   22.7411   68.5416 C   0  0  0  0  0
   10.5370   22.6092   69.0844 C   0  0  0  0  0
   10.6952   22.2064   70.4126 C   0  0  0  0  0
    9.5725   21.9353   71.1985 C   0  0  0  0  0
    8.2912   22.0674   70.6563 C   0  0  0  0  0
    5.7569   21.6693   69.1325 C   0  0  0  0  0
    4.4322   22.1029   69.3078 C   0  0  0  0  0
    3.4302   21.1968   69.6659 C   0  0  0  0  0
    3.7426   19.8482   69.8539 C   0  0  0  0  0
    5.0566   19.4053   69.6839 C   0  0  0  0  0
    6.0588   20.3110   69.3252 C   0  0  0  0  0
    2.0884   23.5790   64.3119 C   0  0  0  0  0
    1.5697   25.4448   62.7075 C   0  0  0  0  0
    0.8568   26.6499   63.2900 C   0  0  0  0  0
    1.5129   27.8085   62.5910 C   0  0  0  0  0
    2.0994   27.1791   61.3521 C   0  0  0  0  0
    3.3667   27.9049   60.9336 C   0  0  0  0  0
    6.0173   27.7883   64.7238 N   0  0  0  0  0
    4.1457   26.3556   64.1434 N   0  0  0  0  0
    5.6747   25.6637   65.8262 N   0  0  0  0  0
    6.7936   22.6039   68.7626 N   0  0  0  0  0
    3.0038   23.2388   65.2639 N   0  0  0  0  0
    2.3596   24.7763   63.7347 N   0  0  0  0  0
    5.3891   23.5461   66.9773 O   0  0  0  0  0
    7.2411   24.6823   67.7771 O   0  0  0  0  0
    2.4005   25.8367   61.6369 O   0  0  0  0  0
    3.0509   29.1608   60.4144 O   0  0  0  0  0
    0.5947   28.8056   62.2503 O   0  0  0  0  0
   -0.5015   26.5661   62.9711 O   0  0  0  0  0
  1 25  1  0  0  0
  2 27  1  0  0  0
  3 26  1  0  0  0
  4  5  1  0  0  0
  4 29  1  0  0  0
  5 31  1  0  0  0
  6 31  1  0  0  0
  6 28  1  0  0  0
  8  9  1  0  0  0
 10 11  1  0  0  0
 12  7  1  0  0  0
 14 15  1  0  0  0
 16 17  1  0  0  0
 18 13  1  0  0  0
 19 30  1  0  0  0
 20 30  1  0  0  0
 20 21  1  0  0  0
 20 33  1  0  0  0
 21 22  1  0  0  0
 21 36  1  0  0  0
 22 23  1  0  0  0
 22 35  1  0  0  0
 23 33  1  0  0  0
 23 24  1  0  0  0
 24 34  1  0  0  0
 25  2  1  0  0  0
 28  7  1  0  0  0
 28 13  1  0  0  0
 30  3  1  0  0  0
  2 26  2  0  0  0
  3  4  2  0  0  0
  5 27  2  0  0  0
  6 32  2  0  0  0
  7  8  2  0  0  0
  9 10  2  0  0  0
 11 12  2  0  0  0
 13 14  2  0  0  0
 15 16  2  0  0  0
 17 18  2  0  0  0
 19 29  2  0  0  0
M  END
> <rmsd>
0.68263483

$$$$
PubChem-140603331


 27 30  0  0  0  0  0  0  0  0999 V2000
    4.5820   18.0833   70.7545 C   0  0  0  0  0
    4.8203   19.3377   69.9945 C   0  0  0  0  0
    4.0061   19.8268   68.9841 C   0  0  0  0  0
    4.4794   21.0320   68.4462 C   0  0  0  0  0
    5.6591   21.4720   69.0424 C   0  0  0  0  0
    6.4250   22.6912   68.7244 C   0  0  0  0  0
    4.6389   24.4088   66.0207 C   0  0  0  0  0
    3.5082   24.2831   65.2268 C   0  0  0  0  0
    3.2280   25.2224   64.2990 C   0  0  0  0  0
    5.1279   26.4456   64.8738 C   0  0  0  0  0
    1.7061   23.7318   64.2467 C   0  0  0  0  0
    1.3918   25.6174   62.6136 C   0  0  0  0  0
    0.7712   26.8842   63.1710 C   0  0  0  0  0
    1.4566   27.9787   62.3978 C   0  0  0  0  0
    2.0143   27.2591   61.1950 C   0  0  0  0  0
    3.2995   27.9196   60.7267 C   0  0  0  0  0
    6.1165   20.3761   70.2305 S   0  0  0  0  0
    6.0987   23.5580   67.8127 N   0  0  0  0  0
    4.9571   23.4313   67.0095 N   0  0  0  0  0
    4.0101   26.3109   64.0975 N   0  0  0  0  0
    5.4352   25.5031   65.8230 N   0  0  0  0  0
    2.0969   24.8930   63.6639 N   0  0  0  0  0
    2.5657   23.3219   65.2231 N   0  0  0  0  0
    2.2774   25.9298   61.5622 O   0  0  0  0  0
    3.0164   29.1470   60.1270 O   0  0  0  0  0
    0.5672   28.9815   62.0019 O   0  0  0  0  0
   -0.6033   26.8617   62.9179 O   0  0  0  0  0
  1  2  1  0  0  0
  2 17  1  0  0  0
  3  4  1  0  0  0
  5 17  1  0  0  0
  5  6  1  0  0  0
  7 21  1  0  0  0
  8  9  1  0  0  0
  8 23  1  0  0  0
  9 22  1  0  0  0
 10 20  1  0  0  0
 12 22  1  0  0  0
 12 13  1  0  0  0
 12 24  1  0  0  0
 13 14  1  0  0  0
 13 27  1  0  0  0
 14 15  1  0  0  0
 14 26  1  0  0  0
 15 24  1  0  0  0
 15 16  1  0  0  0
 16 25  1  0  0  0
 19 18  1  0  0  0
 19  7  1  0  0  0
 22 11  1  0  0  0
  2  3  2  0  0  0
  4  5  2  0  0  0
  6 18  2  0  0  0
  7  8  2  0  0  0
  9 20  2  0  0  0
 10 21  2  0  0  0
 11 23  2  0  0  0
M  END
> <rmsd>
0.739002526

$$$$
PubChem-102178874


 28 31  0  0  0  0  0  0  0  0999 V2000
    4.5068   21.1005   68.4206 C   0  0  0  0  0
    3.8486   19.9249   68.7927 C   0  0  0  0  0
    4.3729   19.1246   69.8106 C   0  0  0  0  0
    5.5543   19.5001   70.4551 C   0  0  0  0  0
    6.2108   20.6765   70.0810 C   0  0  0  0  0
    5.6943   21.4859   69.0624 C   0  0  0  0  0
    6.4363   22.7163   68.7147 C   0  0  0  0  0
    4.6389   24.4258   66.0076 C   0  0  0  0  0
    5.1264   26.4612   64.8574 C   0  0  0  0  0
    3.2260   25.2370   64.2864 C   0  0  0  0  0
    3.5073   24.2990   65.2151 C   0  0  0  0  0
    1.7042   23.7462   64.2378 C   0  0  0  0  0
    1.3878   25.6295   62.6026 C   0  0  0  0  0
    0.7676   26.8969   63.1591 C   0  0  0  0  0
    1.4521   27.9905   62.3836 C   0  0  0  0  0
    2.0085   27.2694   61.1812 C   0  0  0  0  0
    3.2930   27.9296   60.7106 C   0  0  0  0  0
    6.1006   23.5771   67.7991 N   0  0  0  0  0
    4.9583   23.4497   66.9973 N   0  0  0  0  0
    5.4349   25.5199   65.8075 N   0  0  0  0  0
    4.0077   26.3253   64.0826 N   0  0  0  0  0
    2.5650   23.3376   65.2137 N   0  0  0  0  0
    2.0943   24.9066   63.6530 N   0  0  0  0  0
    2.2722   25.9407   61.5498 O   0  0  0  0  0
    3.0092   29.1562   60.1095 O   0  0  0  0  0
    0.5620   28.9928   61.9875 O   0  0  0  0  0
   -0.6071   26.8739   62.9074 O   0  0  0  0  0
    3.5504   17.6522   70.2782 Cl  0  0  0  0  0
  2  3  1  0  0  0
  3 28  1  0  0  0
  4  5  1  0  0  0
  6  7  1  0  0  0
  6  1  1  0  0  0
  9 20  1  0  0  0
 10 21  1  0  0  0
 11 22  1  0  0  0
 11  8  1  0  0  0
 12 23  1  0  0  0
 13 23  1  0  0  0
 13 14  1  0  0  0
 13 24  1  0  0  0
 14 15  1  0  0  0
 14 27  1  0  0  0
 15 16  1  0  0  0
 15 26  1  0  0  0
 16 24  1  0  0  0
 16 17  1  0  0  0
 17 25  1  0  0  0
 19 18  1  0  0  0
 19  8  1  0  0  0
 23 10  1  0  0  0
  1  2  2  0  0  0
  3  4  2  0  0  0
  5  6  2  0  0  0
  7 18  2  0  0  0
  8 20  2  0  0  0
  9 21  2  0  0  0
 10 11  2  0  0  0
 12 22  2  0  0  0
M  END
> <rmsd>
0.730129838

$$$$
