ZYXJXZWGDSIHNS-UHFFFAOYSA-N


 23 23  0  0  0  0  0  0  0  0999 V2000
    3.0442   26.4137   64.3848 C   0  0  0  0  0
    4.4133   24.6118   65.5684 C   0  0  0  0  0
    4.4691   23.2932   66.0735 C   0  0  0  0  0
    5.6567   22.8834   66.6898 C   0  0  0  0  0
    6.6364   24.9936   66.3042 C   0  0  0  0  0
    1.7690   26.7458   63.6935 C   0  0  0  0  0
    1.7869   27.6043   61.5152 C   0  0  0  0  0
    3.1769   28.0091   61.0650 C   0  0  0  0  0
    4.4279   29.4970   60.0245 C   0  0  0  0  0
    0.4861   23.9078   62.8240 C   0  0  0  0  0
    3.2311   25.0972   64.9166 N   0  0  0  0  0
    3.3691   22.3672   65.9817 N   0  0  0  0  0
    6.7105   23.7316   66.7944 N   0  0  0  0  0
    5.4998   25.4217   65.6997 N   0  0  0  0  0
    1.8599   26.3744   62.2889 N   0  0  0  0  0
    3.5074   21.0895   66.4745 O   0  0  0  0  0
    2.2763   22.6991   65.4789 O   0  0  0  0  0
    3.9502   27.2851   64.4640 O   0  0  0  0  0
    3.1034   29.1981   60.3414 O   0  0  0  0  0
    0.4565   25.1048   60.4353 O   0  0  0  0  0
   -0.7959   26.1895   62.2434 O   0  0  0  0  0
    8.0075   26.0712   66.4503 Cl  0  0  0  0  0
    0.4564   25.4291   61.9029 S   0  0  0  0  0
  1 11  1  0  0  0
  2 14  1  0  0  0
  3 12  1  0  0  0
  3  4  1  0  0  0
  5 13  1  0  0  0
  5 22  1  0  0  0
  6  1  1  0  0  0
  6 15  1  0  0  0
  7 15  1  0  0  0
  7  8  1  0  0  0
  8 19  1  0  0  0
  9 19  1  0  0  0
 11  2  1  0  0  0
 12 16  1  0  0  0
 23 15  1  0  0  0
 23 10  1  0  0  0
  1 18  2  0  0  0
  2  3  2  0  0  0
  4 13  2  0  0  0
  5 14  2  0  0  0
 12 17  2  0  0  0
 23 20  2  0  0  0
 23 21  2  0  0  0
M  CHG  2  12   1  16  -1
M  END
> <rmsd>
0.676698864

$$$$
OCSPWUFNIMEWIS-UHFFFAOYSA-N


 27 29  0  0  0  0  0  0  0  0999 V2000
    4.7867   23.7653   66.9305 C   0  0  0  0  0
    3.1605   25.6569   66.7805 C   0  0  0  0  0
    3.0747   27.1465   66.4578 C   0  0  0  0  0
    3.3312   28.7573   64.7744 C   0  0  0  0  0
    3.1397   28.8782   63.2715 C   0  0  0  0  0
    1.7141   27.9038   61.5135 C   0  0  0  0  0
    0.6482   26.9647   61.1440 C   0  0  0  0  0
    0.2606   26.7479   59.8157 C   0  0  0  0  0
    5.0684   27.2313   65.2125 C   0  0  0  0  0
    5.4180   25.8472   65.6665 C   0  0  0  0  0
    3.6826   22.8072   67.2526 C   0  0  0  0  0
    2.9123   22.1563   64.9879 C   0  0  0  0  0
    2.2672   21.4699   62.8180 C   0  0  0  0  0
    1.7005   22.7205   62.5767 C   0  0  0  0  0
    1.7601   23.6785   63.5866 C   0  0  0  0  0
    4.4946   25.1077   66.4976 N   0  0  0  0  0
    3.6184   27.3761   65.1263 N   0  0  0  0  0
   -0.0191   26.2389   62.0937 N   0  0  0  0  0
   -0.9509   25.4223   61.6180 N   0  0  0  0  0
    2.8598   21.2104   64.0130 N   0  0  0  0  0
    2.3600   23.3817   64.7684 N   0  0  0  0  0
    2.0696   28.0408   62.8556 O   0  0  0  0  0
    2.3073   28.5720   60.6224 O   0  0  0  0  0
    6.5166   25.3462   65.3072 O   0  0  0  0  0
    5.9785   23.3660   67.0218 O   0  0  0  0  0
    3.5325   21.8550   66.2043 O   0  0  0  0  0
   -0.9477   25.6042   59.9745 S   0  0  0  0  0
  1 16  1  0  0  0
  2 16  1  0  0  0
  2  3  1  0  0  0
  3 17  1  0  0  0
  4 17  1  0  0  0
  4  5  1  0  0  0
  5 22  1  0  0  0
  6 22  1  0  0  0
  6  7  1  0  0  0
  7 18  1  0  0  0
  8 27  1  0  0  0
  9 17  1  0  0  0
  9 10  1  0  0  0
 10 16  1  0  0  0
 11  1  1  0  0  0
 11 26  1  0  0  0
 12 26  1  0  0  0
 12 21  1  0  0  0
 13 20  1  0  0  0
 14 15  1  0  0  0
 19 27  1  0  0  0
  1 25  2  0  0  0
  6 23  2  0  0  0
  8  7  2  0  0  0
 10 24  2  0  0  0
 12 20  2  0  0  0
 13 14  2  0  0  0
 15 21  2  0  0  0
 18 19  2  0  0  0
M  END
> <rmsd>
0.542890847

$$$$
GUFNFTCBKZAAEH-UHFFFAOYSA-N


 31 33  0  0  0  0  0  0  0  0999 V2000
    4.5587   23.6529   66.1684 C   0  0  0  0  0
    5.3131   25.6793   64.8815 C   0  0  0  0  0
    4.9451   26.8475   64.0146 C   0  0  0  0  0
    2.7610   26.2820   64.0687 C   0  0  0  0  0
    1.3445   26.8209   64.0294 C   0  0  0  0  0
    0.3008   27.5155   61.9070 C   0  0  0  0  0
    0.2475   28.4663   60.7656 C   0  0  0  0  0
   -0.9529   28.7165   60.0558 C   0  0  0  0  0
   -2.2404   28.0655   60.4588 C   0  0  0  0  0
   -0.9557   29.6230   58.9800 C   0  0  0  0  0
    0.2367   30.2700   58.6287 C   0  0  0  0  0
    0.2871   31.2416   57.4993 C   0  0  0  0  0
    1.4175   29.1455   60.3656 C   0  0  0  0  0
    3.8317   29.5697   60.6546 C   0  0  0  0  0
    2.8703   25.2101   65.1544 C   0  0  0  0  0
    3.7013   22.4507   66.1444 C   0  0  0  0  0
    3.1341   20.3380   67.0529 C   0  0  0  0  0
    2.1397   20.1812   66.0905 C   0  0  0  0  0
    1.9561   21.1935   65.1519 C   0  0  0  0  0
    4.2673   24.8046   65.3522 N   0  0  0  0  0
    1.3739   30.0173   59.3219 N   0  0  0  0  0
    3.8953   21.4632   67.0618 N   0  0  0  0  0
    2.7378   22.3038   65.1936 N   0  0  0  0  0
    6.5269   25.4352   65.1145 O   0  0  0  0  0
    3.6638   27.3234   64.3488 O   0  0  0  0  0
    1.2097   27.7289   62.9459 O   0  0  0  0  0
   -0.4600   26.5092   61.9358 O   0  0  0  0  0
    2.6285   28.9135   61.0255 O   0  0  0  0  0
    5.5679   23.6617   66.9249 O   0  0  0  0  0
   -2.4424   29.9549   58.0834 Cl  0  0  0  0  0
    1.1455   18.7413   66.0583 Cl  0  0  0  0  0
  1 20  1  0  0  0
  1 16  1  0  0  0
  3  2  1  0  0  0
  3 25  1  0  0  0
  4 25  1  0  0  0
  4  5  1  0  0  0
  4 15  1  0  0  0
  5 26  1  0  0  0
  6 26  1  0  0  0
  6  7  1  0  0  0
  8 10  1  0  0  0
  9  8  1  0  0  0
 10 30  1  0  0  0
 11 21  1  0  0  0
 12 11  1  0  0  0
 13 28  1  0  0  0
 13  7  1  0  0  0
 14 28  1  0  0  0
 15 20  1  0  0  0
 16 23  1  0  0  0
 17 22  1  0  0  0
 18 31  1  0  0  0
 18 19  1  0  0  0
 20  2  1  0  0  0
  1 29  2  0  0  0
  2 24  2  0  0  0
  6 27  2  0  0  0
  7  8  2  0  0  0
 10 11  2  0  0  0
 13 21  2  0  0  0
 16 22  2  0  0  0
 17 18  2  0  0  0
 19 23  2  0  0  0
M  END
> <rmsd>
0.634241283

$$$$
YCUZREDEQOVHKO-UHFFFAOYSA-N


 35 38  0  0  0  0  0  0  0  0999 V2000
    4.5275   24.0314   66.8504 C   0  0  0  0  0
    5.4646   25.9235   65.4675 C   0  0  0  0  0
    5.2187   27.1134   64.5665 C   0  0  0  0  0
    6.0247   26.9479   63.2818 C   0  0  0  0  0
    3.5801   28.5783   63.6580 C   0  0  0  0  0
    3.0808   28.4460   62.2563 C   0  0  0  0  0
    2.4909   27.6536   60.4304 C   0  0  0  0  0
    2.1979   26.6946   59.3326 C   0  0  0  0  0
    3.0366   27.2604   65.4941 C   0  0  0  0  0
    3.0115   25.8480   66.0524 C   0  0  0  0  0
    3.3500   23.1491   67.1314 C   0  0  0  0  0
    1.9470   22.4400   63.8062 C   0  0  0  0  0
    1.2005   23.1984   62.7809 C   0  0  0  0  0
    0.7952   24.5150   63.0392 C   0  0  0  0  0
    0.0915   25.2569   62.0774 C   0  0  0  0  0
   -0.0719   27.2262   63.5677 C   0  0  0  0  0
   -0.2098   24.6733   60.8386 C   0  0  0  0  0
   -1.2298   24.9130   58.5973 C   0  0  0  0  0
    0.1961   23.3555   60.5761 C   0  0  0  0  0
    0.8942   22.6249   61.5390 C   0  0  0  0  0
    2.3324   21.1139   63.5921 C   0  0  0  0  0
    3.0523   20.4450   64.5775 C   0  0  0  0  0
    3.3799   21.1125   65.7558 C   0  0  0  0  0
    4.3634   25.2878   66.1591 N   0  0  0  0  0
    3.7910   27.2625   64.2486 N   0  0  0  0  0
    2.3252   28.9848   60.3328 N   0  0  0  0  0
    2.7040   29.4903   61.4965 N   0  0  0  0  0
    2.9853   22.4093   65.9281 N   0  0  0  0  0
    2.2898   23.0405   64.9782 N   0  0  0  0  0
    6.6496   25.5334   65.6557 O   0  0  0  0  0
    2.9516   27.3124   61.6080 O   0  0  0  0  0
    5.6719   23.6256   67.1868 O   0  0  0  0  0
   -0.3171   26.5701   62.3315 O   0  0  0  0  0
   -0.9127   25.4188   59.8855 O   0  0  0  0  0
    4.0430   20.5134   66.6456 O   0  0  0  0  0
  1 24  1  0  0  0
  3  2  1  0  0  0
  3  4  1  0  0  0
  3 25  1  0  0  0
  5 25  1  0  0  0
  5  6  1  0  0  0
  6 31  1  0  0  0
  7 31  1  0  0  0
  8  7  1  0  0  0
  9 25  1  0  0  0
  9 10  1  0  0  0
 10 24  1  0  0  0
 11  1  1  0  0  0
 11 28  1  0  0  0
 12 13  1  0  0  0
 12 21  1  0  0  0
 14 15  1  0  0  0
 15 33  1  0  0  0
 16 33  1  0  0  0
 17 34  1  0  0  0
 17 19  1  0  0  0
 18 34  1  0  0  0
 20 13  1  0  0  0
 22 23  1  0  0  0
 23 28  1  0  0  0
 24  2  1  0  0  0
 26 27  1  0  0  0
 28 29  1  0  0  0
  1 32  2  0  0  0
  2 30  2  0  0  0
  6 27  2  0  0  0
  7 26  2  0  0  0
 12 29  2  0  0  0
 13 14  2  0  0  0
 15 17  2  0  0  0
 19 20  2  0  0  0
 21 22  2  0  0  0
 23 35  2  0  0  0
M  END
> <rmsd>
0.641732037

$$$$
BFMKXXWMYPUAQH-UHFFFAOYSA-N


 35 39  0  0  0  0  0  0  0  0999 V2000
    2.7163   28.3820   61.6385 C   0  0  0  0  0
    1.1636   26.5940   62.4438 C   0  0  0  0  0
    1.0381   25.1941   62.9496 C   0  0  0  0  0
    2.7587   23.5303   62.6407 C   0  0  0  0  0
    2.2957   22.4207   63.6032 C   0  0  0  0  0
    1.8372   22.9698   64.9509 C   0  0  0  0  0
    3.9574   22.8032   66.2167 C   0  0  0  0  0
    4.9221   20.7047   66.7550 C   0  0  0  0  0
    6.0037   21.3551   67.3515 C   0  0  0  0  0
    5.0398   23.4508   66.8151 C   0  0  0  0  0
    1.2249   21.5417   62.9681 C   0  0  0  0  0
    0.0906   22.3913   62.4197 C   0  0  0  0  0
    0.6517   23.3894   61.4093 C   0  0  0  0  0
    3.3344   26.9565   63.5988 C   0  0  0  0  0
    4.6931   26.7797   63.4706 C   0  0  0  0  0
    5.0962   26.4230   64.7196 C   0  0  0  0  0
    7.3179   26.2134   64.0113 C   0  0  0  0  0
    6.9336   26.5680   62.6952 C   0  0  0  0  0
    5.5865   26.8561   62.4085 C   0  0  0  0  0
    3.6724   29.4833   62.0258 C   0  0  0  0  0
    3.4748   30.7388   61.1835 C   0  0  0  0  0
    2.9643   31.4693   62.4047 C   0  0  0  0  0
    3.1584   30.2305   63.2496 C   0  0  0  0  0
    2.4079   27.3128   62.5575 N   0  0  0  0  0
    1.6612   24.2762   62.0018 N   0  0  0  0  0
    3.9235   21.4414   66.2003 N   0  0  0  0  0
    6.0391   22.7137   67.3681 N   0  0  0  0  0
    6.3893   26.1416   65.0139 N   0  0  0  0  0
    2.9770   26.6986   64.8815 N   0  0  0  0  0
    2.9281   23.5587   65.6502 O   0  0  0  0  0
    0.1746   27.1187   61.8656 O   0  0  0  0  0
    4.0686   26.3855   65.5313 O   0  0  0  0  0
    2.2083   28.3778   60.4827 O   0  0  0  0  0
    3.7889   32.5117   62.7864 F   0  0  0  0  0
    1.6355   31.8338   62.2921 F   0  0  0  0  0
  1 24  1  0  0  0
  3  2  1  0  0  0
  3 25  1  0  0  0
  4 25  1  0  0  0
  4  5  1  0  0  0
  5  6  1  0  0  0
  5 11  1  0  0  0
  6 30  1  0  0  0
  7 30  1  0  0  0
  8 26  1  0  0  0
  9 27  1  0  0  0
 10  7  1  0  0  0
 11 12  1  0  0  0
 12 13  1  0  0  0
 13 25  1  0  0  0
 14 15  1  0  0  0
 15 16  1  0  0  0
 16 32  1  0  0  0
 17 28  1  0  0  0
 18 19  1  0  0  0
 20  1  1  0  0  0
 20 21  1  0  0  0
 21 22  1  0  0  0
 22 34  1  0  0  0
 22 35  1  0  0  0
 22 23  1  0  0  0
 23 20  1  0  0  0
 24  2  1  0  0  0
 24 14  1  0  0  0
 32 29  1  0  0  0
  1 33  2  0  0  0
  2 31  2  0  0  0
  7 26  2  0  0  0
  8  9  2  0  0  0
 10 27  2  0  0  0
 14 29  2  0  0  0
 16 28  2  0  0  0
 17 18  2  0  0  0
 19 15  2  0  0  0
M  END
> <rmsd>
0.627046764

$$$$
HLUWDUJJEARRQS-UHFFFAOYSA-N


 33 36  0  0  0  0  0  0  0  0999 V2000
    1.7575   25.3869   65.4204 O   0  0  0  0  0
    1.9594   23.0966   65.3897 O   0  0  0  0  0
    4.0239   22.0218   66.6532 O   0  0  0  0  0
    4.0616   26.5909   64.9529 O   0  0  0  0  0
    2.2481   29.1651   60.1847 O   0  0  0  0  0
    2.5174   24.2202   65.5260 C   0  0  0  0  0
    3.9762   24.3045   65.7959 C   0  0  0  0  0
    4.6862   23.2126   66.3400 C   0  0  0  0  0
    4.7000   20.9022   67.2061 C   0  0  0  0  0
    6.6940   24.4682   66.2967 C   0  0  0  0  0
    4.7013   25.4813   65.5134 C   0  0  0  0  0
    4.7578   27.7887   64.6420 C   0  0  0  0  0
    0.3754   25.3599   65.0940 C   0  0  0  0  0
   -0.1695   26.7780   65.0302 C   0  0  0  0  0
    0.5770   27.3527   62.7041 C   0  0  0  0  0
    1.3424   28.3019   62.1191 C   0  0  0  0  0
    1.5352   28.2882   60.7452 C   0  0  0  0  0
    0.1554   26.3409   60.6467 C   0  0  0  0  0
    1.0965   27.2062   58.5774 C   0  0  0  0  0
    2.3171   26.3614   58.2449 C   0  0  0  0  0
    2.5089   26.2764   56.7696 C   0  0  0  0  0
    1.5801   25.5993   55.9683 C   0  0  0  0  0
    1.7785   25.5120   54.5870 C   0  0  0  0  0
    2.9073   26.0967   54.0047 C   0  0  0  0  0
    3.8387   26.7669   54.8036 C   0  0  0  0  0
    3.6408   26.8546   56.1851 C   0  0  0  0  0
    1.7854   29.1272   63.1375 C   0  0  0  0  0
    6.0222   23.3250   66.5740 N   0  0  0  0  0
    6.0364   25.5306   65.7729 N   0  0  0  0  0
    0.5406   27.5589   64.0260 N   0  0  0  0  0
    0.9260   27.2920   60.0214 N   0  0  0  0  0
   -0.0266   26.3651   62.0014 N   0  0  0  0  0
    1.2682   28.6368   64.2972 N   0  0  0  0  0
  6  1  1  0  0  0
  6  7  1  0  0  0
  8  3  1  0  0  0
  8 28  1  0  0  0
  9  3  1  0  0  0
 10 29  1  0  0  0
 11  4  1  0  0  0
 11  7  1  0  0  0
 12  4  1  0  0  0
 13  1  1  0  0  0
 13 14  1  0  0  0
 14 30  1  0  0  0
 15 32  1  0  0  0
 16 17  1  0  0  0
 16 27  1  0  0  0
 17 31  1  0  0  0
 19 31  1  0  0  0
 19 20  1  0  0  0
 20 21  1  0  0  0
 22 23  1  0  0  0
 24 25  1  0  0  0
 26 21  1  0  0  0
 30 15  1  0  0  0
 30 33  1  0  0  0
 31 18  1  0  0  0
  6  2  2  0  0  0
  7  8  2  0  0  0
 10 28  2  0  0  0
 11 29  2  0  0  0
 15 16  2  0  0  0
 17  5  2  0  0  0
 18 32  2  0  0  0
 21 22  2  0  0  0
 23 24  2  0  0  0
 25 26  2  0  0  0
 27 33  2  0  0  0
M  END
> <rmsd>
0.549507797

$$$$
BGIQPIOPSCQNMO-UHFFFAOYSA-N


 34 37  0  0  0  0  0  0  0  0999 V2000
    2.6435   23.5153   66.3939 C   0  0  0  0  0
    4.4516   25.1404   65.8428 C   0  0  0  0  0
    3.4765   26.2716   65.7493 C   0  0  0  0  0
    1.7026   26.7034   64.2877 C   0  0  0  0  0
    1.3042   27.0736   62.8945 C   0  0  0  0  0
    1.6866   28.6355   60.9478 C   0  0  0  0  0
   -0.0866   29.2812   59.5123 C   0  0  0  0  0
    0.8120   29.9491   58.6855 C   0  0  0  0  0
    2.1611   29.9448   59.0284 C   0  0  0  0  0
    3.5601   28.0895   62.5166 C   0  0  0  0  0
    3.7672   27.8091   64.0061 C   0  0  0  0  0
    5.0211   22.8558   66.7177 C   0  0  0  0  0
    7.0487   22.1272   67.3940 C   0  0  0  0  0
    8.4613   22.1805   67.7996 C   0  0  0  0  0
    9.1346   23.4093   67.8438 C   0  0  0  0  0
   10.4773   23.4648   68.2289 C   0  0  0  0  0
   11.1550   22.2917   68.5720 C   0  0  0  0  0
   10.4902   21.0631   68.5304 C   0  0  0  0  0
    9.1475   21.0078   68.1455 C   0  0  0  0  0
    2.0068   23.0419   67.6324 C   0  0  0  0  0
    2.6516   22.9991   68.7913 C   0  0  0  0  0
    1.9578   22.5089   70.0102 C   0  0  0  0  0
    4.0442   23.8473   66.3393 N   0  0  0  0  0
    3.1504   26.5318   64.3572 N   0  0  0  0  0
    2.1473   27.9666   62.1381 N   0  0  0  0  0
    0.3635   28.6407   60.6226 N   0  0  0  0  0
    2.5720   29.2941   60.1477 N   0  0  0  0  0
    4.6988   21.5314   66.7791 N   0  0  0  0  0
    6.3051   23.2016   67.0537 N   0  0  0  0  0
    0.2584   26.5787   62.3965 O   0  0  0  0  0
    5.6391   25.3381   65.4689 O   0  0  0  0  0
    1.9336   23.6378   65.3606 O   0  0  0  0  0
    0.3823   30.5915   57.5732 F   0  0  0  0  0
    6.0909   20.7732   67.2721 S   0  0  0  0  0
  1 23  1  0  0  0
  1 20  1  0  0  0
  3  2  1  0  0  0
  3 24  1  0  0  0
  4 24  1  0  0  0
  4  5  1  0  0  0
  5 25  1  0  0  0
  6 27  1  0  0  0
  7 26  1  0  0  0
  8 33  1  0  0  0
  8  9  1  0  0  0
 10 25  1  0  0  0
 10 11  1  0  0  0
 11 24  1  0  0  0
 12 29  1  0  0  0
 13 34  1  0  0  0
 13 14  1  0  0  0
 15 16  1  0  0  0
 17 18  1  0  0  0
 19 14  1  0  0  0
 22 21  1  0  0  0
 23  2  1  0  0  0
 23 12  1  0  0  0
 25  6  1  0  0  0
 28 34  1  0  0  0
  1 32  2  0  0  0
  2 31  2  0  0  0
  5 30  2  0  0  0
  6 26  2  0  0  0
  7  8  2  0  0  0
  9 27  2  0  0  0
 12 28  2  0  0  0
 13 29  2  0  0  0
 14 15  2  0  0  0
 16 17  2  0  0  0
 18 19  2  0  0  0
 20 21  2  0  0  0
M  END
> <rmsd>
0.64777416

$$$$
QHYUIYMGYSPDQC-UHFFFAOYSA-N


 36 40  0  0  0  0  0  0  0  0999 V2000
    4.5928   23.5294   66.3153 C   0  0  0  0  0
    5.4318   25.5272   65.0353 C   0  0  0  0  0
    5.1139   26.7193   64.1796 C   0  0  0  0  0
    2.9262   26.1962   64.1368 C   0  0  0  0  0
    1.5191   26.7562   64.0426 C   0  0  0  0  0
    0.6800   27.6747   61.9190 C   0  0  0  0  0
    0.5877   28.8167   60.9541 C   0  0  0  0  0
    1.7712   30.1709   59.3796 C   0  0  0  0  0
    2.5913   30.1154   61.6144 C   0  0  0  0  0
    1.6827   30.9842   62.4435 C   0  0  0  0  0
    0.2828   30.8541   62.3932 C   0  0  0  0  0
   -0.5221   31.6599   63.2053 C   0  0  0  0  0
    0.0602   32.5810   64.0809 C   0  0  0  0  0
    1.4516   32.7013   64.1427 C   0  0  0  0  0
    2.2599   31.9021   63.3285 C   0  0  0  0  0
   -0.3732   29.9043   61.4470 C   0  0  0  0  0
    2.9738   25.1018   65.2042 C   0  0  0  0  0
    3.6785   22.3656   66.3302 C   0  0  0  0  0
    1.8439   21.1798   65.4194 C   0  0  0  0  0
    2.0233   20.1604   66.3507 C   0  0  0  0  0
    3.0651   20.2743   67.2777 C   0  0  0  0  0
    2.3462   18.1436   68.4351 C   0  0  0  0  0
    3.0942   16.8748   68.8448 C   0  0  0  0  0
    4.9611   17.9628   69.4921 C   0  0  0  0  0
    4.4186   19.3547   69.1854 C   0  0  0  0  0
    4.3532   24.6773   65.4740 N   0  0  0  0  0
    1.9120   29.3350   60.5649 N   0  0  0  0  0
    2.6711   22.2571   65.4234 N   0  0  0  0  0
    3.3041   19.2364   68.2454 N   0  0  0  0  0
    3.8702   21.3700   67.2389 N   0  0  0  0  0
    6.6325   25.2413   65.2810 O   0  0  0  0  0
    3.8305   27.2138   64.4770 O   0  0  0  0  0
    1.4673   27.7819   63.0628 O   0  0  0  0  0
    0.0005   26.6369   61.7052 O   0  0  0  0  0
    5.6089   23.5054   67.0640 O   0  0  0  0  0
    3.9202   17.1383   69.9539 O   0  0  0  0  0
  1 26  1  0  0  0
  1 18  1  0  0  0
  3  2  1  0  0  0
  3 32  1  0  0  0
  4 32  1  0  0  0
  4  5  1  0  0  0
  4 17  1  0  0  0
  5 33  1  0  0  0
  6 33  1  0  0  0
  7  6  1  0  0  0
  7 27  1  0  0  0
  8 27  1  0  0  0
  9 27  1  0  0  0
  9 10  1  0  0  0
 11 12  1  0  0  0
 13 14  1  0  0  0
 15 10  1  0  0  0
 16 11  1  0  0  0
 16  7  1  0  0  0
 17 26  1  0  0  0
 18 30  1  0  0  0
 19 28  1  0  0  0
 20 21  1  0  0  0
 21 29  1  0  0  0
 22 29  1  0  0  0
 22 23  1  0  0  0
 23 36  1  0  0  0
 24 36  1  0  0  0
 24 25  1  0  0  0
 25 29  1  0  0  0
 26  2  1  0  0  0
  1 35  2  0  0  0
  2 31  2  0  0  0
  6 34  2  0  0  0
 10 11  2  0  0  0
 12 13  2  0  0  0
 14 15  2  0  0  0
 18 28  2  0  0  0
 19 20  2  0  0  0
 21 30  2  0  0  0
M  END
> <rmsd>
0.700158894

$$$$
QTZLORQGNLNHNK-UHFFFAOYSA-N


 35 38  0  0  0  0  0  0  0  0999 V2000
    4.4752   23.5957   66.3237 C   0  0  0  0  0
    2.7783   25.2488   65.4654 C   0  0  0  0  0
    2.6129   26.7646   65.3854 C   0  0  0  0  0
    3.2812   28.7285   64.3170 C   0  0  0  0  0
    3.1028   29.0988   62.8554 C   0  0  0  0  0
    1.6184   28.5163   60.9748 C   0  0  0  0  0
    0.5632   27.6486   60.4078 C   0  0  0  0  0
   -0.0040   26.5724   61.1248 C   0  0  0  0  0
   -0.0630   25.1686   63.1647 C   0  0  0  0  0
    0.6198   23.8966   62.6994 C   0  0  0  0  0
   -1.4210   26.0474   59.2813 C   0  0  0  0  0
   -0.8844   27.0953   58.5384 C   0  0  0  0  0
    0.1082   27.8927   59.1065 C   0  0  0  0  0
    4.9034   27.2079   65.0471 C   0  0  0  0  0
    5.2286   25.7754   65.3363 C   0  0  0  0  0
    3.5855   22.4251   66.1770 C   0  0  0  0  0
    1.8063   21.3199   65.0757 C   0  0  0  0  0
    1.9600   20.2145   65.9092 C   0  0  0  0  0
    2.9628   20.2433   66.8860 C   0  0  0  0  0
    2.1976   18.0269   67.8128 C   0  0  0  0  0
    2.8954   16.7412   68.2544 C   0  0  0  0  0
    4.6889   17.7781   69.1269 C   0  0  0  0  0
    4.2068   19.1901   68.7938 C   0  0  0  0  0
    4.1735   24.8697   65.7193 N   0  0  0  0  0
    3.5805   27.3117   64.4407 N   0  0  0  0  0
   -0.9753   25.8116   60.5413 N   0  0  0  0  0
    2.6181   22.3990   65.2209 N   0  0  0  0  0
    3.1680   19.1239   67.7637 N   0  0  0  0  0
    3.7547   21.3462   66.9899 N   0  0  0  0  0
    2.0302   28.3527   62.2985 O   0  0  0  0  0
    2.1458   29.4117   60.2578 O   0  0  0  0  0
    0.4224   26.2811   62.4256 O   0  0  0  0  0
    6.4214   25.3803   65.2406 O   0  0  0  0  0
    5.5221   23.4708   67.0147 O   0  0  0  0  0
    3.5904   16.9651   69.4551 O   0  0  0  0  0
  1 24  1  0  0  0
  1 16  1  0  0  0
  2 24  1  0  0  0
  2  3  1  0  0  0
  3 25  1  0  0  0
  4 25  1  0  0  0
  4  5  1  0  0  0
  5 30  1  0  0  0
  6 30  1  0  0  0
  6  7  1  0  0  0
  8 32  1  0  0  0
  8 26  1  0  0  0
  9 32  1  0  0  0
  9 10  1  0  0  0
 11 12  1  0  0  0
 13  7  1  0  0  0
 14 25  1  0  0  0
 14 15  1  0  0  0
 15 24  1  0  0  0
 16 29  1  0  0  0
 17 27  1  0  0  0
 18 19  1  0  0  0
 19 28  1  0  0  0
 20 28  1  0  0  0
 20 21  1  0  0  0
 21 35  1  0  0  0
 22 35  1  0  0  0
 22 23  1  0  0  0
 23 28  1  0  0  0
  1 34  2  0  0  0
  6 31  2  0  0  0
  7  8  2  0  0  0
 11 26  2  0  0  0
 12 13  2  0  0  0
 15 33  2  0  0  0
 16 27  2  0  0  0
 17 18  2  0  0  0
 19 29  2  0  0  0
M  END
> <rmsd>
0.646363676

$$$$
KRORLOLVBBOKSB-UHFFFAOYSA-N


 35 39  0  0  0  0  0  0  0  0999 V2000
    4.0718   23.7280   64.8181 C   0  0  0  0  0
    5.5978   25.7010   64.4753 C   0  0  0  0  0
    5.9603   26.7927   63.5199 C   0  0  0  0  0
    5.3357   25.9336   61.4110 C   0  0  0  0  0
    5.6180   27.0917   60.4768 C   0  0  0  0  0
    4.5440   28.1413   60.6032 C   0  0  0  0  0
    4.8490   29.4767   60.8927 C   0  0  0  0  0
    2.5626   30.0571   60.7525 C   0  0  0  0  0
    3.2048   27.8157   60.3629 C   0  0  0  0  0
    6.7904   27.3538   61.4051 C   0  0  0  0  0
    3.1668   25.9231   64.0436 C   0  0  0  0  0
    2.1417   25.5705   63.1932 C   0  0  0  0  0
    1.3853   26.6978   63.1056 C   0  0  0  0  0
   -0.1020   25.6622   61.6240 C   0  0  0  0  0
    0.6715   24.4767   61.6736 C   0  0  0  0  0
    1.8276   24.4243   62.4726 C   0  0  0  0  0
    5.2160   22.7559   64.8961 C   0  0  0  0  0
    5.4308   22.1795   66.3043 C   0  0  0  0  0
    6.7343   21.3648   66.3112 C   0  0  0  0  0
    4.6884   22.9071   68.2821 C   0  0  0  0  0
    3.7490   21.8765   67.7515 C   0  0  0  0  0
    4.2839   25.1062   64.4422 N   0  0  0  0  0
    6.4725   26.2306   62.2754 N   0  0  0  0  0
    3.8583   30.4039   60.9686 N   0  0  0  0  0
    2.2430   28.7720   60.4473 N   0  0  0  0  0
    0.2676   26.7664   62.3422 N   0  0  0  0  0
    3.0015   27.2190   64.4110 N   0  0  0  0  0
    6.4707   25.2890   65.2840 O   0  0  0  0  0
    1.9115   27.6521   63.8317 O   0  0  0  0  0
    2.9056   23.3128   65.0569 O   0  0  0  0  0
    5.5416   23.2369   67.2345 O   0  0  0  0  0
    4.3562   21.3241   66.6258 O   0  0  0  0  0
    6.6734   20.3542   65.3671 F   0  0  0  0  0
    7.8123   22.1849   66.0247 F   0  0  0  0  0
    6.9281   20.7957   67.5560 F   0  0  0  0  0
  1 22  1  0  0  0
  3  2  1  0  0  0
  3 23  1  0  0  0
  4 23  1  0  0  0
  4  5  1  0  0  0
  5  6  1  0  0  0
  5 10  1  0  0  0
  7 24  1  0  0  0
  8 25  1  0  0  0
  9  6  1  0  0  0
 10 23  1  0  0  0
 11 12  1  0  0  0
 12 13  1  0  0  0
 13 29  1  0  0  0
 14 26  1  0  0  0
 15 16  1  0  0  0
 17  1  1  0  0  0
 17 18  1  0  0  0
 18 19  1  0  0  0
 18 31  1  0  0  0
 18 32  1  0  0  0
 19 33  1  0  0  0
 19 34  1  0  0  0
 19 35  1  0  0  0
 20 31  1  0  0  0
 20 21  1  0  0  0
 21 32  1  0  0  0
 22  2  1  0  0  0
 22 11  1  0  0  0
 29 27  1  0  0  0
  1 30  2  0  0  0
  2 28  2  0  0  0
  6  7  2  0  0  0
  8 24  2  0  0  0
  9 25  2  0  0  0
 11 27  2  0  0  0
 13 26  2  0  0  0
 14 15  2  0  0  0
 16 12  2  0  0  0
M  END
> <rmsd>
0.57200247

$$$$
KHDMXLOQASRZKG-UHFFFAOYSA-N


 25 27  0  0  0  0  0  0  0  0999 V2000
    4.4765   23.6214   66.1402 C   0  0  0  0  0
    5.0288   25.7760   64.9637 C   0  0  0  0  0
    4.5348   27.0262   64.2972 C   0  0  0  0  0
    2.3845   26.4443   64.6557 C   0  0  0  0  0
    0.9833   26.9768   64.9067 C   0  0  0  0  0
    0.4529   27.7522   62.6182 C   0  0  0  0  0
    0.2400   28.8917   61.6835 C   0  0  0  0  0
    1.5571   29.5922   61.3943 C   0  0  0  0  0
    3.2071   29.6517   59.9009 C   0  0  0  0  0
    2.4255   30.9172   59.6342 C   0  0  0  0  0
    1.2998   30.8636   60.6223 C   0  0  0  0  0
    2.6606   25.2656   65.5904 C   0  0  0  0  0
    3.6143   22.4225   66.1332 C   0  0  0  0  0
    3.1829   20.2221   66.8956 C   0  0  0  0  0
    2.0401   20.1575   66.1010 C   0  0  0  0  0
    1.7157   21.2642   65.3191 C   0  0  0  0  0
    4.0662   24.8503   65.5089 N   0  0  0  0  0
    3.9471   21.3453   66.8963 N   0  0  0  0  0
    2.5048   22.3696   65.3463 N   0  0  0  0  0
    6.2615   25.5162   64.9638 O   0  0  0  0  0
    3.3326   27.4565   64.8884 O   0  0  0  0  0
    0.6656   28.0056   63.9758 O   0  0  0  0  0
    0.4626   26.5741   62.1699 O   0  0  0  0  0
    2.3899   28.7689   60.6212 O   0  0  0  0  0
    5.5973   23.5576   66.7153 O   0  0  0  0  0
  1 17  1  0  0  0
  1 13  1  0  0  0
  3  2  1  0  0  0
  3 21  1  0  0  0
  4 21  1  0  0  0
  4  5  1  0  0  0
  4 12  1  0  0  0
  5 22  1  0  0  0
  6 22  1  0  0  0
  7  6  1  0  0  0
  7  8  1  0  0  0
  8 24  1  0  0  0
  9 24  1  0  0  0
  9 10  1  0  0  0
 10 11  1  0  0  0
 11  8  1  0  0  0
 12 17  1  0  0  0
 13 19  1  0  0  0
 14 18  1  0  0  0
 15 16  1  0  0  0
 17  2  1  0  0  0
  1 25  2  0  0  0
  2 20  2  0  0  0
  6 23  2  0  0  0
 13 18  2  0  0  0
 14 15  2  0  0  0
 16 19  2  0  0  0
M  END
> <rmsd>
0.613911271

$$$$
XAAYRDUQJNTZFF-UHFFFAOYSA-N


 25 27  0  0  0  0  0  0  0  0999 V2000
    2.6157   24.2611   65.0192 C   0  0  0  0  0
    0.7305   25.1965   63.5372 C   0  0  0  0  0
    0.3751   26.1120   62.5212 C   0  0  0  0  0
    0.9113   28.2331   61.3046 C   0  0  0  0  0
    2.0869   29.2087   61.2494 C   0  0  0  0  0
    3.6655   27.6164   61.4610 C   0  0  0  0  0
    2.6699   26.4596   61.5434 C   0  0  0  0  0
   -1.8988   25.4017   62.6477 C   0  0  0  0  0
   -1.5848   24.4771   63.6406 C   0  0  0  0  0
   -0.2684   24.3817   64.0859 C   0  0  0  0  0
    4.0272   24.4074   65.4606 C   0  0  0  0  0
    4.7530   23.3043   65.9578 C   0  0  0  0  0
    4.8538   20.9041   66.5208 C   0  0  0  0  0
    6.6587   24.6735   66.2784 C   0  0  0  0  0
    4.6889   25.6525   65.3995 C   0  0  0  0  0
    4.6429   28.0641   64.8790 C   0  0  0  0  0
    2.0785   25.1522   64.0306 N   0  0  0  0  0
    1.3507   26.9769   61.9128 N   0  0  0  0  0
   -0.9263   26.1903   62.1199 N   0  0  0  0  0
    6.0452   23.4678   66.3523 N   0  0  0  0  0
    5.9839   25.7495   65.8067 N   0  0  0  0  0
    3.1751   28.6075   60.5929 O   0  0  0  0  0
    1.8978   23.3444   65.5028 O   0  0  0  0  0
    4.1578   22.0412   66.0325 O   0  0  0  0  0
    4.0180   26.7908   64.9425 O   0  0  0  0  0
  1 17  1  0  0  0
  1 11  1  0  0  0
  2  3  1  0  0  0
  3 18  1  0  0  0
  4 18  1  0  0  0
  4  5  1  0  0  0
  5 22  1  0  0  0
  6 22  1  0  0  0
  6  7  1  0  0  0
  7 18  1  0  0  0
  8 19  1  0  0  0
  9 10  1  0  0  0
 12 24  1  0  0  0
 12 20  1  0  0  0
 13 24  1  0  0  0
 14 21  1  0  0  0
 15 25  1  0  0  0
 15 11  1  0  0  0
 16 25  1  0  0  0
 17  2  1  0  0  0
  1 23  2  0  0  0
  3 19  2  0  0  0
  8  9  2  0  0  0
 10  2  2  0  0  0
 11 12  2  0  0  0
 14 20  2  0  0  0
 15 21  2  0  0  0
M  END
> <rmsd>
0.710359395

$$$$
XAAYRDUQJNTZFF-UHFFFAOYSA-N


 25 27  0  0  0  0  0  0  0  0999 V2000
    2.6157   24.2612   65.0191 C   0  0  0  0  0
    0.7305   25.1964   63.5371 C   0  0  0  0  0
    0.3751   26.1119   62.5212 C   0  0  0  0  0
    2.6699   26.4594   61.5433 C   0  0  0  0  0
    3.6656   27.6162   61.4609 C   0  0  0  0  0
    2.0870   29.2086   61.2492 C   0  0  0  0  0
    0.9114   28.2331   61.3044 C   0  0  0  0  0
   -1.8988   25.4016   62.6477 C   0  0  0  0  0
   -1.5848   24.4771   63.6406 C   0  0  0  0  0
   -0.2684   24.3817   64.0858 C   0  0  0  0  0
    4.0272   24.4073   65.4605 C   0  0  0  0  0
    4.6890   25.6524   65.3994 C   0  0  0  0  0
    4.6430   28.0640   64.8788 C   0  0  0  0  0
    6.6588   24.6733   66.2782 C   0  0  0  0  0
    4.7530   23.3042   65.9578 C   0  0  0  0  0
    4.8538   20.9040   66.5208 C   0  0  0  0  0
    2.0785   25.1522   64.0305 N   0  0  0  0  0
    1.3507   26.9767   61.9126 N   0  0  0  0  0
   -0.9263   26.1902   62.1198 N   0  0  0  0  0
    5.9840   25.7494   65.8065 N   0  0  0  0  0
    6.0452   23.4677   66.3522 N   0  0  0  0  0
    3.1751   28.6073   60.5927 O   0  0  0  0  0
    1.8978   23.3444   65.5027 O   0  0  0  0  0
    4.0181   26.7907   64.9423 O   0  0  0  0  0
    4.1578   22.0412   66.0324 O   0  0  0  0  0
  1 17  1  0  0  0
  1 11  1  0  0  0
  2  3  1  0  0  0
  3 18  1  0  0  0
  4 18  1  0  0  0
  4  5  1  0  0  0
  5 22  1  0  0  0
  6 22  1  0  0  0
  6  7  1  0  0  0
  7 18  1  0  0  0
  8 19  1  0  0  0
  9 10  1  0  0  0
 12 24  1  0  0  0
 12 20  1  0  0  0
 13 24  1  0  0  0
 14 21  1  0  0  0
 15 25  1  0  0  0
 15 11  1  0  0  0
 16 25  1  0  0  0
 17  2  1  0  0  0
  1 23  2  0  0  0
  3 19  2  0  0  0
  8  9  2  0  0  0
 10  2  2  0  0  0
 11 12  2  0  0  0
 14 20  2  0  0  0
 15 21  2  0  0  0
M  END
> <rmsd>
0.710352063

$$$$
GQHUVCHHIVDZMR-UHFFFAOYSA-N


 31 34  0  0  0  0  0  0  0  0999 V2000
    4.5986   23.5468   66.2142 C   0  0  0  0  0
    5.4379   25.7071   65.2193 C   0  0  0  0  0
    5.1295   26.9582   64.4444 C   0  0  0  0  0
    2.9506   26.4006   64.2986 C   0  0  0  0  0
    1.5395   26.9414   64.2045 C   0  0  0  0  0
    0.6765   27.7655   62.0559 C   0  0  0  0  0
    0.6953   28.8076   60.9935 C   0  0  0  0  0
    2.5339   30.0437   60.9070 C   0  0  0  0  0
    3.9575   29.8155   61.2995 C   0  0  0  0  0
    6.2554   29.9812   62.0697 C   0  0  0  0  0
    5.8857   28.7322   61.5990 C   0  0  0  0  0
    6.8044   27.6844   61.5837 C   0  0  0  0  0
    8.1046   27.9274   62.0560 C   0  0  0  0  0
    8.4679   29.2021   62.5330 C   0  0  0  0  0
    7.5362   30.2492   62.5432 C   0  0  0  0  0
    2.9867   25.2450   65.2998 C   0  0  0  0  0
    3.6869   22.3934   66.0555 C   0  0  0  0  0
    2.9815   20.2416   66.7562 C   0  0  0  0  0
    2.0033   20.2267   65.7628 C   0  0  0  0  0
    1.9021   21.3304   64.9163 C   0  0  0  0  0
    4.3635   24.7959   65.5285 N   0  0  0  0  0
    4.6030   28.6318   61.1696 N   0  0  0  0  0
    3.8034   21.3168   66.8834 N   0  0  0  0  0
    2.7424   22.3865   65.0745 N   0  0  0  0  0
    6.6326   25.4351   65.5118 O   0  0  0  0  0
    3.8298   27.4099   64.7248 O   0  0  0  0  0
    1.4759   27.9246   63.1847 O   0  0  0  0  0
   -0.0446   26.7457   61.9147 O   0  0  0  0  0
    1.9652   28.8668   60.4165 O   0  0  0  0  0
    5.6012   23.4250   66.9730 O   0  0  0  0  0
    4.9482   31.0208   61.9524 S   0  0  0  0  0
  1 21  1  0  0  0
  1 17  1  0  0  0
  3  2  1  0  0  0
  3 26  1  0  0  0
  4 26  1  0  0  0
  4  5  1  0  0  0
  4 16  1  0  0  0
  5 27  1  0  0  0
  6 27  1  0  0  0
  7  6  1  0  0  0
  7 29  1  0  0  0
  8 29  1  0  0  0
  8  9  1  0  0  0
  9 31  1  0  0  0
 10 31  1  0  0  0
 11 12  1  0  0  0
 11 22  1  0  0  0
 13 14  1  0  0  0
 15 10  1  0  0  0
 16 21  1  0  0  0
 17 24  1  0  0  0
 18 23  1  0  0  0
 19 20  1  0  0  0
 21  2  1  0  0  0
  1 30  2  0  0  0
  2 25  2  0  0  0
  6 28  2  0  0  0
  9 22  2  0  0  0
 10 11  2  0  0  0
 12 13  2  0  0  0
 14 15  2  0  0  0
 17 23  2  0  0  0
 18 19  2  0  0  0
 20 24  2  0  0  0
M  END
> <rmsd>
0.622885764

$$$$
QMZHNJGGKXLEPG-UHFFFAOYSA-N


 33 36  0  0  0  0  0  0  0  0999 V2000
    2.5493   24.1803   65.4958 C   0  0  0  0  0
    0.3438   25.3237   65.0406 C   0  0  0  0  0
   -0.2189   26.7364   65.0006 C   0  0  0  0  0
    0.5220   27.3706   62.6881 C   0  0  0  0  0
    1.2844   28.3355   62.1254 C   0  0  0  0  0
    1.4761   28.3552   60.7515 C   0  0  0  0  0
    0.1004   26.4081   60.6075 C   0  0  0  0  0
    1.0155   27.3420   58.5528 C   0  0  0  0  0
   -0.0986   28.0929   57.8969 C   0  0  0  0  0
   -1.2747   27.4340   57.5055 C   0  0  0  0  0
   -2.3154   28.1571   56.9141 C   0  0  0  0  0
   -2.1884   29.5348   56.7154 C   0  0  0  0  0
   -1.0201   30.1931   57.1091 C   0  0  0  0  0
    0.0220   29.4734   57.7005 C   0  0  0  0  0
    1.7257   29.1376   63.1628 C   0  0  0  0  0
    4.0005   24.2792   65.7983 C   0  0  0  0  0
    4.6914   23.2118   66.4095 C   0  0  0  0  0
    4.6703   20.9434   67.3797 C   0  0  0  0  0
    6.7044   24.4589   66.3635 C   0  0  0  0  0
    4.7376   25.4397   65.4798 C   0  0  0  0  0
    4.8259   27.7021   64.4985 C   0  0  0  0  0
    1.7479   25.3608   65.4161 N   0  0  0  0  0
    0.4851   27.5458   64.0143 N   0  0  0  0  0
    0.8696   27.3745   60.0040 N   0  0  0  0  0
   -0.0796   26.3986   61.9626 N   0  0  0  0  0
    1.2104   28.6187   64.3108 N   0  0  0  0  0
    6.0210   23.3310   66.6743 N   0  0  0  0  0
    6.0653   25.4978   65.7733 N   0  0  0  0  0
   -1.4139   26.0979   57.6924 F   0  0  0  0  0
    2.1876   29.2465   60.2126 O   0  0  0  0  0
    2.0153   23.0529   65.3095 O   0  0  0  0  0
    4.0148   22.0390   66.7585 O   0  0  0  0  0
    4.1180   26.5218   64.8473 O   0  0  0  0  0
  1 22  1  0  0  0
  1 16  1  0  0  0
  2 22  1  0  0  0
  2  3  1  0  0  0
  3 23  1  0  0  0
  4 25  1  0  0  0
  5  6  1  0  0  0
  5 15  1  0  0  0
  6 24  1  0  0  0
  8 24  1  0  0  0
  8  9  1  0  0  0
 10 29  1  0  0  0
 10 11  1  0  0  0
 12 13  1  0  0  0
 14  9  1  0  0  0
 17 32  1  0  0  0
 17 27  1  0  0  0
 18 32  1  0  0  0
 19 28  1  0  0  0
 20 33  1  0  0  0
 20 16  1  0  0  0
 21 33  1  0  0  0
 23  4  1  0  0  0
 23 26  1  0  0  0
 24  7  1  0  0  0
  1 31  2  0  0  0
  4  5  2  0  0  0
  6 30  2  0  0  0
  7 25  2  0  0  0
  9 10  2  0  0  0
 11 12  2  0  0  0
 13 14  2  0  0  0
 15 26  2  0  0  0
 16 17  2  0  0  0
 19 27  2  0  0  0
 20 28  2  0  0  0
M  END
> <rmsd>
0.555001676

$$$$
QMZHNJGGKXLEPG-UHFFFAOYSA-N


 33 36  0  0  0  0  0  0  0  0999 V2000
    2.5502   24.1821   65.4967 C   0  0  0  0  0
    0.3450   25.3270   65.0425 C   0  0  0  0  0
   -0.2163   26.7402   65.0013 C   0  0  0  0  0
    0.5227   27.3712   62.6872 C   0  0  0  0  0
    1.2856   28.3345   62.1227 C   0  0  0  0  0
    1.4755   28.3529   60.7486 C   0  0  0  0  0
    0.0972   26.4072   60.6081 C   0  0  0  0  0
    1.0112   27.3380   58.5514 C   0  0  0  0  0
   -0.1035   28.0883   57.8958 C   0  0  0  0  0
   -1.2797   27.4290   57.5055 C   0  0  0  0  0
   -2.3211   28.1514   56.9145 C   0  0  0  0  0
   -2.1944   29.5291   56.7148 C   0  0  0  0  0
   -1.0259   30.1878   57.1070 C   0  0  0  0  0
    0.0166   29.4688   57.6985 C   0  0  0  0  0
    1.7294   29.1369   63.1589 C   0  0  0  0  0
    4.0014   24.2799   65.7998 C   0  0  0  0  0
    4.7389   25.4409   65.4839 C   0  0  0  0  0
    4.8295   27.7033   64.5026 C   0  0  0  0  0
    6.7052   24.4576   66.3657 C   0  0  0  0  0
    4.6921   23.2107   66.4082 C   0  0  0  0  0
    4.6710   20.9389   67.3707 C   0  0  0  0  0
    1.7494   25.3630   65.4173 N   0  0  0  0  0
    0.4876   27.5476   64.0134 N   0  0  0  0  0
    0.8669   27.3722   60.0027 N   0  0  0  0  0
   -0.0811   26.3993   61.9635 N   0  0  0  0  0
    1.2147   28.6198   64.3079 N   0  0  0  0  0
    6.0666   25.4979   65.7777 N   0  0  0  0  0
    6.0216   23.3290   66.6735 N   0  0  0  0  0
   -1.4186   26.0929   57.6936 F   0  0  0  0  0
    2.1873   29.2429   60.2079 O   0  0  0  0  0
    2.0155   23.0552   65.3097 O   0  0  0  0  0
    4.1199   26.5247   64.8536 O   0  0  0  0  0
    4.0153   22.0370   66.7539 O   0  0  0  0  0
  1 22  1  0  0  0
  1 16  1  0  0  0
  2 22  1  0  0  0
  2  3  1  0  0  0
  3 23  1  0  0  0
  4 25  1  0  0  0
  5  6  1  0  0  0
  5 15  1  0  0  0
  6 24  1  0  0  0
  8 24  1  0  0  0
  8  9  1  0  0  0
 10 29  1  0  0  0
 10 11  1  0  0  0
 12 13  1  0  0  0
 14  9  1  0  0  0
 17 32  1  0  0  0
 17 27  1  0  0  0
 18 32  1  0  0  0
 19 28  1  0  0  0
 20 33  1  0  0  0
 20 16  1  0  0  0
 21 33  1  0  0  0
 23  4  1  0  0  0
 23 26  1  0  0  0
 24  7  1  0  0  0
  1 31  2  0  0  0
  4  5  2  0  0  0
  6 30  2  0  0  0
  7 25  2  0  0  0
  9 10  2  0  0  0
 11 12  2  0  0  0
 13 14  2  0  0  0
 15 26  2  0  0  0
 16 17  2  0  0  0
 19 27  2  0  0  0
 20 28  2  0  0  0
M  END
> <rmsd>
0.555171013

$$$$
HIZAOPDIGZVUJX-UHFFFAOYSA-N


 35 38  0  0  0  0  0  0  0  0999 V2000
    4.5794   23.6544   66.1841 C   0  0  0  0  0
    5.2702   25.6625   64.8300 C   0  0  0  0  0
    4.8622   26.7998   63.9402 C   0  0  0  0  0
    2.6907   26.2014   64.0632 C   0  0  0  0  0
    1.2644   26.7153   64.0374 C   0  0  0  0  0
    0.1956   27.3406   61.9099 C   0  0  0  0  0
    0.1705   28.2351   60.7183 C   0  0  0  0  0
    1.2420   27.8396   59.7532 C   0  0  0  0  0
    2.5663   28.2966   59.9122 C   0  0  0  0  0
    4.1238   29.6449   61.3435 C   0  0  0  0  0
    3.5576   27.8728   58.9891 C   0  0  0  0  0
    5.9138   27.9199   58.2159 C   0  0  0  0  0
    3.1992   27.0043   57.9445 C   0  0  0  0  0
    1.8873   26.5565   57.8054 C   0  0  0  0  0
    0.9127   26.9718   58.7089 C   0  0  0  0  0
    2.8426   25.1633   65.1760 C   0  0  0  0  0
    3.7021   22.4712   66.2620 C   0  0  0  0  0
    2.1959   21.0769   65.8924 C   0  0  0  0  0
    0.8189   19.1860   65.9748 C   0  0  0  0  0
   -0.3503   18.4176   65.4740 C   0  0  0  0  0
    1.6039   18.6596   67.0210 C   0  0  0  0  0
    2.7019   19.4013   67.4767 C   0  0  0  0  0
    3.5620   18.8873   68.5788 C   0  0  0  0  0
    4.2504   24.7857   65.3529 N   0  0  0  0  0
    2.6266   22.2700   65.4512 N   0  0  0  0  0
    1.1249   20.3954   65.4176 N   0  0  0  0  0
    2.9484   20.5940   66.8805 N   0  0  0  0  0
    3.9139   21.4540   67.1356 N   0  0  0  0  0
    6.4935   25.4446   65.0381 O   0  0  0  0  0
    3.5818   27.2647   64.2926 O   0  0  0  0  0
    1.1000   27.5996   62.9393 O   0  0  0  0  0
   -0.5664   26.3373   61.9541 O   0  0  0  0  0
    2.8370   29.1593   60.9892 O   0  0  0  0  0
    4.8807   28.3136   59.1096 O   0  0  0  0  0
    5.6403   23.6625   66.8657 O   0  0  0  0  0
  1 24  1  0  0  0
  1 17  1  0  0  0
  3  2  1  0  0  0
  3 30  1  0  0  0
  4 30  1  0  0  0
  4  5  1  0  0  0
  4 16  1  0  0  0
  5 31  1  0  0  0
  6 31  1  0  0  0
  7  6  1  0  0  0
  7  8  1  0  0  0
  9 33  1  0  0  0
  9 11  1  0  0  0
 10 33  1  0  0  0
 11 34  1  0  0  0
 12 34  1  0  0  0
 13 14  1  0  0  0
 15  8  1  0  0  0
 16 24  1  0  0  0
 17 25  1  0  0  0
 18 26  1  0  0  0
 19 21  1  0  0  0
 20 19  1  0  0  0
 22 27  1  0  0  0
 23 22  1  0  0  0
 24  2  1  0  0  0
 27 28  1  0  0  0
 27 18  1  0  0  0
  1 35  2  0  0  0
  2 29  2  0  0  0
  6 32  2  0  0  0
  8  9  2  0  0  0
 11 13  2  0  0  0
 14 15  2  0  0  0
 17 28  2  0  0  0
 18 25  2  0  0  0
 19 26  2  0  0  0
 21 22  2  0  0  0
M  END
> <rmsd>
0.650581121

$$$$
KSXGAARWYLQVLM-UHFFFAOYSA-N


 34 36  0  0  0  0  0  0  0  0999 V2000
    4.0908   25.3645   64.7131 C   0  0  0  0  0
    2.4454   26.6110   62.4012 C   0  0  0  0  0
    1.2216   27.1909   61.8025 C   0  0  0  0  0
    0.2290   29.1886   60.6724 C   0  0  0  0  0
   -1.1530   29.0871   61.2298 C   0  0  0  0  0
    0.6749   30.1630   59.8038 C   0  0  0  0  0
   -0.0968   31.3182   59.2478 C   0  0  0  0  0
   -0.2236   32.4348   60.2725 C   0  0  0  0  0
    1.0805   33.2009   60.3923 C   0  0  0  0  0
    2.0077   29.8659   59.6031 C   0  0  0  0  0
    2.9613   30.6200   58.7443 C   0  0  0  0  0
    3.6863   27.3543   62.4024 C   0  0  0  0  0
    3.8441   23.4719   63.0990 C   0  0  0  0  0
    3.6460   22.3078   63.8849 C   0  0  0  0  0
    4.1207   21.0774   63.4059 C   0  0  0  0  0
    4.7539   20.9879   62.1651 C   0  0  0  0  0
    4.9204   22.1306   61.3835 C   0  0  0  0  0
    4.4685   23.3657   61.8497 C   0  0  0  0  0
    5.4000   24.8428   65.2180 C   0  0  0  0  0
    7.5933   25.2981   65.5972 C   0  0  0  0  0
    7.4493   24.7856   67.0364 C   0  0  0  0  0
    5.2567   24.3260   66.6575 C   0  0  0  0  0
    3.4604   24.7741   63.5591 N   0  0  0  0  0
    2.3851   25.4144   62.9133 N   0  0  0  0  0
    1.2609   28.3627   60.9635 N   0  0  0  0  0
    2.3409   28.7683   60.3087 N   0  0  0  0  0
    4.6800   27.9476   62.4048 N   0  0  0  0  0
    2.9495   22.3388   65.1426 N   0  0  0  0  0
    0.1153   26.6301   62.0325 O   0  0  0  0  0
    3.0756   21.2865   66.0204 O   0  0  0  0  0
    2.1107   23.2294   65.3898 O   0  0  0  0  0
    3.5440   26.3374   65.3009 O   0  0  0  0  0
    6.3744   25.8600   65.1687 O   0  0  0  0  0
    6.4775   23.7665   67.0828 O   0  0  0  0  0
  1 23  1  0  0  0
  2  3  1  0  0  0
  2 12  1  0  0  0
  3 25  1  0  0  0
  5  4  1  0  0  0
  6 10  1  0  0  0
  7  6  1  0  0  0
  7  8  1  0  0  0
  8  9  1  0  0  0
 11 10  1  0  0  0
 14 28  1  0  0  0
 14 15  1  0  0  0
 16 17  1  0  0  0
 18 13  1  0  0  0
 19  1  1  0  0  0
 19 33  1  0  0  0
 20 33  1  0  0  0
 20 21  1  0  0  0
 21 34  1  0  0  0
 22 34  1  0  0  0
 22 19  1  0  0  0
 23 24  1  0  0  0
 23 13  1  0  0  0
 25  4  1  0  0  0
 25 26  1  0  0  0
 28 30  1  0  0  0
  1 32  2  0  0  0
  2 24  2  0  0  0
  3 29  2  0  0  0
  4  6  2  0  0  0
 10 26  2  0  0  0
 13 14  2  0  0  0
 15 16  2  0  0  0
 17 18  2  0  0  0
 28 31  2  0  0  0
 12 27  3  0  0  0
M  CHG  2  28   1  30  -1
M  END
> <rmsd>
0.584747612

$$$$
VGUWZUKGSWMHCR-UHFFFAOYSA-N


 33 36  0  0  0  0  0  0  0  0999 V2000
    4.5087   23.5833   66.1581 C   0  0  0  0  0
    5.0114   25.7862   65.0519 C   0  0  0  0  0
    4.4899   27.0464   64.4266 C   0  0  0  0  0
    2.3533   26.3989   64.7561 C   0  0  0  0  0
    0.9372   26.8914   65.0074 C   0  0  0  0  0
    0.4439   27.7819   62.7576 C   0  0  0  0  0
    0.5321   28.9551   61.8456 C   0  0  0  0  0
    1.9599   29.2026   61.4962 C   0  0  0  0  0
    4.0600   29.6607   61.5860 C   0  0  0  0  0
    5.4163   30.0836   61.9895 C   0  0  0  0  0
    5.6956   30.6068   63.2702 C   0  0  0  0  0
    7.0006   30.9838   63.6026 C   0  0  0  0  0
    8.0330   30.8453   62.6728 C   0  0  0  0  0
    7.7647   30.3270   61.4048 C   0  0  0  0  0
    6.4635   29.9481   61.0667 C   0  0  0  0  0
    2.9058   29.7441   62.3469 C   0  0  0  0  0
    2.6537   25.1978   65.6534 C   0  0  0  0  0
    3.6796   22.3623   66.1032 C   0  0  0  0  0
    1.8194   21.1818   65.2344 C   0  0  0  0  0
    2.1684   20.0579   65.9804 C   0  0  0  0  0
    3.3033   20.1262   66.7862 C   0  0  0  0  0
    4.0698   24.8208   65.5645 N   0  0  0  0  0
    2.5193   28.8230   60.3345 N   0  0  0  0  0
    2.5776   22.3067   65.3063 N   0  0  0  0  0
    4.0365   21.2690   66.8314 N   0  0  0  0  0
    6.2498   25.5552   65.0458 O   0  0  0  0  0
    3.2754   27.4259   65.0272 O   0  0  0  0  0
    0.6332   27.9676   64.1286 O   0  0  0  0  0
    0.2692   26.6290   62.2787 O   0  0  0  0  0
    3.7801   29.1203   60.4218 O   0  0  0  0  0
    5.6262   23.5309   66.7408 O   0  0  0  0  0
    4.7212   30.7516   64.2022 F   0  0  0  0  0
    9.2945   31.2131   63.0012 F   0  0  0  0  0
  1 22  1  0  0  0
  1 18  1  0  0  0
  3  2  1  0  0  0
  3 27  1  0  0  0
  4 27  1  0  0  0
  4  5  1  0  0  0
  4 17  1  0  0  0
  5 28  1  0  0  0
  6 28  1  0  0  0
  7  6  1  0  0  0
  7  8  1  0  0  0
  9 30  1  0  0  0
  9 10  1  0  0  0
 11 32  1  0  0  0
 11 12  1  0  0  0
 13 33  1  0  0  0
 13 14  1  0  0  0
 15 10  1  0  0  0
 16  8  1  0  0  0
 17 22  1  0  0  0
 18 25  1  0  0  0
 19 24  1  0  0  0
 20 21  1  0  0  0
 22  2  1  0  0  0
 23 30  1  0  0  0
  1 31  2  0  0  0
  2 26  2  0  0  0
  6 29  2  0  0  0
  8 23  2  0  0  0
  9 16  2  0  0  0
 10 11  2  0  0  0
 12 13  2  0  0  0
 14 15  2  0  0  0
 18 24  2  0  0  0
 19 20  2  0  0  0
 21 25  2  0  0  0
M  END
> <rmsd>
0.583574176

$$$$
HTZKKSZOFAGHHC-UHFFFAOYSA-N


 33 36  0  0  0  0  0  0  0  0999 V2000
    2.5501   24.1798   65.4960 C   0  0  0  0  0
    0.3446   25.3235   65.0406 C   0  0  0  0  0
   -0.2178   26.7362   65.0008 C   0  0  0  0  0
    0.5223   27.3705   62.6880 C   0  0  0  0  0
    1.2847   28.3354   62.1251 C   0  0  0  0  0
    1.4756   28.3554   60.7512 C   0  0  0  0  0
    0.0989   26.4088   60.6073 C   0  0  0  0  0
    1.0129   27.3425   58.5526 C   0  0  0  0  0
   -0.0912   28.1059   57.9004 C   0  0  0  0  0
   -1.2909   27.4627   57.5759 C   0  0  0  0  0
   -2.3342   28.1830   56.9862 C   0  0  0  0  0
   -2.1806   29.5479   56.7242 C   0  0  0  0  0
   -0.9849   30.1934   57.0542 C   0  0  0  0  0
    0.0584   29.4734   57.6438 C   0  0  0  0  0
    1.7267   29.1370   63.1625 C   0  0  0  0  0
    4.0012   24.2785   65.7989 C   0  0  0  0  0
    4.7384   25.4391   65.4808 C   0  0  0  0  0
    4.8269   27.7019   64.5001 C   0  0  0  0  0
    6.7049   24.4581   66.3645 C   0  0  0  0  0
    4.6920   23.2110   66.4098 C   0  0  0  0  0
    4.6706   20.9423   67.3795 C   0  0  0  0  0
    1.7488   25.3603   65.4163 N   0  0  0  0  0
    0.4860   27.5455   64.0143 N   0  0  0  0  0
    0.8686   27.3750   60.0038 N   0  0  0  0  0
   -0.0803   26.3990   61.9626 N   0  0  0  0  0
    1.2117   28.6181   64.3106 N   0  0  0  0  0
    6.0660   25.4971   65.7746 N   0  0  0  0  0
    6.0215   23.3301   66.6750 N   0  0  0  0  0
   -3.1913   30.2455   56.1528 F   0  0  0  0  0
    2.1866   29.2469   60.2119 O   0  0  0  0  0
    2.0160   23.0525   65.3094 O   0  0  0  0  0
    4.1191   26.5215   64.8483 O   0  0  0  0  0
    4.0152   22.0382   66.7586 O   0  0  0  0  0
  1 22  1  0  0  0
  1 16  1  0  0  0
  2 22  1  0  0  0
  2  3  1  0  0  0
  3 23  1  0  0  0
  4 25  1  0  0  0
  5  6  1  0  0  0
  5 15  1  0  0  0
  6 24  1  0  0  0
  8 24  1  0  0  0
  8  9  1  0  0  0
 10 11  1  0  0  0
 12 29  1  0  0  0
 12 13  1  0  0  0
 14  9  1  0  0  0
 17 32  1  0  0  0
 17 27  1  0  0  0
 18 32  1  0  0  0
 19 28  1  0  0  0
 20 33  1  0  0  0
 20 16  1  0  0  0
 21 33  1  0  0  0
 23  4  1  0  0  0
 23 26  1  0  0  0
 24  7  1  0  0  0
  1 31  2  0  0  0
  4  5  2  0  0  0
  6 30  2  0  0  0
  7 25  2  0  0  0
  9 10  2  0  0  0
 11 12  2  0  0  0
 13 14  2  0  0  0
 15 26  2  0  0  0
 16 17  2  0  0  0
 19 27  2  0  0  0
 20 28  2  0  0  0
M  END
> <rmsd>
0.555247247

$$$$
QNXSMPHBETYPPZ-UHFFFAOYSA-N


 33 37  0  0  0  0  0  0  0  0999 V2000
    4.6487   22.3984   66.2550 C   0  0  0  0  0
    3.2475   24.1807   65.2347 C   0  0  0  0  0
    2.9882   25.1184   64.0992 C   0  0  0  0  0
    3.2745   27.3617   63.4745 C   0  0  0  0  0
    1.8589   27.8707   63.3135 C   0  0  0  0  0
    1.2818   27.3927   62.0070 C   0  0  0  0  0
    1.6465   28.0692   60.7479 C   0  0  0  0  0
    2.8589   29.7821   59.6233 C   0  0  0  0  0
    2.3542   29.3640   58.3907 C   0  0  0  0  0
    1.4802   28.2774   58.3463 C   0  0  0  0  0
    1.1220   27.6247   59.5268 C   0  0  0  0  0
    1.5479   26.9377   64.4675 C   0  0  0  0  0
    5.7136   24.0940   64.7704 C   0  0  0  0  0
    7.8467   24.4854   63.6661 C   0  0  0  0  0
    7.0757   25.6196   63.8691 C   0  0  0  0  0
    7.5335   26.8694   63.4522 C   0  0  0  0  0
    8.7888   26.9494   62.8258 C   0  0  0  0  0
    9.5637   25.7901   62.6252 C   0  0  0  0  0
    9.0930   24.5368   63.0481 C   0  0  0  0  0
    5.7079   22.2727   67.2771 C   0  0  0  0  0
    7.4494   23.2549   68.5482 C   0  0  0  0  0
    6.9189   20.9805   68.8992 C   0  0  0  0  0
    5.9164   21.0554   67.9336 C   0  0  0  0  0
    4.5432   23.5767   65.4333 N   0  0  0  0  0
    2.9294   26.4886   64.5896 N   0  0  0  0  0
    2.4984   29.1334   60.7633 N   0  0  0  0  0
    5.8862   25.4092   64.4857 N   0  0  0  0  0
    6.4766   23.3473   67.6043 N   0  0  0  0  0
    7.6664   22.0768   69.1886 N   0  0  0  0  0
    0.4700   26.4258   61.9842 O   0  0  0  0  0
    2.3004   23.9186   66.0244 O   0  0  0  0  0
    3.8080   21.4682   66.1143 O   0  0  0  0  0
    7.0340   23.1485   64.2702 S   0  0  0  0  0
  1 24  1  0  0  0
  1 20  1  0  0  0
  3  2  1  0  0  0
  3 25  1  0  0  0
  4 25  1  0  0  0
  4  5  1  0  0  0
  5  6  1  0  0  0
  5 12  1  0  0  0
  6  7  1  0  0  0
  8 26  1  0  0  0
  9 10  1  0  0  0
 11  7  1  0  0  0
 12 25  1  0  0  0
 13 33  1  0  0  0
 14 33  1  0  0  0
 15 16  1  0  0  0
 15 27  1  0  0  0
 17 18  1  0  0  0
 19 14  1  0  0  0
 21 28  1  0  0  0
 22 29  1  0  0  0
 23 20  1  0  0  0
 24  2  1  0  0  0
 24 13  1  0  0  0
  1 32  2  0  0  0
  2 31  2  0  0  0
  6 30  2  0  0  0
  7 26  2  0  0  0
  8  9  2  0  0  0
 10 11  2  0  0  0
 13 27  2  0  0  0
 14 15  2  0  0  0
 16 17  2  0  0  0
 18 19  2  0  0  0
 20 28  2  0  0  0
 21 29  2  0  0  0
 22 23  2  0  0  0
M  END
> <rmsd>
0.699435771

$$$$
GEYFOTUCOZASCO-UHFFFAOYSA-N


 31 33  0  0  0  0  0  0  0  0999 V2000
    1.9052   24.8027   64.4983 O   0  0  0  0  0
    1.9800   23.0099   65.9328 O   0  0  0  0  0
    4.2850   21.9843   66.6524 O   0  0  0  0  0
    3.9230   26.4382   64.6920 O   0  0  0  0  0
    2.4399   28.7068   60.9271 O   0  0  0  0  0
    2.5917   23.9638   65.3780 C   0  0  0  0  0
    4.0348   24.1993   65.6580 C   0  0  0  0  0
    4.8332   23.2170   66.2851 C   0  0  0  0  0
    5.0548   20.9701   67.2809 C   0  0  0  0  0
    6.7204   24.6440   66.1722 C   0  0  0  0  0
    4.6568   25.4170   65.3035 C   0  0  0  0  0
    4.5098   27.6761   64.3184 C   0  0  0  0  0
    0.5233   24.6428   64.2168 C   0  0  0  0  0
    0.0859   25.7275   63.2939 C   0  0  0  0  0
   -0.1298   27.5509   65.0026 C   0  0  0  0  0
   -0.4173   27.6439   62.5104 C   0  0  0  0  0
    0.9636   29.8781   62.3658 C   0  0  0  0  0
    1.5714   29.6148   61.0237 C   0  0  0  0  0
    1.1927   30.4021   59.8320 C   0  0  0  0  0
    0.3176   31.4942   59.9395 C   0  0  0  0  0
   -0.0327   32.2358   58.8077 C   0  0  0  0  0
    0.4908   31.8928   57.5586 C   0  0  0  0  0
    1.3652   30.8095   57.4413 C   0  0  0  0  0
    1.7151   30.0679   58.5733 C   0  0  0  0  0
   -0.0027   25.6248   61.9205 C   0  0  0  0  0
    6.1493   23.4674   66.5243 N   0  0  0  0  0
    5.9785   25.6033   65.5691 N   0  0  0  0  0
   -0.1670   26.9935   63.6593 N   0  0  0  0  0
   -0.3306   26.8412   61.4295 N   0  0  0  0  0
   -0.7934   29.3937   62.4017 S   0  0  0  0  0
    0.1514   32.6113   56.4616 F   0  0  0  0  0
  6  1  1  0  0  0
  6  7  1  0  0  0
  8  3  1  0  0  0
  8 26  1  0  0  0
  9  3  1  0  0  0
 10 27  1  0  0  0
 11  4  1  0  0  0
 11  7  1  0  0  0
 12  4  1  0  0  0
 13  1  1  0  0  0
 13 14  1  0  0  0
 14 28  1  0  0  0
 15 28  1  0  0  0
 16 30  1  0  0  0
 17 30  1  0  0  0
 17 18  1  0  0  0
 18 19  1  0  0  0
 20 21  1  0  0  0
 22 31  1  0  0  0
 22 23  1  0  0  0
 24 19  1  0  0  0
 25 29  1  0  0  0
 28 16  1  0  0  0
  6  2  2  0  0  0
  7  8  2  0  0  0
 10 26  2  0  0  0
 11 27  2  0  0  0
 16 29  2  0  0  0
 18  5  2  0  0  0
 19 20  2  0  0  0
 21 22  2  0  0  0
 23 24  2  0  0  0
 25 14  2  0  0  0
M  END
> <rmsd>
0.654898942

$$$$
UDGUDXCQOYHCSE-UHFFFAOYSA-N


 33 36  0  0  0  0  0  0  0  0999 V2000
    4.9368   23.2768   65.9911 C   0  0  0  0  0
    2.8720   24.1909   64.9015 C   0  0  0  0  0
    2.2804   25.1067   63.8816 C   0  0  0  0  0
    3.0475   26.0039   61.8559 C   0  0  0  0  0
    1.8320   25.8848   60.9561 C   0  0  0  0  0
    0.8269   26.9635   61.3068 C   0  0  0  0  0
    1.1185   28.3888   61.0103 C   0  0  0  0  0
    2.6019   30.0334   60.1243 C   0  0  0  0  0
    1.7004   31.0608   60.4317 C   0  0  0  0  0
    0.4862   30.7356   61.0403 C   0  0  0  0  0
    0.1903   29.3967   61.3323 C   0  0  0  0  0
    1.5875   24.5898   61.7096 C   0  0  0  0  0
    4.8688   25.6633   65.2878 C   0  0  0  0  0
    4.9566   27.9147   65.0899 C   0  0  0  0  0
    4.4782   29.2989   64.9608 C   0  0  0  0  0
    5.3822   30.3732   64.9796 C   0  0  0  0  0
    4.9207   31.6899   64.8747 C   0  0  0  0  0
    3.5522   31.9397   64.7444 C   0  0  0  0  0
    3.0619   33.3391   64.6418 C   0  0  0  0  0
    2.6460   30.8741   64.7242 C   0  0  0  0  0
    3.1071   29.5571   64.8311 C   0  0  0  0  0
    4.7296   21.8750   65.5184 C   0  0  0  0  0
    3.6867   19.9579   65.8586 C   0  0  0  0  0
    4.2171   24.3802   65.3983 N   0  0  0  0  0
    2.7675   24.7532   62.5562 N   0  0  0  0  0
    2.2965   28.7346   60.4159 N   0  0  0  0  0
    6.2296   25.7710   65.3079 N   0  0  0  0  0
    4.1550   26.8310   65.1758 N   0  0  0  0  0
   -0.2804   26.6462   61.8296 O   0  0  0  0  0
    2.1751   23.2089   65.2882 O   0  0  0  0  0
    5.7724   23.4886   66.9162 O   0  0  0  0  0
    4.0744   21.1362   66.5041 O   0  0  0  0  0
    6.5353   27.3963   65.1755 S   0  0  0  0  0
  1 24  1  0  0  0
  3  2  1  0  0  0
  3 25  1  0  0  0
  4 25  1  0  0  0
  4  5  1  0  0  0
  5  6  1  0  0  0
  5 12  1  0  0  0
  6  7  1  0  0  0
  8 26  1  0  0  0
  9 10  1  0  0  0
 11  7  1  0  0  0
 12 25  1  0  0  0
 13 28  1  0  0  0
 14 33  1  0  0  0
 14 15  1  0  0  0
 16 17  1  0  0  0
 18 20  1  0  0  0
 19 18  1  0  0  0
 21 15  1  0  0  0
 22  1  1  0  0  0
 22 32  1  0  0  0
 23 32  1  0  0  0
 24  2  1  0  0  0
 24 13  1  0  0  0
 27 33  1  0  0  0
  1 31  2  0  0  0
  2 30  2  0  0  0
  6 29  2  0  0  0
  7 26  2  0  0  0
  8  9  2  0  0  0
 10 11  2  0  0  0
 13 27  2  0  0  0
 14 28  2  0  0  0
 15 16  2  0  0  0
 17 18  2  0  0  0
 20 21  2  0  0  0
M  END
> <rmsd>
0.447847217

$$$$
MOKCSTFGRACOIS-UHFFFAOYSA-N


 29 32  0  0  0  0  0  0  0  0999 V2000
    2.4909   24.2208   65.1524 C   0  0  0  0  0
    0.3166   25.3253   64.4544 C   0  0  0  0  0
   -0.3250   26.6758   64.5970 C   0  0  0  0  0
    0.0286   27.4031   63.3190 C   0  0  0  0  0
    1.6844   26.6780   61.8170 C   0  0  0  0  0
    1.6472   27.5788   60.6290 C   0  0  0  0  0
    1.9412   29.2400   59.3683 C   0  0  0  0  0
    0.8902   28.5512   57.3495 C   0  0  0  0  0
    1.2294   29.7763   56.7580 C   0  0  0  0  0
    1.9385   30.7357   57.5052 C   0  0  0  0  0
    2.3064   30.4738   58.8349 C   0  0  0  0  0
    1.0613   27.2658   59.4085 C   0  0  0  0  0
    0.3696   25.1088   62.9556 C   0  0  0  0  0
    3.9078   24.3603   65.5743 C   0  0  0  0  0
    4.5657   23.3260   66.2720 C   0  0  0  0  0
    4.5079   21.0852   67.3023 C   0  0  0  0  0
    6.5490   24.6177   66.3606 C   0  0  0  0  0
    4.6451   25.5280   65.2850 C   0  0  0  0  0
    4.7685   27.7622   64.2438 C   0  0  0  0  0
    1.6708   25.3811   64.9870 N   0  0  0  0  0
    0.3344   26.4093   62.2929 N   0  0  0  0  0
    2.2050   28.8130   60.6157 N   0  0  0  0  0
    1.2651   28.3413   58.6352 N   0  0  0  0  0
    5.8651   23.4830   66.6449 N   0  0  0  0  0
    5.9412   25.6250   65.6881 N   0  0  0  0  0
    0.7751   30.1100   55.1013 Cl  0  0  0  0  0
    2.0013   23.0777   64.9412 O   0  0  0  0  0
    3.8857   22.1480   66.5957 O   0  0  0  0  0
    4.0587   26.5767   64.5698 O   0  0  0  0  0
  1 20  1  0  0  0
  1 14  1  0  0  0
  2 20  1  0  0  0
  2  3  1  0  0  0
  3  4  1  0  0  0
  4 21  1  0  0  0
  5 21  1  0  0  0
  5  6  1  0  0  0
  6 22  1  0  0  0
  7 23  1  0  0  0
  9 10  1  0  0  0
  9 26  1  0  0  0
 11  7  1  0  0  0
 13 21  1  0  0  0
 13  2  1  0  0  0
 15 28  1  0  0  0
 15 24  1  0  0  0
 16 28  1  0  0  0
 17 25  1  0  0  0
 18 29  1  0  0  0
 18 14  1  0  0  0
 19 29  1  0  0  0
 23  8  1  0  0  0
 23 12  1  0  0  0
  1 27  2  0  0  0
  7 22  2  0  0  0
  8  9  2  0  0  0
 10 11  2  0  0  0
 12  6  2  0  0  0
 14 15  2  0  0  0
 17 24  2  0  0  0
 18 25  2  0  0  0
M  END
> <rmsd>
0.617613554

$$$$
CRJWVVHASCSHKC-UHFFFAOYSA-N


 31 33  0  0  0  0  0  0  0  0999 V2000
    4.5584   23.6524   66.1681 C   0  0  0  0  0
    5.3123   25.6803   64.8834 C   0  0  0  0  0
    4.9441   26.8493   64.0177 C   0  0  0  0  0
    2.7601   26.2832   64.0709 C   0  0  0  0  0
    1.3435   26.8217   64.0321 C   0  0  0  0  0
    0.2998   27.5182   61.9103 C   0  0  0  0  0
    0.2468   28.4702   60.7699 C   0  0  0  0  0
   -0.9549   28.7249   60.0635 C   0  0  0  0  0
   -2.2436   28.0758   60.4723 C   0  0  0  0  0
   -0.9562   29.6333   58.9874 C   0  0  0  0  0
   -2.2178   29.9200   58.2300 C   0  0  0  0  0
    0.2389   30.2768   58.6341 C   0  0  0  0  0
    0.2945   31.2506   57.5049 C   0  0  0  0  0
    1.4182   29.1456   60.3682 C   0  0  0  0  0
    3.8346   29.5604   60.6528 C   0  0  0  0  0
    2.8697   25.2102   65.1556 C   0  0  0  0  0
    3.7012   22.4500   66.1429 C   0  0  0  0  0
    3.1344   20.3363   67.0494 C   0  0  0  0  0
    2.1401   20.1801   66.0866 C   0  0  0  0  0
    1.9564   21.1934   65.1490 C   0  0  0  0  0
    4.2666   24.8047   65.3531 N   0  0  0  0  0
    1.3761   30.0184   59.3255 N   0  0  0  0  0
    3.8953   21.4616   67.0593 N   0  0  0  0  0
    2.7379   22.3037   65.1918 N   0  0  0  0  0
    6.5262   25.4363   65.1162 O   0  0  0  0  0
    3.6625   27.3245   64.3524 O   0  0  0  0  0
    1.2085   27.7308   62.9496 O   0  0  0  0  0
   -0.4606   26.5116   61.9377 O   0  0  0  0  0
    2.6296   28.9084   61.0254 O   0  0  0  0  0
    5.5675   23.6605   66.9246 O   0  0  0  0  0
    1.1463   18.7400   66.0529 Cl  0  0  0  0  0
  1 21  1  0  0  0
  1 17  1  0  0  0
  3  2  1  0  0  0
  3 26  1  0  0  0
  4 26  1  0  0  0
  4  5  1  0  0  0
  4 16  1  0  0  0
  5 27  1  0  0  0
  6 27  1  0  0  0
  6  7  1  0  0  0
  8 10  1  0  0  0
  9  8  1  0  0  0
 11 10  1  0  0  0
 12 22  1  0  0  0
 13 12  1  0  0  0
 14 29  1  0  0  0
 14  7  1  0  0  0
 15 29  1  0  0  0
 16 21  1  0  0  0
 17 24  1  0  0  0
 18 23  1  0  0  0
 19 31  1  0  0  0
 19 20  1  0  0  0
 21  2  1  0  0  0
  1 30  2  0  0  0
  2 25  2  0  0  0
  6 28  2  0  0  0
  7  8  2  0  0  0
 10 12  2  0  0  0
 14 22  2  0  0  0
 17 23  2  0  0  0
 18 19  2  0  0  0
 20 24  2  0  0  0
M  END
> <rmsd>
0.633506894

$$$$
HPIYUXQWAQSJCJ-UHFFFAOYSA-N


 29 32  0  0  0  0  0  0  0  0999 V2000
    1.2612   26.5227   62.4264 C   0  0  0  0  0
    1.1223   24.3646   63.6596 C   0  0  0  0  0
    1.0843   23.8309   65.0580 C   0  0  0  0  0
    1.4525   21.5227   64.9393 C   0  0  0  0  0
    2.3793   22.7749   66.6716 C   0  0  0  0  0
    3.8485   22.6304   66.8967 C   0  0  0  0  0
    4.2100   24.8254   68.0473 C   0  0  0  0  0
    5.8088   21.8549   66.9665 C   0  0  0  0  0
    3.0426   25.8940   64.0554 C   0  0  0  0  0
    4.1858   25.1317   64.1013 C   0  0  0  0  0
    5.0721   25.9124   64.7749 C   0  0  0  0  0
    6.7638   24.3136   64.5274 C   0  0  0  0  0
    5.8754   23.4828   63.8030 C   0  0  0  0  0
    4.5507   23.8991   63.5737 C   0  0  0  0  0
    2.1063   27.4020   61.5918 C   0  0  0  0  0
    1.5571   28.4800   60.8433 C   0  0  0  0  0
    1.8345   25.5749   63.3493 N   0  0  0  0  0
    2.0862   22.7944   65.2485 N   0  0  0  0  0
    4.6185   23.5387   67.5104 N   0  0  0  0  0
    5.8486   23.0671   67.5609 N   0  0  0  0  0
    4.5619   21.5473   66.5371 N   0  0  0  0  0
    6.3511   25.5278   65.0051 N   0  0  0  0  0
    3.2760   27.0782   64.6735 N   0  0  0  0  0
    3.4461   27.2076   61.4713 N   0  0  0  0  0
    2.4336   29.2030   60.1003 N   0  0  0  0  0
    0.4865   23.7582   62.7563 O   0  0  0  0  0
    4.5109   27.0492   65.1062 O   0  0  0  0  0
    0.0068   26.5974   62.3140 O   0  0  0  0  0
    3.8485   28.4242   60.4341 S   0  0  0  0  0
  1 17  1  0  0  0
  1 15  1  0  0  0
  3  2  1  0  0  0
  3 18  1  0  0  0
  4 18  1  0  0  0
  5 18  1  0  0  0
  5  6  1  0  0  0
  6 19  1  0  0  0
  7 19  1  0  0  0
  8 21  1  0  0  0
  9 10  1  0  0  0
 10 11  1  0  0  0
 11 27  1  0  0  0
 12 22  1  0  0  0
 13 14  1  0  0  0
 16 15  1  0  0  0
 17  2  1  0  0  0
 17  9  1  0  0  0
 19 20  1  0  0  0
 24 29  1  0  0  0
 27 23  1  0  0  0
 29 25  1  0  0  0
  1 28  2  0  0  0
  2 26  2  0  0  0
  6 21  2  0  0  0
  8 20  2  0  0  0
  9 23  2  0  0  0
 11 22  2  0  0  0
 12 13  2  0  0  0
 14 10  2  0  0  0
 15 24  2  0  0  0
 16 25  2  0  0  0
M  END
> <rmsd>
0.557112277

$$$$
YXDNQLHSACQHTK-UHFFFAOYSA-N


 36 40  0  0  0  0  0  0  0  0999 V2000
    4.9689   25.4453   64.2495 C   0  0  0  0  0
    4.8838   26.4634   62.0306 C   0  0  0  0  0
    4.3908   27.4474   61.1489 C   0  0  0  0  0
    4.7999   27.4583   59.8074 C   0  0  0  0  0
    5.6976   26.4997   59.3374 C   0  0  0  0  0
    6.1888   25.5206   60.2010 C   0  0  0  0  0
    5.7827   25.5002   61.5359 C   0  0  0  0  0
    3.4816   28.3908   61.6357 C   0  0  0  0  0
    2.0908   29.3009   63.4326 C   0  0  0  0  0
    0.7299   28.7108   63.2970 C   0  0  0  0  0
   -1.1038   28.0311   61.7951 C   0  0  0  0  0
   -0.7252   26.7062   61.1454 C   0  0  0  0  0
   -0.3095   24.5183   61.9020 C   0  0  0  0  0
    0.9645   24.1332   61.1878 C   0  0  0  0  0
    0.6454   23.8385   59.7323 C   0  0  0  0  0
    1.3301   25.5886   61.3519 C   0  0  0  0  0
    3.5864   27.3933   63.7920 C   0  0  0  0  0
    4.0662   24.3962   64.7919 C   0  0  0  0  0
    4.4486   23.5133   65.8283 C   0  0  0  0  0
    3.5301   22.5428   66.2817 C   0  0  0  0  0
    5.1297   21.7483   67.8385 C   0  0  0  0  0
    6.0391   22.7115   67.4005 C   0  0  0  0  0
    1.9045   23.2948   64.7276 C   0  0  0  0  0
    2.7795   24.2706   64.2485 C   0  0  0  0  0
    4.4672   26.4454   63.3370 N   0  0  0  0  0
    3.0915   28.3491   62.9449 N   0  0  0  0  0
    0.0917   25.9099   62.0510 N   0  0  0  0  0
    3.8963   21.6840   67.2688 N   0  0  0  0  0
    5.6810   23.5695   66.4051 N   0  0  0  0  0
    2.2941   22.4560   65.7257 N   0  0  0  0  0
    3.0169   29.2761   60.8624 O   0  0  0  0  0
    0.0602   28.7994   62.0754 O   0  0  0  0  0
    0.2277   28.0779   64.2634 O   0  0  0  0  0
    3.2297   27.3892   65.0057 O   0  0  0  0  0
    6.1918   25.4585   64.5561 O   0  0  0  0  0
    1.8177   23.6776   59.0145 F   0  0  0  0  0
  1 25  1  0  0  0
  1 18  1  0  0  0
  2  3  1  0  0  0
  3  8  1  0  0  0
  4  5  1  0  0  0
  6  7  1  0  0  0
  8 26  1  0  0  0
  9 26  1  0  0  0
  9 10  1  0  0  0
 10 32  1  0  0  0
 11 32  1  0  0  0
 11 12  1  0  0  0
 12 27  1  0  0  0
 13 27  1  0  0  0
 13 14  1  0  0  0
 14 15  1  0  0  0
 14 16  1  0  0  0
 15 36  1  0  0  0
 16 27  1  0  0  0
 17 25  1  0  0  0
 18 19  1  0  0  0
 19 20  1  0  0  0
 20 30  1  0  0  0
 21 28  1  0  0  0
 22 29  1  0  0  0
 23 24  1  0  0  0
 25  2  1  0  0  0
 26 17  1  0  0  0
  1 35  2  0  0  0
  3  4  2  0  0  0
  5  6  2  0  0  0
  7  2  2  0  0  0
  8 31  2  0  0  0
 10 33  2  0  0  0
 17 34  2  0  0  0
 19 29  2  0  0  0
 20 28  2  0  0  0
 21 22  2  0  0  0
 23 30  2  0  0  0
 24 18  2  0  0  0
M  END
> <rmsd>
0.759386301

$$$$
CMKDAKKRWLRKHR-UHFFFAOYSA-N


 33 36  0  0  0  0  0  0  0  0999 V2000
    2.4805   24.1350   65.5229 C   0  0  0  0  0
    0.2492   25.2212   65.0583 C   0  0  0  0  0
   -0.3587   26.6164   65.0230 C   0  0  0  0  0
    1.5843   29.1513   63.3724 C   0  0  0  0  0
    1.2843   28.3355   62.2960 C   0  0  0  0  0
    0.5322   27.3228   62.7836 C   0  0  0  0  0
    0.3756   26.3451   60.6737 C   0  0  0  0  0
    1.4618   27.3213   58.7240 C   0  0  0  0  0
    2.6898   26.4967   58.4860 C   0  0  0  0  0
    2.6049   25.1420   58.1087 C   0  0  0  0  0
    1.2900   24.4715   57.8957 C   0  0  0  0  0
    3.7752   24.3994   57.9199 C   0  0  0  0  0
    5.0257   24.9941   58.1069 C   0  0  0  0  0
    5.1115   26.3361   58.4843 C   0  0  0  0  0
    3.9468   27.0840   58.6744 C   0  0  0  0  0
    1.6065   28.3735   60.9474 C   0  0  0  0  0
    3.9379   24.2729   65.7664 C   0  0  0  0  0
    4.6482   25.4085   65.3243 C   0  0  0  0  0
    4.6753   27.5721   64.1387 C   0  0  0  0  0
    6.6564   24.5249   66.2174 C   0  0  0  0  0
    4.6618   23.2672   66.4390 C   0  0  0  0  0
    4.6999   21.0875   67.5943 C   0  0  0  0  0
    1.6544   25.2968   65.4249 N   0  0  0  0  0
    0.3698   27.4809   64.1028 N   0  0  0  0  0
    1.0023   28.5909   64.4676 N   0  0  0  0  0
    0.0650   26.3190   62.0046 N   0  0  0  0  0
    1.1394   27.3593   60.1465 N   0  0  0  0  0
    5.9845   25.5041   65.5645 N   0  0  0  0  0
    5.9982   23.4206   66.6460 N   0  0  0  0  0
    2.3079   29.3110   60.4783 O   0  0  0  0  0
    1.9632   22.9908   65.4027 O   0  0  0  0  0
    3.9929   26.4249   64.6225 O   0  0  0  0  0
    4.0109   22.1219   66.9077 O   0  0  0  0  0
  1 23  1  0  0  0
  1 17  1  0  0  0
  2 23  1  0  0  0
  2  3  1  0  0  0
  3 24  1  0  0  0
  4  5  1  0  0  0
  6 26  1  0  0  0
  6 24  1  0  0  0
  7 27  1  0  0  0
  8 27  1  0  0  0
  8  9  1  0  0  0
 10 12  1  0  0  0
 11 10  1  0  0  0
 13 14  1  0  0  0
 15  9  1  0  0  0
 16  5  1  0  0  0
 18 32  1  0  0  0
 18 28  1  0  0  0
 19 32  1  0  0  0
 20 29  1  0  0  0
 21 33  1  0  0  0
 21 17  1  0  0  0
 22 33  1  0  0  0
 24 25  1  0  0  0
 27 16  1  0  0  0
  1 31  2  0  0  0
  4 25  2  0  0  0
  5  6  2  0  0  0
  7 26  2  0  0  0
  9 10  2  0  0  0
 12 13  2  0  0  0
 14 15  2  0  0  0
 16 30  2  0  0  0
 17 18  2  0  0  0
 20 28  2  0  0  0
 21 29  2  0  0  0
M  END
> <rmsd>
0.567477465

$$$$
CMKDAKKRWLRKHR-UHFFFAOYSA-N


 33 36  0  0  0  0  0  0  0  0999 V2000
    2.4909   24.1480   65.5192 C   0  0  0  0  0
    0.2643   25.2470   65.0625 C   0  0  0  0  0
   -0.3333   26.6464   65.0239 C   0  0  0  0  0
    1.6124   29.1509   63.3309 C   0  0  0  0  0
    1.2873   28.3329   62.2637 C   0  0  0  0  0
    0.5322   27.3309   62.7681 C   0  0  0  0  0
    0.3287   26.3466   60.6652 C   0  0  0  0  0
    1.3882   27.2976   58.6918 C   0  0  0  0  0
    2.6882   26.5931   58.4408 C   0  0  0  0  0
    3.8174   27.2865   57.9626 C   0  0  0  0  0
    3.7696   28.7468   57.6644 C   0  0  0  0  0
    5.0155   26.5977   57.7465 C   0  0  0  0  0
    5.0965   25.2262   58.0000 C   0  0  0  0  0
    3.9769   24.5356   58.4690 C   0  0  0  0  0
    2.7770   25.2168   58.6871 C   0  0  0  0  0
    1.5870   28.3618   60.9096 C   0  0  0  0  0
    3.9479   24.2771   65.7721 C   0  0  0  0  0
    4.6636   25.4193   65.3563 C   0  0  0  0  0
    4.7021   27.6080   64.2178 C   0  0  0  0  0
    6.6649   24.5128   66.2414 C   0  0  0  0  0
    4.6662   23.2562   66.4283 C   0  0  0  0  0
    4.6935   21.0541   67.5401 C   0  0  0  0  0
    1.6701   25.3141   65.4282 N   0  0  0  0  0
    0.3916   27.4975   64.0887 N   0  0  0  0  0
    1.0413   28.6025   64.4379 N   0  0  0  0  0
    0.0401   26.3296   62.0013 N   0  0  0  0  0
    1.0956   27.3493   60.1208 N   0  0  0  0  0
    5.9989   25.5064   65.6048 N   0  0  0  0  0
    6.0019   23.4020   66.6446 N   0  0  0  0  0
    2.2888   29.2909   60.4255 O   0  0  0  0  0
    1.9694   23.0075   65.3849 O   0  0  0  0  0
    4.0147   26.4518   64.6723 O   0  0  0  0  0
    4.0103   22.1038   66.8713 O   0  0  0  0  0
  1 23  1  0  0  0
  1 17  1  0  0  0
  2 23  1  0  0  0
  2  3  1  0  0  0
  3 24  1  0  0  0
  4  5  1  0  0  0
  6 26  1  0  0  0
  6 24  1  0  0  0
  7 27  1  0  0  0
  8 27  1  0  0  0
  8  9  1  0  0  0
 10 12  1  0  0  0
 11 10  1  0  0  0
 13 14  1  0  0  0
 15  9  1  0  0  0
 16  5  1  0  0  0
 18 32  1  0  0  0
 18 28  1  0  0  0
 19 32  1  0  0  0
 20 29  1  0  0  0
 21 33  1  0  0  0
 21 17  1  0  0  0
 22 33  1  0  0  0
 24 25  1  0  0  0
 27 16  1  0  0  0
  1 31  2  0  0  0
  4 25  2  0  0  0
  5  6  2  0  0  0
  7 26  2  0  0  0
  9 10  2  0  0  0
 12 13  2  0  0  0
 14 15  2  0  0  0
 16 30  2  0  0  0
 17 18  2  0  0  0
 20 28  2  0  0  0
 21 29  2  0  0  0
M  END
> <rmsd>
0.557128668

$$$$
CMKDAKKRWLRKHR-UHFFFAOYSA-N


 33 36  0  0  0  0  0  0  0  0999 V2000
    2.4749   24.1322   65.5249 C   0  0  0  0  0
    0.2415   25.2144   65.0608 C   0  0  0  0  0
   -0.3691   26.6085   65.0252 C   0  0  0  0  0
    1.5750   29.1510   63.3874 C   0  0  0  0  0
    1.2859   28.3337   62.3092 C   0  0  0  0  0
    0.5338   27.3186   62.7916 C   0  0  0  0  0
    0.3978   26.3387   60.6812 C   0  0  0  0  0
    1.4954   27.3105   58.7386 C   0  0  0  0  0
    2.8054   26.6136   58.5215 C   0  0  0  0  0
    3.9474   27.3163   58.0887 C   0  0  0  0  0
    3.9039   28.7795   57.8047 C   0  0  0  0  0
    5.1548   26.6341   57.9054 C   0  0  0  0  0
    5.2326   25.2601   58.1466 C   0  0  0  0  0
    4.1006   24.5603   58.5703 C   0  0  0  0  0
    2.8913   25.2349   58.7557 C   0  0  0  0  0
    1.6190   28.3718   60.9633 C   0  0  0  0  0
    3.9330   24.2729   65.7631 C   0  0  0  0  0
    4.6599   23.2720   66.4398 C   0  0  0  0  0
    4.7036   21.0993   67.6077 C   0  0  0  0  0
    6.6523   24.5315   66.2063 C   0  0  0  0  0
    4.6408   25.4066   65.3124 C   0  0  0  0  0
    4.6624   27.5624   64.1125 C   0  0  0  0  0
    1.6471   25.2927   65.4252 N   0  0  0  0  0
    0.3612   27.4764   64.1096 N   0  0  0  0  0
    0.9871   28.5887   64.4786 N   0  0  0  0  0
    0.0763   26.3126   62.0095 N   0  0  0  0  0
    1.1630   27.3547   60.1593 N   0  0  0  0  0
    5.9966   23.4287   66.6428 N   0  0  0  0  0
    5.9775   25.5057   65.5490 N   0  0  0  0  0
    2.3192   29.3126   60.4999 O   0  0  0  0  0
    1.9588   22.9870   65.4107 O   0  0  0  0  0
    4.0115   22.1290   66.9170 O   0  0  0  0  0
    3.9825   26.4178   64.6057 O   0  0  0  0  0
  1 23  1  0  0  0
  1 17  1  0  0  0
  2 23  1  0  0  0
  2  3  1  0  0  0
  3 24  1  0  0  0
  4  5  1  0  0  0
  6 26  1  0  0  0
  6 24  1  0  0  0
  7 27  1  0  0  0
  8 27  1  0  0  0
  8  9  1  0  0  0
 10 12  1  0  0  0
 11 10  1  0  0  0
 13 14  1  0  0  0
 15  9  1  0  0  0
 16  5  1  0  0  0
 18 32  1  0  0  0
 18 28  1  0  0  0
 19 32  1  0  0  0
 20 29  1  0  0  0
 21 33  1  0  0  0
 21 17  1  0  0  0
 22 33  1  0  0  0
 24 25  1  0  0  0
 27 16  1  0  0  0
  1 31  2  0  0  0
  4 25  2  0  0  0
  5  6  2  0  0  0
  7 26  2  0  0  0
  9 10  2  0  0  0
 12 13  2  0  0  0
 14 15  2  0  0  0
 16 30  2  0  0  0
 17 18  2  0  0  0
 20 28  2  0  0  0
 21 29  2  0  0  0
M  END
> <rmsd>
0.570708036

$$$$
ZABFJJCHBZXALZ-UHFFFAOYSA-N


 32 34  0  0  0  0  0  0  0  0999 V2000
    4.5551   23.5801   66.3829 C   0  0  0  0  0
    5.0894   25.9802   65.8725 C   0  0  0  0  0
    4.6316   27.3664   65.5517 C   0  0  0  0  0
    2.5207   27.2737   64.8237 C   0  0  0  0  0
    1.6153   27.9214   63.7872 C   0  0  0  0  0
    0.6722   26.6657   61.8855 C   0  0  0  0  0
    0.8648   25.9032   60.6290 C   0  0  0  0  0
    1.9504   26.1029   59.7301 C   0  0  0  0  0
    4.1395   27.5882   58.4526 C   0  0  0  0  0
    2.0500   25.2931   58.5902 C   0  0  0  0  0
    1.1012   24.3081   58.3199 C   0  0  0  0  0
    0.0291   24.1214   59.1879 C   0  0  0  0  0
   -0.0859   24.9132   60.3300 C   0  0  0  0  0
    2.0945   25.8249   65.0586 C   0  0  0  0  0
    2.7188   25.2766   66.3373 C   0  0  0  0  0
    3.7445   22.4269   65.9432 C   0  0  0  0  0
    3.3631   20.0896   65.9421 C   0  0  0  0  0
    2.2693   20.2560   65.0949 C   0  0  0  0  0
    1.9429   21.5464   64.6830 C   0  0  0  0  0
    4.1300   24.9359   66.1424 N   0  0  0  0  0
    4.0792   21.1707   66.3472 N   0  0  0  0  0
    2.6831   22.6026   65.1095 N   0  0  0  0  0
    6.3245   25.7318   65.8503 O   0  0  0  0  0
    3.8527   27.3353   64.3898 O   0  0  0  0  0
    1.7522   27.2670   62.5318 O   0  0  0  0  0
   -0.4775   26.7267   62.4039 O   0  0  0  0  0
    4.0990   27.0035   61.0575 O   0  0  0  0  0
    2.4974   28.6796   60.2359 O   0  0  0  0  0
    5.6436   23.3634   66.9818 O   0  0  0  0  0
    3.1703   27.3699   59.9341 S   0  0  0  0  0
    3.3117   27.8855   57.3866 F   0  0  0  0  0
    4.8559   26.4378   58.1811 F   0  0  0  0  0
  1 20  1  0  0  0
  1 16  1  0  0  0
  3  2  1  0  0  0
  3 24  1  0  0  0
  4 24  1  0  0  0
  4  5  1  0  0  0
  4 14  1  0  0  0
  5 25  1  0  0  0
  6 25  1  0  0  0
  6  7  1  0  0  0
  8 10  1  0  0  0
  9 31  1  0  0  0
  9 32  1  0  0  0
 11 12  1  0  0  0
 13  7  1  0  0  0
 14 15  1  0  0  0
 15 20  1  0  0  0
 16 22  1  0  0  0
 17 21  1  0  0  0
 18 19  1  0  0  0
 20  2  1  0  0  0
 30  8  1  0  0  0
 30  9  1  0  0  0
  1 29  2  0  0  0
  2 23  2  0  0  0
  6 26  2  0  0  0
  7  8  2  0  0  0
 10 11  2  0  0  0
 12 13  2  0  0  0
 16 21  2  0  0  0
 17 18  2  0  0  0
 19 22  2  0  0  0
 30 27  2  0  0  0
 30 28  2  0  0  0
M  END
> <rmsd>
0.569011211

$$$$
IMEJQURUMWYQBH-UHFFFAOYSA-N


 33 36  0  0  0  0  0  0  0  0999 V2000
    3.2736   26.3330   63.3666 C   0  0  0  0  0
    0.8571   25.8946   63.0029 C   0  0  0  0  0
    0.8798   24.7822   64.0067 C   0  0  0  0  0
    0.5161   22.5094   64.3994 C   0  0  0  0  0
    1.7154   21.5998   64.5837 C   0  0  0  0  0
    1.6440   21.9322   67.4758 C   0  0  0  0  0
    2.5329   21.7940   63.3376 C   0  0  0  0  0
    2.1419   23.1635   62.8351 C   0  0  0  0  0
    2.1226   27.3981   61.4228 C   0  0  0  0  0
    1.2701   27.1900   60.3290 C   0  0  0  0  0
    1.3385   28.0234   59.2123 C   0  0  0  0  0
    2.2687   29.0634   59.1950 C   0  0  0  0  0
    3.0448   28.4543   61.3539 C   0  0  0  0  0
    4.4968   25.7303   62.7717 C   0  0  0  0  0
    5.6278   25.3888   63.5472 C   0  0  0  0  0
    6.7164   25.2268   65.7685 C   0  0  0  0  0
    6.4894   25.7842   67.1407 C   0  0  0  0  0
    6.2495   24.5666   68.0048 C   0  0  0  0  0
    6.6952   23.7307   65.9909 C   0  0  0  0  0
    6.7512   24.5675   61.6124 C   0  0  0  0  0
    5.6519   24.8701   60.8141 C   0  0  0  0  0
    4.5276   25.4480   61.3994 C   0  0  0  0  0
    2.0839   26.5281   62.5765 N   0  0  0  0  0
    0.8117   23.4828   63.3507 N   0  0  0  0  0
    3.0961   29.2555   60.2565 N   0  0  0  0  0
    6.7155   24.8283   62.9448 N   0  0  0  0  0
    2.6558   22.0891   66.0242 S   0  0  0  0  0
    3.8555   21.1950   66.1635 O   0  0  0  0  0
    3.1122   23.5145   65.8918 O   0  0  0  0  0
   -0.2537   26.2608   62.5343 O   0  0  0  0  0
    3.2485   26.6444   64.5885 O   0  0  0  0  0
    5.6333   25.6091   64.9292 O   0  0  0  0  0
    5.9895   23.4692   67.1721 O   0  0  0  0  0
  1 23  1  0  0  0
  1 14  1  0  0  0
  3  2  1  0  0  0
  3 24  1  0  0  0
  4 24  1  0  0  0
  4  5  1  0  0  0
  5 27  1  0  0  0
  5  7  1  0  0  0
  7  8  1  0  0  0
  8 24  1  0  0  0
 10 11  1  0  0  0
 12 25  1  0  0  0
 13  9  1  0  0  0
 14 15  1  0  0  0
 15 32  1  0  0  0
 16 32  1  0  0  0
 16 17  1  0  0  0
 17 18  1  0  0  0
 18 33  1  0  0  0
 19 33  1  0  0  0
 19 16  1  0  0  0
 20 26  1  0  0  0
 21 22  1  0  0  0
 23  2  1  0  0  0
 23  9  1  0  0  0
 27  6  1  0  0  0
  1 31  2  0  0  0
  2 30  2  0  0  0
  9 10  2  0  0  0
 11 12  2  0  0  0
 13 25  2  0  0  0
 15 26  2  0  0  0
 20 21  2  0  0  0
 22 14  2  0  0  0
 27 28  2  0  0  0
 27 29  2  0  0  0
M  END
> <rmsd>
0.493304789

$$$$
LZNXRKYRGAOHIX-UHFFFAOYSA-N


 32 35  0  0  0  0  0  0  0  0999 V2000
    4.4734   23.6574   66.1390 C   0  0  0  0  0
    5.0629   25.7653   64.9020 C   0  0  0  0  0
    4.5892   26.9902   64.1780 C   0  0  0  0  0
    2.4263   26.4618   64.5603 C   0  0  0  0  0
    1.0422   27.0354   64.8051 C   0  0  0  0  0
    0.3771   27.6388   62.5025 C   0  0  0  0  0
    0.2339   28.6875   61.4469 C   0  0  0  0  0
    1.5333   29.3724   61.2224 C   0  0  0  0  0
    2.4504   31.7455   61.5797 C   0  0  0  0  0
    3.7631   31.4390   61.1909 C   0  0  0  0  0
    4.7498   32.4290   61.1878 C   0  0  0  0  0
    4.4313   33.7340   61.5730 C   0  0  0  0  0
    3.1276   34.0481   61.9644 C   0  0  0  0  0
    2.1413   33.0574   61.9676 C   0  0  0  0  0
   -0.5708   29.8550   61.9622 C   0  0  0  0  0
    2.6847   25.3131   65.5377 C   0  0  0  0  0
    3.6113   22.4588   66.1207 C   0  0  0  0  0
    3.1609   20.2645   66.8902 C   0  0  0  0  0
    2.0403   20.1921   66.0658 C   0  0  0  0  0
    1.7362   21.2923   65.2661 C   0  0  0  0  0
    4.0843   24.8743   65.4740 N   0  0  0  0  0
    1.4296   30.7354   61.5936 N   0  0  0  0  0
    0.1210   30.9514   62.0295 N   0  0  0  0  0
    3.9242   21.3883   66.9014 N   0  0  0  0  0
    2.5227   22.3993   65.3063 N   0  0  0  0  0
    6.2935   25.4957   64.9324 O   0  0  0  0  0
    3.3944   27.4646   64.7499 O   0  0  0  0  0
    0.7269   27.9987   63.8077 O   0  0  0  0  0
    0.2100   26.4282   62.1936 O   0  0  0  0  0
    2.5720   28.8340   60.7540 O   0  0  0  0  0
    5.5747   23.6048   66.7516 O   0  0  0  0  0
    5.3877   34.6935   61.5716 F   0  0  0  0  0
  1 21  1  0  0  0
  1 17  1  0  0  0
  3  2  1  0  0  0
  3 27  1  0  0  0
  4 27  1  0  0  0
  4  5  1  0  0  0
  4 16  1  0  0  0
  5 28  1  0  0  0
  6 28  1  0  0  0
  7  6  1  0  0  0
  7  8  1  0  0  0
  7 15  1  0  0  0
  8 22  1  0  0  0
 10 11  1  0  0  0
 12 32  1  0  0  0
 12 13  1  0  0  0
 14  9  1  0  0  0
 16 21  1  0  0  0
 17 25  1  0  0  0
 18 24  1  0  0  0
 19 20  1  0  0  0
 21  2  1  0  0  0
 22  9  1  0  0  0
 22 23  1  0  0  0
  1 31  2  0  0  0
  2 26  2  0  0  0
  6 29  2  0  0  0
  8 30  2  0  0  0
  9 10  2  0  0  0
 11 12  2  0  0  0
 13 14  2  0  0  0
 15 23  2  0  0  0
 17 24  2  0  0  0
 18 19  2  0  0  0
 20 25  2  0  0  0
M  END
> <rmsd>
0.576371312

$$$$
VLABKECUMYVKHG-UHFFFAOYSA-N


 32 35  0  0  0  0  0  0  0  0999 V2000
    4.5905   23.5987   66.4108 C   0  0  0  0  0
    2.9898   25.3657   65.6152 C   0  0  0  0  0
    2.9278   26.8851   65.5016 C   0  0  0  0  0
    3.6693   28.7532   64.3066 C   0  0  0  0  0
    3.2647   29.0297   62.8689 C   0  0  0  0  0
    1.4895   28.3562   61.2944 C   0  0  0  0  0
    0.3557   27.4731   60.9993 C   0  0  0  0  0
   -1.3017   26.6993   59.5012 C   0  0  0  0  0
   -1.7502   25.7848   60.4528 C   0  0  0  0  0
   -1.1113   25.7413   61.6987 C   0  0  0  0  0
   -0.9087   24.8470   64.0377 C   0  0  0  0  0
   -0.9804   23.4598   64.6779 C   0  0  0  0  0
   -2.6034   22.6991   63.3202 C   0  0  0  0  0
   -2.7332   23.9954   62.5213 C   0  0  0  0  0
    5.2314   27.1662   65.0423 C   0  0  0  0  0
    5.4730   25.7420   65.4473 C   0  0  0  0  0
    3.6815   22.4616   66.1526 C   0  0  0  0  0
    2.9935   20.2531   66.6584 C   0  0  0  0  0
    2.0256   20.3124   65.6589 C   0  0  0  0  0
    1.9194   21.4829   64.9110 C   0  0  0  0  0
    4.3647   24.9012   65.8359 N   0  0  0  0  0
    3.8862   27.3282   64.4957 N   0  0  0  0  0
   -0.2617   27.5246   59.7880 N   0  0  0  0  0
   -1.5318   24.8114   62.7124 N   0  0  0  0  0
   -0.0718   26.5872   61.9385 N   0  0  0  0  0
    3.8019   21.3205   66.8852 N   0  0  0  0  0
    2.7455   22.5293   65.1671 N   0  0  0  0  0
    2.0882   28.2987   62.5543 O   0  0  0  0  0
    1.9213   29.1496   60.4133 O   0  0  0  0  0
   -2.3055   22.9923   64.6626 O   0  0  0  0  0
    6.6549   25.3076   65.4754 O   0  0  0  0  0
    5.5899   23.4168   67.1599 O   0  0  0  0  0
  1 21  1  0  0  0
  1 17  1  0  0  0
  2 21  1  0  0  0
  2  3  1  0  0  0
  3 22  1  0  0  0
  4 22  1  0  0  0
  4  5  1  0  0  0
  5 28  1  0  0  0
  6 28  1  0  0  0
  6  7  1  0  0  0
  7 25  1  0  0  0
  8 23  1  0  0  0
  9 10  1  0  0  0
 10 24  1  0  0  0
 11 24  1  0  0  0
 11 12  1  0  0  0
 12 30  1  0  0  0
 13 30  1  0  0  0
 13 14  1  0  0  0
 14 24  1  0  0  0
 15 22  1  0  0  0
 15 16  1  0  0  0
 16 21  1  0  0  0
 17 27  1  0  0  0
 18 26  1  0  0  0
 19 20  1  0  0  0
  1 32  2  0  0  0
  6 29  2  0  0  0
  7 23  2  0  0  0
  8  9  2  0  0  0
 10 25  2  0  0  0
 16 31  2  0  0  0
 17 26  2  0  0  0
 18 19  2  0  0  0
 20 27  2  0  0  0
M  END
> <rmsd>
0.601988196

$$$$
AKVGHCKMZDLCGQ-UHFFFAOYSA-N


 33 36  0  0  0  0  0  0  0  0999 V2000
    4.5590   23.6628   66.1387 C   0  0  0  0  0
    5.2312   25.7258   64.8650 C   0  0  0  0  0
    4.8128   26.8998   64.0296 C   0  0  0  0  0
    2.6442   26.2849   64.1377 C   0  0  0  0  0
    1.2152   26.7920   64.1431 C   0  0  0  0  0
    0.1276   27.4879   62.0475 C   0  0  0  0  0
    0.0831   28.4279   60.8924 C   0  0  0  0  0
    2.3632   28.1792   59.9596 C   0  0  0  0  0
    4.5133   27.8219   59.0408 C   0  0  0  0  0
    5.0953   28.5141   60.1014 C   0  0  0  0  0
    4.2606   29.0355   61.0878 C   0  0  0  0  0
    2.8080   25.1993   65.2026 C   0  0  0  0  0
    3.7299   22.4410   66.1153 C   0  0  0  0  0
    1.9881   21.1618   65.1513 C   0  0  0  0  0
    2.2221   20.1347   66.0620 C   0  0  0  0  0
    3.2454   20.2911   67.0044 C   0  0  0  0  0
    2.8352   17.9684   67.9007 C   0  0  0  0  0
    2.7466   17.3634   69.3016 C   0  0  0  0  0
    4.3766   18.6445   70.1746 C   0  0  0  0  0
    4.6607   19.4031   68.8782 C   0  0  0  0  0
    4.2186   24.8212   65.3520 N   0  0  0  0  0
    3.1644   27.6678   58.9880 N   0  0  0  0  0
    2.9163   28.8614   61.0010 N   0  0  0  0  0
    2.7433   22.2892   65.1911 N   0  0  0  0  0
    3.5232   19.2603   67.9674 N   0  0  0  0  0
    3.9742   21.4416   67.0061 N   0  0  0  0  0
    6.4563   25.5034   65.0565 O   0  0  0  0  0
    3.5316   27.3417   64.4086 O   0  0  0  0  0
    1.0361   27.7161   63.0804 O   0  0  0  0  0
   -0.6204   26.4734   62.0554 O   0  0  0  0  0
    0.9801   27.9969   59.8747 O   0  0  0  0  0
    5.5879   23.6824   66.8681 O   0  0  0  0  0
    4.0255   17.3152   69.8824 O   0  0  0  0  0
  1 21  1  0  0  0
  1 13  1  0  0  0
  3  2  1  0  0  0
  3 28  1  0  0  0
  4 28  1  0  0  0
  4  5  1  0  0  0
  4 12  1  0  0  0
  5 29  1  0  0  0
  6 29  1  0  0  0
  7  6  1  0  0  0
  7 31  1  0  0  0
  8 31  1  0  0  0
  8 23  1  0  0  0
  9 22  1  0  0  0
 10 11  1  0  0  0
 12 21  1  0  0  0
 13 26  1  0  0  0
 14 24  1  0  0  0
 15 16  1  0  0  0
 16 25  1  0  0  0
 17 25  1  0  0  0
 17 18  1  0  0  0
 18 33  1  0  0  0
 19 33  1  0  0  0
 19 20  1  0  0  0
 20 25  1  0  0  0
 21  2  1  0  0  0
  1 32  2  0  0  0
  2 27  2  0  0  0
  6 30  2  0  0  0
  8 22  2  0  0  0
  9 10  2  0  0  0
 11 23  2  0  0  0
 13 24  2  0  0  0
 14 15  2  0  0  0
 16 26  2  0  0  0
M  END
> <rmsd>
0.638765037

$$$$
RSTDNSXAQZVCTQ-UHFFFAOYSA-N


 34 37  0  0  0  0  0  0  0  0999 V2000
    4.5865   24.8063   64.7675 C   0  0  0  0  0
    2.9256   24.3097   63.0388 C   0  0  0  0  0
    1.7800   24.6732   62.3005 C   0  0  0  0  0
    1.2650   23.8033   61.3271 C   0  0  0  0  0
    1.8853   22.5786   61.0760 C   0  0  0  0  0
    3.0257   22.2150   61.7927 C   0  0  0  0  0
    3.5431   23.0739   62.7644 C   0  0  0  0  0
    1.1833   25.9109   62.5520 C   0  0  0  0  0
    1.0986   28.0555   63.7251 C   0  0  0  0  0
    1.8961   29.1698   63.0548 C   0  0  0  0  0
    1.7932   29.0876   61.5701 C   0  0  0  0  0
    0.3967   29.1371   59.5446 C   0  0  0  0  0
   -1.0666   29.2820   59.1719 C   0  0  0  0  0
   -1.8441   28.0601   59.6211 C   0  0  0  0  0
    2.8253   26.3783   64.2068 C   0  0  0  0  0
    4.5445   23.6787   65.7098 C   0  0  0  0  0
    5.8796   21.4555   68.0542 C   0  0  0  0  0
    7.2409   21.7253   68.2585 C   0  0  0  0  0
    7.9856   20.9570   69.1583 C   0  0  0  0  0
    7.3744   19.9141   69.8597 C   0  0  0  0  0
    8.1661   19.0977   70.8161 C   0  0  0  0  0
    6.0185   19.6391   69.6617 C   0  0  0  0  0
    5.2734   20.4071   68.7620 C   0  0  0  0  0
    3.4243   25.1632   63.9911 N   0  0  0  0  0
    1.7194   26.7483   63.4885 N   0  0  0  0  0
    3.4394   22.9553   65.9824 N   0  0  0  0  0
    3.8305   22.0618   66.8764 N   0  0  0  0  0
    5.1160   22.2430   67.1315 N   0  0  0  0  0
    5.6029   23.2483   66.4227 N   0  0  0  0  0
    0.1497   26.2530   61.9101 O   0  0  0  0  0
    0.5497   29.2312   60.9538 O   0  0  0  0  0
    2.8338   28.8899   60.8872 O   0  0  0  0  0
    3.2900   27.1615   65.0845 O   0  0  0  0  0
    5.6425   25.4860   64.6591 O   0  0  0  0  0
  1 24  1  0  0  0
  1 16  1  0  0  0
  2  3  1  0  0  0
  3  8  1  0  0  0
  4  5  1  0  0  0
  6  7  1  0  0  0
  8 25  1  0  0  0
  9 25  1  0  0  0
  9 10  1  0  0  0
 10 11  1  0  0  0
 11 31  1  0  0  0
 12 31  1  0  0  0
 12 13  1  0  0  0
 13 14  1  0  0  0
 15 24  1  0  0  0
 16 26  1  0  0  0
 18 19  1  0  0  0
 20 22  1  0  0  0
 21 20  1  0  0  0
 23 17  1  0  0  0
 24  2  1  0  0  0
 25 15  1  0  0  0
 28 27  1  0  0  0
 28 17  1  0  0  0
 28 29  1  0  0  0
  1 34  2  0  0  0
  3  4  2  0  0  0
  5  6  2  0  0  0
  7  2  2  0  0  0
  8 30  2  0  0  0
 11 32  2  0  0  0
 15 33  2  0  0  0
 16 29  2  0  0  0
 17 18  2  0  0  0
 19 20  2  0  0  0
 22 23  2  0  0  0
 26 27  2  0  0  0
M  END
> <rmsd>
0.698653281

$$$$
VCEPFIYAXWJFBX-UHFFFAOYSA-N


 31 34  0  0  0  0  0  0  0  0999 V2000
    4.5650   23.6434   66.1479 C   0  0  0  0  0
    5.2794   25.7382   64.9509 C   0  0  0  0  0
    4.8877   26.9388   64.1409 C   0  0  0  0  0
    2.7133   26.3367   64.1834 C   0  0  0  0  0
    1.2875   26.8529   64.1689 C   0  0  0  0  0
    0.2715   27.5902   62.0519 C   0  0  0  0  0
    0.2673   28.5498   60.9061 C   0  0  0  0  0
    1.5510   28.4633   60.0839 C   0  0  0  0  0
    3.9749   28.3711   60.5259 C   0  0  0  0  0
    4.1326   27.4633   59.4692 C   0  0  0  0  0
    5.4126   27.0744   59.0650 C   0  0  0  0  0
    6.5348   27.5739   59.7347 C   0  0  0  0  0
    6.3763   28.4626   60.8044 C   0  0  0  0  0
    5.0956   28.8627   61.2005 C   0  0  0  0  0
    1.7038   27.0885   59.4188 C   0  0  0  0  0
    2.8460   25.2212   65.2210 C   0  0  0  0  0
    3.7264   22.4302   66.0715 C   0  0  0  0  0
    1.9945   21.1945   65.0303 C   0  0  0  0  0
    2.2002   20.1413   65.9180 C   0  0  0  0  0
    3.1984   20.2677   66.8810 C   0  0  0  0  0
    4.2502   24.8276   65.3891 N   0  0  0  0  0
    2.7589   22.3137   65.1205 N   0  0  0  0  0
    3.9420   21.4032   66.9392 N   0  0  0  0  0
    6.4986   25.5015   65.1628 O   0  0  0  0  0
    3.6011   27.3794   64.5032 O   0  0  0  0  0
    1.1386   27.8021   63.1239 O   0  0  0  0  0
   -0.4842   26.5820   62.0212 O   0  0  0  0  0
    2.6898   28.7781   60.8917 O   0  0  0  0  0
    2.9986   26.9575   58.8297 O   0  0  0  0  0
    5.5792   23.6323   66.8977 O   0  0  0  0  0
    1.2285   18.6890   65.8227 Cl  0  0  0  0  0
  1 21  1  0  0  0
  1 17  1  0  0  0
  3  2  1  0  0  0
  3 25  1  0  0  0
  4 25  1  0  0  0
  4  5  1  0  0  0
  4 16  1  0  0  0
  5 26  1  0  0  0
  6 26  1  0  0  0
  7  6  1  0  0  0
  7  8  1  0  0  0
  8 28  1  0  0  0
  9 28  1  0  0  0
 10 11  1  0  0  0
 10 29  1  0  0  0
 12 13  1  0  0  0
 14  9  1  0  0  0
 15 29  1  0  0  0
 15  8  1  0  0  0
 16 21  1  0  0  0
 17 23  1  0  0  0
 18 22  1  0  0  0
 19 31  1  0  0  0
 19 20  1  0  0  0
 21  2  1  0  0  0
  1 30  2  0  0  0
  2 24  2  0  0  0
  6 27  2  0  0  0
  9 10  2  0  0  0
 11 12  2  0  0  0
 13 14  2  0  0  0
 17 22  2  0  0  0
 18 19  2  0  0  0
 20 23  2  0  0  0
M  END
> <rmsd>
0.596784949

$$$$
KQZIDBXMMNSLKU-UHFFFAOYSA-N


 35 37  0  0  0  0  0  0  0  0999 V2000
    4.4577   24.7149   65.6731 C   0  0  0  0  0
    2.4905   24.0118   64.2587 C   0  0  0  0  0
    1.4423   24.3320   63.2319 C   0  0  0  0  0
    1.1593   25.8294   63.1717 C   0  0  0  0  0
    0.1942   26.1269   62.0756 C   0  0  0  0  0
   -0.3273   26.1372   59.6575 C   0  0  0  0  0
   -0.2628   27.6280   59.3498 C   0  0  0  0  0
    1.0684   28.0037   58.7178 C   0  0  0  0  0
    2.4563   26.5911   62.9492 C   0  0  0  0  0
    3.3773   26.3282   64.0949 C   0  0  0  0  0
    4.1713   23.7626   66.8019 C   0  0  0  0  0
    3.7349   24.5172   68.0464 C   0  0  0  0  0
    5.2261   21.5457   66.8644 C   0  0  0  0  0
    6.3175   20.7270   67.1423 C   0  0  0  0  0
    7.4821   21.2922   67.6495 C   0  0  0  0  0
    7.5349   22.6703   67.8727 C   0  0  0  0  0
    8.7532   23.3106   68.4122 C   0  0  0  0  0
    9.8947   22.5500   68.7152 C   0  0  0  0  0
   11.0418   23.1649   69.2251 C   0  0  0  0  0
   11.0588   24.5457   69.4369 C   0  0  0  0  0
    9.9292   25.3119   69.1390 C   0  0  0  0  0
    8.7821   24.6971   68.6290 C   0  0  0  0  0
    3.4540   25.0083   64.6763 N   0  0  0  0  0
    2.1115   28.0435   59.7276 N   0  0  0  0  0
    2.7278   29.0868   59.9388 N   0  0  0  0  0
    3.3445   30.1297   60.1509 N   0  0  0  0  0
    5.3143   22.8915   67.0896 N   0  0  0  0  0
    6.4384   23.4236   67.5833 N   0  0  0  0  0
    2.5540   22.8316   64.6928 O   0  0  0  0  0
    0.5193   25.8083   60.7532 O   0  0  0  0  0
   -0.9097   26.6669   62.3555 O   0  0  0  0  0
    4.0459   27.2852   64.5691 O   0  0  0  0  0
    5.5662   25.3172   65.6422 O   0  0  0  0  0
    4.1684   21.0320   66.4111 O   0  0  0  0  0
   12.1702   25.1415   69.9312 F   0  0  0  0  0
  1 23  1  0  0  0
  3  2  1  0  0  0
  3  4  1  0  0  0
  4  5  1  0  0  0
  4  9  1  0  0  0
  5 30  1  0  0  0
  6 30  1  0  0  0
  6  7  1  0  0  0
  7  8  1  0  0  0
  8 24  1  0  0  0
  9 10  1  0  0  0
 10 23  1  0  0  0
 11  1  1  0  0  0
 11 12  1  0  0  0
 11 27  1  0  0  0
 13 14  1  0  0  0
 15 16  1  0  0  0
 16 17  1  0  0  0
 18 19  1  0  0  0
 20 35  1  0  0  0
 20 21  1  0  0  0
 22 17  1  0  0  0
 23  2  1  0  0  0
 27 13  1  0  0  0
 27 28  1  0  0  0
  1 33  2  0  0  0
  2 29  2  0  0  0
  5 31  2  0  0  0
 10 32  2  0  0  0
 13 34  2  0  0  0
 14 15  2  0  0  0
 16 28  2  0  0  0
 17 18  2  0  0  0
 19 20  2  0  0  0
 21 22  2  0  0  0
 24 25  2  0  0  0
 25 26  2  0  0  0
M  CHG  2  25   1  26  -1
M  END
> <rmsd>
0.689888418

$$$$
UFFWAKBKWUDLMI-UHFFFAOYSA-N


 29 31  0  0  0  0  0  0  0  0999 V2000
    4.5808   23.6550   66.1416 C   0  0  0  0  0
    5.2568   25.7493   64.9170 C   0  0  0  0  0
    4.8419   26.9316   64.0914 C   0  0  0  0  0
    2.6775   26.2979   64.1538 C   0  0  0  0  0
    1.2445   26.7931   64.1479 C   0  0  0  0  0
    0.1561   27.4996   62.0571 C   0  0  0  0  0
    0.0634   28.4785   60.9379 C   0  0  0  0  0
    2.3090   28.3131   59.9163 C   0  0  0  0  0
    3.1558   27.8471   58.7877 C   0  0  0  0  0
    2.8334   25.1970   65.2043 C   0  0  0  0  0
    3.7193   22.4577   66.1407 C   0  0  0  0  0
    2.2363   21.0677   65.6740 C   0  0  0  0  0
    0.8851   19.1568   65.6304 C   0  0  0  0  0
   -0.2684   18.4038   65.0733 C   0  0  0  0  0
    1.6676   18.5800   66.6517 C   0  0  0  0  0
    2.7507   19.3082   67.1618 C   0  0  0  0  0
    3.6074   18.7414   68.2403 C   0  0  0  0  0
    4.2444   24.8288   65.3748 N   0  0  0  0  0
    2.6543   22.2904   65.3084 N   0  0  0  0  0
    1.1794   20.4011   65.1489 N   0  0  0  0  0
    2.9861   20.5373   66.6396 N   0  0  0  0  0
    3.9371   21.3935   66.9547 N   0  0  0  0  0
    6.4808   25.5365   65.1262 O   0  0  0  0  0
    3.5513   27.3574   64.4559 O   0  0  0  0  0
    1.0650   27.7240   63.0907 O   0  0  0  0  0
   -0.5583   26.4613   62.0374 O   0  0  0  0  0
    0.9297   28.0963   59.8757 O   0  0  0  0  0
    2.8448   28.9027   60.8926 O   0  0  0  0  0
    5.6345   23.6370   66.8339 O   0  0  0  0  0
  1 18  1  0  0  0
  1 11  1  0  0  0
  3  2  1  0  0  0
  3 24  1  0  0  0
  4 24  1  0  0  0
  4  5  1  0  0  0
  4 10  1  0  0  0
  5 25  1  0  0  0
  6 25  1  0  0  0
  7  6  1  0  0  0
  7 27  1  0  0  0
  8 27  1  0  0  0
  9  8  1  0  0  0
 10 18  1  0  0  0
 11 19  1  0  0  0
 12 20  1  0  0  0
 13 15  1  0  0  0
 14 13  1  0  0  0
 16 21  1  0  0  0
 17 16  1  0  0  0
 18  2  1  0  0  0
 21 22  1  0  0  0
 21 12  1  0  0  0
  1 29  2  0  0  0
  2 23  2  0  0  0
  6 26  2  0  0  0
  8 28  2  0  0  0
 11 22  2  0  0  0
 12 19  2  0  0  0
 13 20  2  0  0  0
 15 16  2  0  0  0
M  END
> <rmsd>
0.595952272

$$$$
RAGPZSOOEGPRRU-UHFFFAOYSA-N


 30 32  0  0  0  0  0  0  0  0999 V2000
    2.0629   28.0677   61.1646 C   0  0  0  0  0
    0.7356   25.9471   61.5142 C   0  0  0  0  0
    0.7874   24.4508   61.5695 C   0  0  0  0  0
    1.3869   22.7554   63.2680 C   0  0  0  0  0
    2.1900   22.4038   64.4585 C   0  0  0  0  0
    3.9517   23.0344   65.9244 C   0  0  0  0  0
    4.5723   25.2467   67.6647 C   0  0  0  0  0
    2.8240   20.9999   66.3120 C   0  0  0  0  0
    2.0011   21.2202   65.2080 C   0  0  0  0  0
    1.4481   23.8788   60.3142 C   0  0  0  0  0
    2.7692   24.5803   60.0290 C   0  0  0  0  0
    2.5098   26.0566   59.7531 C   0  0  0  0  0
    1.5844   28.7041   62.4313 C   0  0  0  0  0
    2.4357   28.2841   63.5805 C   0  0  0  0  0
    2.1794   27.2397   64.4493 C   0  0  0  0  0
    5.2969   28.3799   65.7360 C   0  0  0  0  0
    3.6436   28.8386   63.9462 C   0  0  0  0  0
    1.7902   26.6852   60.8629 N   0  0  0  0  0
    3.1598   23.2769   64.8479 N   0  0  0  0  0
    3.7800   21.9006   66.6496 N   0  0  0  0  0
    3.2045   27.1803   65.3216 N   0  0  0  0  0
    4.0653   28.1344   65.0093 N   0  0  0  0  0
   -0.2234   26.5450   62.0712 O   0  0  0  0  0
    1.4964   24.0430   62.7348 O   0  0  0  0  0
    0.6205   21.9150   62.7248 O   0  0  0  0  0
    6.4017   23.4479   66.8784 O   0  0  0  0  0
    5.5795   25.0101   65.1857 O   0  0  0  0  0
    2.7685   28.7565   60.3803 O   0  0  0  0  0
    5.1911   24.1850   66.3808 S   0  0  0  0  0
    0.6603   19.8988   64.8475 Br  0  0  0  0  0
  1 18  1  0  0  0
  3  2  1  0  0  0
  3 24  1  0  0  0
  3 10  1  0  0  0
  4 24  1  0  0  0
  4  5  1  0  0  0
  6 19  1  0  0  0
  8 20  1  0  0  0
  9 30  1  0  0  0
  9  5  1  0  0  0
 10 11  1  0  0  0
 11 12  1  0  0  0
 12 18  1  0  0  0
 13  1  1  0  0  0
 13 14  1  0  0  0
 14 15  1  0  0  0
 16 22  1  0  0  0
 18  2  1  0  0  0
 22 21  1  0  0  0
 22 17  1  0  0  0
 29  6  1  0  0  0
 29  7  1  0  0  0
  1 28  2  0  0  0
  2 23  2  0  0  0
  4 25  2  0  0  0
  5 19  2  0  0  0
  6 20  2  0  0  0
  8  9  2  0  0  0
 15 21  2  0  0  0
 17 14  2  0  0  0
 29 26  2  0  0  0
 29 27  2  0  0  0
M  END
> <rmsd>
0.552333176

$$$$
KKUCPKKDOPZVRM-UHFFFAOYSA-N


 33 36  0  0  0  0  0  0  0  0999 V2000
    2.4470   25.0313   62.8961 C   0  0  0  0  0
    3.4317   25.5738   65.1200 C   0  0  0  0  0
    4.5190   25.2538   66.0938 C   0  0  0  0  0
    6.7934   25.9604   66.4826 C   0  0  0  0  0
    6.4022   27.2945   67.0965 C   0  0  0  0  0
    7.6008   27.9480   66.4346 C   0  0  0  0  0
    7.9955   26.6148   65.8268 C   0  0  0  0  0
    7.2131   24.9125   67.5312 C   0  0  0  0  0
    7.5189   22.6376   67.9784 C   0  0  0  0  0
    7.0956   23.3155   65.7839 C   0  0  0  0  0
    6.2609   24.2098   64.8540 C   0  0  0  0  0
    3.0192   23.1899   64.4778 C   0  0  0  0  0
    3.1270   20.7958   64.5755 C   0  0  0  0  0
    3.1884   19.3259   64.3670 C   0  0  0  0  0
    3.1025   26.1183   62.1307 C   0  0  0  0  0
    2.3802   27.0153   61.3007 C   0  0  0  0  0
    3.0839   27.9685   60.5328 C   0  0  0  0  0
    3.0140   29.8533   58.9243 C   0  0  0  0  0
    4.4836   28.0273   60.6081 C   0  0  0  0  0
    5.1871   27.1547   61.4336 C   0  0  0  0  0
    4.4999   26.2064   62.1860 C   0  0  0  0  0
    2.9786   24.5955   64.1625 N   0  0  0  0  0
    5.8264   25.4761   65.4756 N   0  0  0  0  0
    6.7501   23.5709   67.1766 N   0  0  0  0  0
    3.1296   21.3776   65.7939 N   0  0  0  0  0
    3.0714   22.7072   65.7406 N   0  0  0  0  0
    0.9434   27.0052   61.2716 N   0  0  0  0  0
    2.9582   26.7416   65.1059 O   0  0  0  0  0
    1.4389   24.4482   62.4117 O   0  0  0  0  0
    0.2716   27.1570   60.0806 O   0  0  0  0  0
    0.2931   26.9864   62.3370 O   0  0  0  0  0
    2.3767   28.8632   59.7205 O   0  0  0  0  0
    3.0509   21.9387   63.3430 S   0  0  0  0  0
  1 22  1  0  0  0
  1 15  1  0  0  0
  3  2  1  0  0  0
  3 23  1  0  0  0
  4 23  1  0  0  0
  4  5  1  0  0  0
  4  8  1  0  0  0
  5  6  1  0  0  0
  6  7  1  0  0  0
  7  4  1  0  0  0
  8 24  1  0  0  0
  9 24  1  0  0  0
 10 24  1  0  0  0
 10 11  1  0  0  0
 11 23  1  0  0  0
 12 33  1  0  0  0
 13 33  1  0  0  0
 14 13  1  0  0  0
 16 27  1  0  0  0
 16 17  1  0  0  0
 17 32  1  0  0  0
 18 32  1  0  0  0
 19 20  1  0  0  0
 21 15  1  0  0  0
 22  2  1  0  0  0
 22 12  1  0  0  0
 25 26  1  0  0  0
 27 30  1  0  0  0
  1 29  2  0  0  0
  2 28  2  0  0  0
 12 26  2  0  0  0
 13 25  2  0  0  0
 15 16  2  0  0  0
 17 19  2  0  0  0
 20 21  2  0  0  0
 27 31  2  0  0  0
M  CHG  2  27   1  30  -1
M  END
> <rmsd>
0.736173809

$$$$
MQSCJWJWHBNUMZ-UHFFFAOYSA-N


 34 38  0  0  0  0  0  0  0  0999 V2000
    2.5114   27.9784   61.5489 C   0  0  0  0  0
    0.4242   26.6959   62.0481 C   0  0  0  0  0
    1.1484   25.3912   61.9081 C   0  0  0  0  0
    2.3189   24.0218   63.3967 C   0  0  0  0  0
    2.0883   22.6401   63.9614 C   0  0  0  0  0
    2.9217   21.9848   66.1863 C   0  0  0  0  0
    2.8091   22.0577   67.5813 C   0  0  0  0  0
    3.6934   21.3281   68.3774 C   0  0  0  0  0
    4.6779   20.5392   67.7823 C   0  0  0  0  0
    4.7636   20.4921   66.3897 C   0  0  0  0  0
    0.7330   22.2333   63.4408 C   0  0  0  0  0
    0.1440   23.4796   62.8102 C   0  0  0  0  0
    0.3116   29.1653   61.6115 C   0  0  0  0  0
    0.8924   30.3350   62.3930 C   0  0  0  0  0
   -0.3285   29.6166   62.9145 C   0  0  0  0  0
    3.4949   27.4958   62.5374 C   0  0  0  0  0
    4.8201   27.2476   62.1621 C   0  0  0  0  0
    5.7423   26.7951   63.1060 C   0  0  0  0  0
    5.3321   26.6003   64.4263 C   0  0  0  0  0
    5.9169   25.9249   66.7327 C   0  0  0  0  0
    7.1657   25.6359   67.5108 C   0  0  0  0  0
    6.9516   24.2379   68.0390 C   0  0  0  0  0
    5.1109   24.6509   66.8662 C   0  0  0  0  0
    3.1268   27.2968   63.8735 C   0  0  0  0  0
    1.1021   27.9525   61.8374 N   0  0  0  0  0
    1.0150   24.6048   63.1241 N   0  0  0  0  0
    3.8930   21.2071   65.6288 N   0  0  0  0  0
    4.0406   26.8569   64.7789 N   0  0  0  0  0
    2.0420   22.7098   65.3796 O   0  0  0  0  0
   -0.8103   26.6781   62.3057 O   0  0  0  0  0
    2.9095   28.4450   60.4470 O   0  0  0  0  0
    6.2580   26.1471   65.3692 O   0  0  0  0  0
    5.9752   23.6169   67.2503 O   0  0  0  0  0
    1.5775   23.0473   68.3425 Cl  0  0  0  0  0
  1 25  1  0  0  0
  1 16  1  0  0  0
  3  2  1  0  0  0
  3 26  1  0  0  0
  4 26  1  0  0  0
  4  5  1  0  0  0
  5 29  1  0  0  0
  5 11  1  0  0  0
  6 29  1  0  0  0
  6 27  1  0  0  0
  7 34  1  0  0  0
  7  8  1  0  0  0
  9 10  1  0  0  0
 11 12  1  0  0  0
 12 26  1  0  0  0
 13 25  1  0  0  0
 13 14  1  0  0  0
 14 15  1  0  0  0
 15 13  1  0  0  0
 17 18  1  0  0  0
 19 32  1  0  0  0
 19 28  1  0  0  0
 20 32  1  0  0  0
 20 21  1  0  0  0
 21 22  1  0  0  0
 22 33  1  0  0  0
 23 33  1  0  0  0
 23 20  1  0  0  0
 24 16  1  0  0  0
 25  2  1  0  0  0
  1 31  2  0  0  0
  2 30  2  0  0  0
  6  7  2  0  0  0
  8  9  2  0  0  0
 10 27  2  0  0  0
 16 17  2  0  0  0
 18 19  2  0  0  0
 24 28  2  0  0  0
M  END
> <rmsd>
0.663029194

$$$$
YTJUJUKTWOXXSD-UHFFFAOYSA-N


 29 31  0  0  0  0  0  0  0  0999 V2000
    2.2983   25.7351   64.3276 O   0  0  0  0  0
    4.1544   26.8305   65.1282 O   0  0  0  0  0
    6.2812   25.4768   65.8489 O   0  0  0  0  0
    1.8996   23.3798   65.3889 O   0  0  0  0  0
    0.3290   26.2067   61.9672 O   0  0  0  0  0
    3.5197   25.7465   65.0089 C   0  0  0  0  0
    4.0640   24.4889   65.5907 C   0  0  0  0  0
    5.4139   24.3898   65.9954 C   0  0  0  0  0
    7.6450   25.4158   66.2396 C   0  0  0  0  0
    5.0730   22.1447   66.6683 C   0  0  0  0  0
    3.2482   23.3482   65.7559 C   0  0  0  0  0
    1.0461   22.2551   65.5404 C   0  0  0  0  0
    1.7468   26.8987   63.7236 C   0  0  0  0  0
    2.4218   27.1520   62.4035 C   0  0  0  0  0
    1.1794   27.7795   60.3251 C   0  0  0  0  0
    0.2775   27.4700   59.2855 C   0  0  0  0  0
    0.1259   28.3673   58.2275 C   0  0  0  0  0
    0.8466   29.5643   58.2019 C   0  0  0  0  0
    0.7226   30.5066   57.0405 C   0  0  0  0  0
    1.7562   29.8193   59.2319 C   0  0  0  0  0
    0.3117   26.6132   63.3112 C   0  0  0  0  0
    5.8779   23.2240   66.5221 N   0  0  0  0  0
    3.7749   22.2116   66.2878 N   0  0  0  0  0
    1.3742   26.8925   61.4406 N   0  0  0  0  0
    1.8974   28.9369   60.2557 N   0  0  0  0  0
   -0.6227   25.9624   59.2228 Cl  0  0  0  0  0
   -0.5536   30.4493   56.5075 F   0  0  0  0  0
    1.6359   30.1524   56.0650 F   0  0  0  0  0
    0.9737   31.8063   57.4449 F   0  0  0  0  0
  6  1  1  0  0  0
  6  7  1  0  0  0
  8  3  1  0  0  0
  8 22  1  0  0  0
  9  3  1  0  0  0
 10 23  1  0  0  0
 11  4  1  0  0  0
 11  7  1  0  0  0
 12  4  1  0  0  0
 13  1  1  0  0  0
 13 14  1  0  0  0
 14 24  1  0  0  0
 15 25  1  0  0  0
 16 26  1  0  0  0
 16 17  1  0  0  0
 18 20  1  0  0  0
 19 18  1  0  0  0
 19 27  1  0  0  0
 19 28  1  0  0  0
 19 29  1  0  0  0
 21  5  1  0  0  0
 21 13  1  0  0  0
 24 15  1  0  0  0
 24  5  1  0  0  0
  6  2  2  0  0  0
  7  8  2  0  0  0
 10 22  2  0  0  0
 11 23  2  0  0  0
 15 16  2  0  0  0
 17 18  2  0  0  0
 20 25  2  0  0  0
M  END
> <rmsd>
0.709280014

$$$$
NROXHBAFTMQTQY-UHFFFAOYSA-N


 34 38  0  0  0  0  0  0  0  0999 V2000
    2.6509   24.3393   64.9797 C   0  0  0  0  0
    0.8729   25.2846   63.4057 C   0  0  0  0  0
    1.3183   27.0983   61.7397 C   0  0  0  0  0
    0.8013   27.9602   60.7705 C   0  0  0  0  0
   -0.4588   28.1497   60.2334 C   0  0  0  0  0
    1.3568   30.6264   58.3937 C   0  0  0  0  0
    0.4491   31.2621   57.5324 C   0  0  0  0  0
    0.8756   32.2854   56.6809 C   0  0  0  0  0
    2.2149   32.6831   56.6827 C   0  0  0  0  0
    3.1274   32.0576   57.5357 C   0  0  0  0  0
    2.7003   31.0345   58.3868 C   0  0  0  0  0
    1.6121   28.8546   60.1502 C   0  0  0  0  0
    3.4542   28.1170   61.3777 C   0  0  0  0  0
   -1.2168   24.9632   62.9865 C   0  0  0  0  0
   -2.6142   24.4574   62.9986 C   0  0  0  0  0
   -0.2004   24.5061   63.8073 C   0  0  0  0  0
    4.0526   24.4155   65.4682 C   0  0  0  0  0
    4.7910   25.6160   65.3948 C   0  0  0  0  0
    4.9134   28.0065   64.7959 C   0  0  0  0  0
    6.6652   24.5492   66.3748 C   0  0  0  0  0
    4.6919   23.2873   66.0247 C   0  0  0  0  0
    4.6262   20.9046   66.6619 C   0  0  0  0  0
    2.1987   25.2295   63.9503 N   0  0  0  0  0
    0.4970   26.1314   62.4233 N   0  0  0  0  0
   -0.3562   29.1462   59.3147 N   0  0  0  0  0
    0.9023   29.5746   59.2644 N   0  0  0  0  0
    2.9339   28.9542   60.4326 N   0  0  0  0  0
    2.6539   27.2061   62.0169 N   0  0  0  0  0
   -0.7846   25.9361   62.1638 N   0  0  0  0  0
    6.0744   25.6481   65.8466 N   0  0  0  0  0
    5.9769   23.3856   66.4617 N   0  0  0  0  0
    1.8619   23.4832   65.4640 O   0  0  0  0  0
    4.2077   26.7773   64.8795 O   0  0  0  0  0
    4.0184   22.0652   66.1146 O   0  0  0  0  0
  1 23  1  0  0  0
  1 17  1  0  0  0
  2 24  1  0  0  0
  3 28  1  0  0  0
  4  5  1  0  0  0
  7  8  1  0  0  0
  9 10  1  0  0  0
 11  6  1  0  0  0
 12  4  1  0  0  0
 13 27  1  0  0  0
 14 16  1  0  0  0
 15 14  1  0  0  0
 18 33  1  0  0  0
 18 30  1  0  0  0
 19 33  1  0  0  0
 20 31  1  0  0  0
 21 34  1  0  0  0
 21 17  1  0  0  0
 22 34  1  0  0  0
 23  2  1  0  0  0
 24  3  1  0  0  0
 24 29  1  0  0  0
 26 25  1  0  0  0
 26  6  1  0  0  0
 26 12  1  0  0  0
  1 32  2  0  0  0
  3  4  2  0  0  0
  5 25  2  0  0  0
  6  7  2  0  0  0
  8  9  2  0  0  0
 10 11  2  0  0  0
 12 27  2  0  0  0
 13 28  2  0  0  0
 14 29  2  0  0  0
 16  2  2  0  0  0
 17 18  2  0  0  0
 20 30  2  0  0  0
 21 31  2  0  0  0
M  END
> <rmsd>
0.681512415

$$$$
NROXHBAFTMQTQY-UHFFFAOYSA-N


 34 38  0  0  0  0  0  0  0  0999 V2000
    2.6511   24.3393   64.9797 C   0  0  0  0  0
    0.8731   25.2847   63.4056 C   0  0  0  0  0
    1.3185   27.0985   61.7396 C   0  0  0  0  0
    0.8016   27.9603   60.7705 C   0  0  0  0  0
   -0.4584   28.1499   60.2333 C   0  0  0  0  0
    1.3572   30.6266   58.3937 C   0  0  0  0  0
    2.7007   31.0347   58.3869 C   0  0  0  0  0
    3.1279   32.0578   57.5358 C   0  0  0  0  0
    2.2154   32.6833   56.6827 C   0  0  0  0  0
    0.8761   32.2857   56.6809 C   0  0  0  0  0
    0.4496   31.2623   57.5323 C   0  0  0  0  0
    1.6124   28.8548   60.1502 C   0  0  0  0  0
    3.4545   28.1170   61.3775 C   0  0  0  0  0
   -1.2166   24.9634   62.9865 C   0  0  0  0  0
   -2.6141   24.4576   62.9985 C   0  0  0  0  0
   -0.2003   24.5063   63.8072 C   0  0  0  0  0
    4.0527   24.4156   65.4682 C   0  0  0  0  0
    4.7912   25.6161   65.3947 C   0  0  0  0  0
    4.9136   28.0066   64.7959 C   0  0  0  0  0
    6.6652   24.5493   66.3749 C   0  0  0  0  0
    4.6920   23.2873   66.0247 C   0  0  0  0  0
    4.6261   20.9046   66.6620 C   0  0  0  0  0
    2.1989   25.2295   63.9503 N   0  0  0  0  0
    0.4972   26.1315   62.4233 N   0  0  0  0  0
   -0.3558   29.1464   59.3148 N   0  0  0  0  0
    0.9027   29.5748   59.2644 N   0  0  0  0  0
    2.9343   28.9543   60.4325 N   0  0  0  0  0
    2.6542   27.2062   62.0168 N   0  0  0  0  0
   -0.7844   25.9364   62.1637 N   0  0  0  0  0
    6.0745   25.6481   65.8467 N   0  0  0  0  0
    5.9770   23.3855   66.4618 N   0  0  0  0  0
    1.8620   23.4833   65.4640 O   0  0  0  0  0
    4.2078   26.7773   64.8794 O   0  0  0  0  0
    4.0185   22.0652   66.1146 O   0  0  0  0  0
  1 23  1  0  0  0
  1 17  1  0  0  0
  2 24  1  0  0  0
  3 28  1  0  0  0
  4  5  1  0  0  0
  7  8  1  0  0  0
  9 10  1  0  0  0
 11  6  1  0  0  0
 12  4  1  0  0  0
 13 27  1  0  0  0
 14 16  1  0  0  0
 15 14  1  0  0  0
 18 33  1  0  0  0
 18 30  1  0  0  0
 19 33  1  0  0  0
 20 31  1  0  0  0
 21 34  1  0  0  0
 21 17  1  0  0  0
 22 34  1  0  0  0
 23  2  1  0  0  0
 24  3  1  0  0  0
 24 29  1  0  0  0
 26 25  1  0  0  0
 26  6  1  0  0  0
 26 12  1  0  0  0
  1 32  2  0  0  0
  3  4  2  0  0  0
  5 25  2  0  0  0
  6  7  2  0  0  0
  8  9  2  0  0  0
 10 11  2  0  0  0
 12 27  2  0  0  0
 13 28  2  0  0  0
 14 29  2  0  0  0
 16  2  2  0  0  0
 17 18  2  0  0  0
 20 30  2  0  0  0
 21 31  2  0  0  0
M  END
> <rmsd>
0.681660533

$$$$
CQFPZDWTPPRXKY-UHFFFAOYSA-N


 28 31  0  0  0  0  0  0  0  0999 V2000
    3.3931   25.2320   64.6434 C   0  0  0  0  0
    1.5295   25.7456   63.0104 C   0  0  0  0  0
    0.9682   27.4185   61.9237 C   0  0  0  0  0
    0.9244   28.8031   61.3647 C   0  0  0  0  0
    3.1801   29.7425   61.7235 C   0  0  0  0  0
    2.8023   30.1639   63.0063 C   0  0  0  0  0
    3.7583   30.6828   63.8834 C   0  0  0  0  0
    5.0887   30.8044   63.4681 C   0  0  0  0  0
    5.4612   30.4064   62.1788 C   0  0  0  0  0
    4.5067   29.8747   61.3050 C   0  0  0  0  0
    0.4390   29.7935   62.4315 C   0  0  0  0  0
    4.0584   24.2403   65.5302 C   0  0  0  0  0
    3.3523   23.1398   66.0625 C   0  0  0  0  0
    1.2469   21.8759   66.3039 C   0  0  0  0  0
    5.3055   22.3973   67.1784 C   0  0  0  0  0
    5.4221   24.3688   65.8715 C   0  0  0  0  0
    7.5562   25.5930   65.6816 C   0  0  0  0  0
    2.2301   24.8641   63.8910 N   0  0  0  0  0
    0.0763   26.4554   61.6224 N   0  0  0  0  0
    0.4356   25.3854   62.3156 N   0  0  0  0  0
    3.9951   22.2506   66.8677 N   0  0  0  0  0
    6.0055   23.4465   66.6844 N   0  0  0  0  0
    1.8648   26.9908   62.7797 O   0  0  0  0  0
    2.2177   29.1798   60.8785 O   0  0  0  0  0
    1.4650   30.0515   63.3937 O   0  0  0  0  0
    3.8571   26.4009   64.5463 O   0  0  0  0  0
    1.9935   22.9660   65.7838 O   0  0  0  0  0
    6.1814   25.4293   65.3672 O   0  0  0  0  0
  1 18  1  0  0  0
  1 12  1  0  0  0
  2 23  1  0  0  0
  3 23  1  0  0  0
  4  3  1  0  0  0
  4 24  1  0  0  0
  5 24  1  0  0  0
  6  7  1  0  0  0
  6 25  1  0  0  0
  8  9  1  0  0  0
 10  5  1  0  0  0
 11 25  1  0  0  0
 11  4  1  0  0  0
 13 27  1  0  0  0
 13 21  1  0  0  0
 14 27  1  0  0  0
 15 22  1  0  0  0
 16 28  1  0  0  0
 16 12  1  0  0  0
 17 28  1  0  0  0
 18  2  1  0  0  0
 19 20  1  0  0  0
  1 26  2  0  0  0
  2 20  2  0  0  0
  3 19  2  0  0  0
  5  6  2  0  0  0
  7  8  2  0  0  0
  9 10  2  0  0  0
 12 13  2  0  0  0
 15 21  2  0  0  0
 16 22  2  0  0  0
M  END
> <rmsd>
0.627035618

$$$$
SHTQGUBBECJLCC-UHFFFAOYSA-N


 32 34  0  0  0  0  0  0  0  0999 V2000
    6.0044   22.8062   65.4155 C   0  0  0  0  0
    3.7047   21.8908   65.8486 C   0  0  0  0  0
    2.2728   21.9249   65.4185 C   0  0  0  0  0
    2.1088   23.1116   63.5293 C   0  0  0  0  0
    1.1606   24.0932   62.8588 C   0  0  0  0  0
    0.7896   26.5276   62.7483 C   0  0  0  0  0
    1.1925   27.8979   63.1763 C   0  0  0  0  0
    3.6711   27.6998   63.7775 C   0  0  0  0  0
    5.0066   27.7478   63.1156 C   0  0  0  0  0
    4.6908   28.1965   61.6788 C   0  0  0  0  0
    3.2092   28.3697   61.6744 C   0  0  0  0  0
    3.5482   23.4104   63.1062 C   0  0  0  0  0
    4.4756   22.2664   63.4965 C   0  0  0  0  0
    7.1785   22.9307   64.5242 C   0  0  0  0  0
    8.0065   24.0827   64.5121 C   0  0  0  0  0
    9.1683   24.0796   63.7234 C   0  0  0  0  0
    9.5016   22.9715   62.9435 C   0  0  0  0  0
    8.6750   21.8491   62.9405 C   0  0  0  0  0
    7.5270   21.8268   63.7326 C   0  0  0  0  0
    4.7493   22.2803   64.9349 N   0  0  0  0  0
    2.6143   28.1065   62.9301 N   0  0  0  0  0
    7.6686   25.2728   65.2443 N   0  0  0  0  0
    3.9812   21.5214   67.0208 O   0  0  0  0  0
    1.9707   23.1990   64.9226 O   0  0  0  0  0
    1.4579   25.4210   63.2702 O   0  0  0  0  0
   -0.1487   26.3851   61.9193 O   0  0  0  0  0
    3.4935   27.3241   64.9661 O   0  0  0  0  0
    2.5470   28.7015   60.6562 O   0  0  0  0  0
    6.1164   23.1635   66.6205 O   0  0  0  0  0
    6.3546   25.6545   65.3884 O   0  0  0  0  0
    8.5659   26.0715   65.5847 O   0  0  0  0  0
    9.0875   20.4609   61.9588 Cl  0  0  0  0  0
  1 20  1  0  0  0
  1 14  1  0  0  0
  3  2  1  0  0  0
  3 24  1  0  0  0
  4 24  1  0  0  0
  4  5  1  0  0  0
  4 12  1  0  0  0
  5 25  1  0  0  0
  6 25  1  0  0  0
  7  6  1  0  0  0
  7 21  1  0  0  0
  9  8  1  0  0  0
  9 10  1  0  0  0
 10 11  1  0  0  0
 11 21  1  0  0  0
 12 13  1  0  0  0
 13 20  1  0  0  0
 15 22  1  0  0  0
 15 16  1  0  0  0
 17 18  1  0  0  0
 18 32  1  0  0  0
 19 14  1  0  0  0
 20  2  1  0  0  0
 21  8  1  0  0  0
 22 30  1  0  0  0
  1 29  2  0  0  0
  2 23  2  0  0  0
  6 26  2  0  0  0
  8 27  2  0  0  0
 11 28  2  0  0  0
 14 15  2  0  0  0
 16 17  2  0  0  0
 18 19  2  0  0  0
 22 31  2  0  0  0
M  CHG  2  22   1  30  -1
M  END
> <rmsd>
0.526382029

$$$$
WWRKLCWDUFVGAW-UHFFFAOYSA-N


 30 33  0  0  0  0  0  0  0  0999 V2000
    3.4232   25.2475   64.7113 C   0  0  0  0  0
    1.5976   25.8118   63.0524 C   0  0  0  0  0
    1.0212   27.5337   62.0559 C   0  0  0  0  0
    0.9745   28.9408   61.5663 C   0  0  0  0  0
    3.3555   29.4297   61.0520 C   0  0  0  0  0
    3.6962   29.5805   62.4076 C   0  0  0  0  0
    5.0193   29.8285   62.7839 C   0  0  0  0  0
    6.0130   29.9304   61.8082 C   0  0  0  0  0
    5.6763   29.7848   60.4428 C   0  0  0  0  0
    6.6707   29.8881   59.4661 C   0  0  0  0  0
    7.9951   30.1349   59.8416 C   0  0  0  0  0
    8.3281   30.2789   61.1928 C   0  0  0  0  0
    7.3386   30.1770   62.1758 C   0  0  0  0  0
    4.3512   29.5367   60.0750 C   0  0  0  0  0
    4.0799   24.2240   65.5658 C   0  0  0  0  0
    3.3691   23.1041   66.0479 C   0  0  0  0  0
    1.2601   21.8349   66.2213 C   0  0  0  0  0
    5.3109   22.3207   67.1556 C   0  0  0  0  0
    5.4395   24.3407   65.9260 C   0  0  0  0  0
    7.5727   25.5751   65.8059 C   0  0  0  0  0
    2.2924   24.8972   63.9035 N   0  0  0  0  0
    0.1952   26.5583   61.6318 N   0  0  0  0  0
    0.5618   25.4575   62.2710 N   0  0  0  0  0
    4.0039   22.1852   66.8256 N   0  0  0  0  0
    6.0153   23.3886   66.7094 N   0  0  0  0  0
    1.8881   27.0834   62.9292 O   0  0  0  0  0
    2.0389   29.1763   60.6501 O   0  0  0  0  0
    3.8689   26.4272   64.6876 O   0  0  0  0  0
    2.0132   22.9420   65.7484 O   0  0  0  0  0
    6.2020   25.4203   65.4696 O   0  0  0  0  0
  1 21  1  0  0  0
  1 15  1  0  0  0
  2 26  1  0  0  0
  3 26  1  0  0  0
  4  3  1  0  0  0
  4 27  1  0  0  0
  5 27  1  0  0  0
  6  7  1  0  0  0
  8  9  1  0  0  0
  9 10  1  0  0  0
 11 12  1  0  0  0
 13  8  1  0  0  0
 14  5  1  0  0  0
 16 29  1  0  0  0
 16 24  1  0  0  0
 17 29  1  0  0  0
 18 25  1  0  0  0
 19 30  1  0  0  0
 19 15  1  0  0  0
 20 30  1  0  0  0
 21  2  1  0  0  0
 22 23  1  0  0  0
  1 28  2  0  0  0
  2 23  2  0  0  0
  3 22  2  0  0  0
  5  6  2  0  0  0
  7  8  2  0  0  0
  9 14  2  0  0  0
 10 11  2  0  0  0
 12 13  2  0  0  0
 15 16  2  0  0  0
 18 24  2  0  0  0
 19 25  2  0  0  0
M  END
> <rmsd>
0.614633143

$$$$
GVZNWQSKRAXKLV-UHFFFAOYSA-N


 34 37  0  0  0  0  0  0  0  0999 V2000
    4.6165   23.5414   66.2312 C   0  0  0  0  0
    5.4705   25.7174   65.2940 C   0  0  0  0  0
    5.1750   26.9864   64.5499 C   0  0  0  0  0
    3.0007   26.4262   64.3259 C   0  0  0  0  0
    1.5889   26.9697   64.2250 C   0  0  0  0  0
    0.7153   27.8868   62.1157 C   0  0  0  0  0
    0.7250   28.9718   61.1002 C   0  0  0  0  0
    2.1302   29.6899   59.1956 C   0  0  0  0  0
    1.3088   30.7937   58.9188 C   0  0  0  0  0
    1.6173   31.6532   57.8617 C   0  0  0  0  0
    2.7466   31.4208   57.0710 C   0  0  0  0  0
    3.0437   32.3602   55.9515 C   0  0  0  0  0
    3.5736   30.3155   57.3439 C   0  0  0  0  0
    4.7878   30.0289   56.5267 C   0  0  0  0  0
    3.2591   29.4588   58.4038 C   0  0  0  0  0
    3.0174   25.2255   65.2736 C   0  0  0  0  0
    3.7300   22.3807   66.0248 C   0  0  0  0  0
    2.2707   21.0937   65.2741 C   0  0  0  0  0
    0.8841   19.2443   64.9058 C   0  0  0  0  0
   -0.2225   18.5884   64.1621 C   0  0  0  0  0
    1.5387   18.5469   65.9417 C   0  0  0  0  0
    2.5795   19.1852   66.6293 C   0  0  0  0  0
    3.3018   18.4900   67.7308 C   0  0  0  0  0
    4.3927   24.7936   65.5520 N   0  0  0  0  0
    2.7558   22.3300   65.0745 N   0  0  0  0  0
    1.2591   20.5172   64.5804 N   0  0  0  0  0
    2.9000   20.4488   66.2560 N   0  0  0  0  0
    3.8332   21.2377   66.7497 N   0  0  0  0  0
    6.6597   25.4432   65.6065 O   0  0  0  0  0
    3.8639   27.4209   64.8188 O   0  0  0  0  0
    1.5361   27.9904   63.2387 O   0  0  0  0  0
   -0.0082   26.8709   61.9340 O   0  0  0  0  0
    1.8494   28.8119   60.2456 O   0  0  0  0  0
    5.5901   23.4210   67.0231 O   0  0  0  0  0
  1 24  1  0  0  0
  1 17  1  0  0  0
  3  2  1  0  0  0
  3 30  1  0  0  0
  4 30  1  0  0  0
  4  5  1  0  0  0
  4 16  1  0  0  0
  5 31  1  0  0  0
  6 31  1  0  0  0
  7  6  1  0  0  0
  7 33  1  0  0  0
  8 33  1  0  0  0
  9 10  1  0  0  0
 11 13  1  0  0  0
 12 11  1  0  0  0
 14 13  1  0  0  0
 15  8  1  0  0  0
 16 24  1  0  0  0
 17 25  1  0  0  0
 18 26  1  0  0  0
 19 21  1  0  0  0
 20 19  1  0  0  0
 22 27  1  0  0  0
 23 22  1  0  0  0
 24  2  1  0  0  0
 27 28  1  0  0  0
 27 18  1  0  0  0
  1 34  2  0  0  0
  2 29  2  0  0  0
  6 32  2  0  0  0
  8  9  2  0  0  0
 10 11  2  0  0  0
 13 15  2  0  0  0
 17 28  2  0  0  0
 18 25  2  0  0  0
 19 26  2  0  0  0
 21 22  2  0  0  0
M  END
> <rmsd>
0.674327731

$$$$
CDKBEGGHRKOUAD-UHFFFAOYSA-N


 36 39  0  0  0  0  0  0  0  0999 V2000
    4.5583   23.6526   66.1678 C   0  0  0  0  0
    5.3121   25.6803   64.8827 C   0  0  0  0  0
    4.9437   26.8492   64.0172 C   0  0  0  0  0
    2.7598   26.2828   64.0702 C   0  0  0  0  0
    1.3431   26.8211   64.0313 C   0  0  0  0  0
    0.2996   27.5184   61.9097 C   0  0  0  0  0
    0.2466   28.4708   60.7696 C   0  0  0  0  0
   -0.9551   28.7257   60.0632 C   0  0  0  0  0
   -2.2436   28.0760   60.4716 C   0  0  0  0  0
   -0.9563   29.6344   58.9875 C   0  0  0  0  0
   -2.2179   29.9212   58.2300 C   0  0  0  0  0
    0.2387   30.2782   58.6345 C   0  0  0  0  0
    0.2942   31.2525   57.5057 C   0  0  0  0  0
    1.4180   29.1465   60.3683 C   0  0  0  0  0
    3.8342   29.5617   60.6535 C   0  0  0  0  0
    2.8695   25.2096   65.1546 C   0  0  0  0  0
    3.7014   22.4502   66.1432 C   0  0  0  0  0
    1.9599   21.1918   65.1514 C   0  0  0  0  0
    2.1431   20.1775   66.0880 C   0  0  0  0  0
    3.1382   20.3314   67.0604 C   0  0  0  0  0
    4.3544   19.5299   69.1053 C   0  0  0  0  0
    4.9366   18.1891   69.5525 C   0  0  0  0  0
    3.2700   16.9505   68.6868 C   0  0  0  0  0
    2.4886   18.1431   68.1357 C   0  0  0  0  0
    4.2665   24.8046   65.3524 N   0  0  0  0  0
    1.3758   30.0198   59.3259 N   0  0  0  0  0
    2.7389   22.3028   65.1933 N   0  0  0  0  0
    3.3732   19.3073   68.0418 N   0  0  0  0  0
    3.8962   21.4629   67.0595 N   0  0  0  0  0
    6.5260   25.4365   65.1156 O   0  0  0  0  0
    3.6621   27.3242   64.3518 O   0  0  0  0  0
    1.2082   27.7307   62.9492 O   0  0  0  0  0
   -0.4606   26.5116   61.9366 O   0  0  0  0  0
    2.6294   28.9093   61.0256 O   0  0  0  0  0
    5.5675   23.6611   66.9244 O   0  0  0  0  0
    3.8967   17.3071   69.8933 O   0  0  0  0  0
  1 25  1  0  0  0
  1 17  1  0  0  0
  3  2  1  0  0  0
  3 31  1  0  0  0
  4 31  1  0  0  0
  4  5  1  0  0  0
  4 16  1  0  0  0
  5 32  1  0  0  0
  6 32  1  0  0  0
  6  7  1  0  0  0
  8 10  1  0  0  0
  9  8  1  0  0  0
 11 10  1  0  0  0
 12 26  1  0  0  0
 13 12  1  0  0  0
 14 34  1  0  0  0
 14  7  1  0  0  0
 15 34  1  0  0  0
 16 25  1  0  0  0
 17 29  1  0  0  0
 18 27  1  0  0  0
 19 20  1  0  0  0
 20 28  1  0  0  0
 21 28  1  0  0  0
 21 22  1  0  0  0
 22 36  1  0  0  0
 23 36  1  0  0  0
 23 24  1  0  0  0
 24 28  1  0  0  0
 25  2  1  0  0  0
  1 35  2  0  0  0
  2 30  2  0  0  0
  6 33  2  0  0  0
  7  8  2  0  0  0
 10 12  2  0  0  0
 14 26  2  0  0  0
 17 27  2  0  0  0
 18 19  2  0  0  0
 20 29  2  0  0  0
M  END
> <rmsd>
0.633605182

$$$$
LQJMIRIOUOUCSX-UHFFFAOYSA-N


 29 31  0  0  0  0  0  0  0  0999 V2000
    1.7838   25.3917   65.3987 O   0  0  0  0  0
    1.9721   23.1000   65.3828 O   0  0  0  0  0
    4.0917   26.5964   64.9868 O   0  0  0  0  0
    4.0295   22.0060   66.6317 O   0  0  0  0  0
    3.3054   26.7878   58.1282 O   0  0  0  0  0
    2.2136   29.1675   60.1292 O   0  0  0  0  0
    2.5364   24.2213   65.5159 C   0  0  0  0  0
    3.9935   24.2988   65.7998 C   0  0  0  0  0
    4.7235   25.4780   65.5398 C   0  0  0  0  0
    4.7912   27.7997   64.7060 C   0  0  0  0  0
    6.7055   24.4539   66.3356 C   0  0  0  0  0
    4.6962   23.2001   66.3405 C   0  0  0  0  0
    4.6965   20.8823   67.1874 C   0  0  0  0  0
    0.4014   25.3708   65.0724 C   0  0  0  0  0
   -0.1362   26.7914   65.0121 C   0  0  0  0  0
    1.8152   29.1192   63.0902 C   0  0  0  0  0
    1.3389   28.3053   62.0779 C   0  0  0  0  0
    0.5726   27.3642   62.6744 C   0  0  0  0  0
    0.0910   26.3713   60.6211 C   0  0  0  0  0
    0.9987   27.2378   58.5345 C   0  0  0  0  0
    2.1302   26.3395   58.1645 C   0  0  0  0  0
    1.5014   28.2969   60.7002 C   0  0  0  0  0
    6.0554   25.5227   65.8158 N   0  0  0  0  0
    6.0292   23.3085   66.5923 N   0  0  0  0  0
    0.5663   27.5652   63.9975 N   0  0  0  0  0
    1.3150   28.6312   64.2581 N   0  0  0  0  0
   -0.0612   26.3902   61.9798 N   0  0  0  0  0
    0.8631   27.3135   59.9840 N   0  0  0  0  0
    1.8862   24.9651   57.8918 N   0  0  0  0  0
  7  1  1  0  0  0
  7  8  1  0  0  0
  9  3  1  0  0  0
  9 23  1  0  0  0
 10  3  1  0  0  0
 11 24  1  0  0  0
 12  4  1  0  0  0
 12  8  1  0  0  0
 13  4  1  0  0  0
 14  1  1  0  0  0
 14 15  1  0  0  0
 15 25  1  0  0  0
 16 17  1  0  0  0
 18 27  1  0  0  0
 18 25  1  0  0  0
 19 28  1  0  0  0
 20 28  1  0  0  0
 20 21  1  0  0  0
 21 29  1  0  0  0
 22 17  1  0  0  0
 25 26  1  0  0  0
 28 22  1  0  0  0
  7  2  2  0  0  0
  8  9  2  0  0  0
 11 23  2  0  0  0
 12 24  2  0  0  0
 16 26  2  0  0  0
 17 18  2  0  0  0
 19 27  2  0  0  0
 21  5  2  0  0  0
 22  6  2  0  0  0
M  END
> <rmsd>
0.559120059

$$$$
VCLNVIHUNCHKBR-UHFFFAOYSA-N


 35 39  0  0  0  0  0  0  0  0999 V2000
    3.1407   23.7918   64.8829 C   0  0  0  0  0
    4.9514   25.2764   65.7621 C   0  0  0  0  0
    4.1352   26.5327   65.8153 C   0  0  0  0  0
    2.9350   28.0618   64.4670 C   0  0  0  0  0
    2.6218   28.4063   63.0484 C   0  0  0  0  0
    0.4364   27.2049   61.9602 C   0  0  0  0  0
    0.4791   27.6893   60.6378 C   0  0  0  0  0
    1.5047   28.5934   60.1879 C   0  0  0  0  0
   -1.4673   26.4366   60.1203 C   0  0  0  0  0
   -1.5103   25.9557   61.4278 C   0  0  0  0  0
    1.6840   27.2536   64.3429 C   0  0  0  0  0
    5.2793   28.0663   64.4690 C   0  0  0  0  0
    4.8764   22.8674   66.4114 C   0  0  0  0  0
    5.1333   20.6831   66.9247 C   0  0  0  0  0
    4.9368   19.2269   66.8652 C   0  0  0  0  0
    5.6401   18.3772   67.7307 C   0  0  0  0  0
    5.4502   16.9935   67.6697 C   0  0  0  0  0
    4.5561   16.4511   66.7425 C   0  0  0  0  0
    4.3539   14.9804   66.6778 C   0  0  0  0  0
    3.8517   17.2921   65.8766 C   0  0  0  0  0
    4.0415   18.6759   65.9379 C   0  0  0  0  0
    3.0081   24.4403   63.5386 C   0  0  0  0  0
    2.7786   23.3864   62.4706 C   0  0  0  0  0
    4.1486   24.0023   62.6381 C   0  0  0  0  0
    4.3211   23.9829   65.6864 N   0  0  0  0  0
    4.1125   27.1950   64.5146 N   0  0  0  0  0
    1.4124   27.5776   62.9369 N   0  0  0  0  0
    2.3281   29.3202   59.8234 N   0  0  0  0  0
   -0.4757   27.2903   59.7559 N   0  0  0  0  0
   -0.5601   26.3494   62.3149 N   0  0  0  0  0
    5.7983   23.0474   67.4008 N   0  0  0  0  0
    4.4993   21.5772   66.1364 N   0  0  0  0  0
    6.2077   25.3646   65.8126 O   0  0  0  0  0
    2.1974   23.0741   65.3141 O   0  0  0  0  0
    6.1473   21.5180   67.9449 S   0  0  0  0  0
  1 25  1  0  0  0
  3  2  1  0  0  0
  3 26  1  0  0  0
  4 26  1  0  0  0
  4  5  1  0  0  0
  5 27  1  0  0  0
  6 30  1  0  0  0
  7  8  1  0  0  0
  7 29  1  0  0  0
  9 10  1  0  0  0
 11 27  1  0  0  0
 11  4  1  0  0  0
 12 26  1  0  0  0
 13 32  1  0  0  0
 14 35  1  0  0  0
 14 15  1  0  0  0
 16 17  1  0  0  0
 18 20  1  0  0  0
 19 18  1  0  0  0
 21 15  1  0  0  0
 22  1  1  0  0  0
 22 23  1  0  0  0
 23 24  1  0  0  0
 24 22  1  0  0  0
 25  2  1  0  0  0
 25 13  1  0  0  0
 27  6  1  0  0  0
 31 35  1  0  0  0
  1 34  2  0  0  0
  2 33  2  0  0  0
  6  7  2  0  0  0
  9 29  2  0  0  0
 10 30  2  0  0  0
 13 31  2  0  0  0
 14 32  2  0  0  0
 15 16  2  0  0  0
 17 18  2  0  0  0
 20 21  2  0  0  0
  8 28  3  0  0  0
M  END
> <rmsd>
0.645705581

$$$$
BHBJFSRLSVNZNM-UHFFFAOYSA-N


 27 29  0  0  0  0  0  0  0  0999 V2000
    4.7788   23.7757   66.9369 C   0  0  0  0  0
    3.1497   25.6623   66.7505 C   0  0  0  0  0
    3.0728   27.1544   66.4351 C   0  0  0  0  0
    3.3544   28.7746   64.7649 C   0  0  0  0  0
    3.1513   28.9026   63.2640 C   0  0  0  0  0
    1.7104   27.9386   61.5125 C   0  0  0  0  0
    0.6607   26.9811   61.1442 C   0  0  0  0  0
   -0.8990   25.3950   61.5643 C   0  0  0  0  0
    0.2514   26.7806   59.8268 C   0  0  0  0  0
    5.0782   27.2348   65.2091 C   0  0  0  0  0
    5.4127   25.8428   65.6494 C   0  0  0  0  0
    3.6749   22.8283   67.2901 C   0  0  0  0  0
    2.9039   22.1069   65.0474 C   0  0  0  0  0
    1.7576   23.5856   63.5959 C   0  0  0  0  0
    1.6944   22.5944   62.6183 C   0  0  0  0  0
    2.2563   21.3504   62.9014 C   0  0  0  0  0
    4.4865   25.1114   66.4842 N   0  0  0  0  0
    3.6301   27.3894   65.1099 N   0  0  0  0  0
    0.0310   26.2235   62.0849 N   0  0  0  0  0
    2.3564   23.3265   64.7871 N   0  0  0  0  0
    2.8479   21.1292   64.1046 N   0  0  0  0  0
    2.0810   28.0640   62.8517 O   0  0  0  0  0
    2.2793   28.6299   60.6231 O   0  0  0  0  0
    6.4992   25.3273   65.2738 O   0  0  0  0  0
    5.9703   23.3745   67.0248 O   0  0  0  0  0
    3.5234   21.8435   66.2727 O   0  0  0  0  0
   -0.9444   25.6024   59.9009 S   0  0  0  0  0
  1 17  1  0  0  0
  2 17  1  0  0  0
  2  3  1  0  0  0
  3 18  1  0  0  0
  4 18  1  0  0  0
  4  5  1  0  0  0
  5 22  1  0  0  0
  6 22  1  0  0  0
  6  7  1  0  0  0
  7 19  1  0  0  0
  8 27  1  0  0  0
  9 27  1  0  0  0
 10 18  1  0  0  0
 10 11  1  0  0  0
 11 17  1  0  0  0
 12  1  1  0  0  0
 12 26  1  0  0  0
 13 26  1  0  0  0
 13 21  1  0  0  0
 14 20  1  0  0  0
 15 16  1  0  0  0
  1 25  2  0  0  0
  6 23  2  0  0  0
  8 19  2  0  0  0
  9  7  2  0  0  0
 11 24  2  0  0  0
 13 20  2  0  0  0
 14 15  2  0  0  0
 16 21  2  0  0  0
M  END
> <rmsd>
0.534032762

$$$$
PJOIJVIKXCLXHC-UHFFFAOYSA-N


 30 32  0  0  0  0  0  0  0  0999 V2000
    2.6208   24.8618   63.0290 O   0  0  0  0  0
    4.0799   25.6497   61.4172 O   0  0  0  0  0
    2.4634   28.4748   60.3709 O   0  0  0  0  0
    3.0534   26.5711   65.2572 O   0  0  0  0  0
    6.4105   25.3139   64.9776 O   0  0  0  0  0
    5.9025   24.0178   67.3296 O   0  0  0  0  0
    3.4816   21.0319   65.8288 O   0  0  0  0  0
    3.1454   23.7328   64.9752 O   0  0  0  0  0
    2.8933   25.4420   61.7883 C   0  0  0  0  0
    1.7643   25.8598   60.9114 C   0  0  0  0  0
    1.5137   28.2890   61.1828 C   0  0  0  0  0
    0.8768   29.3778   61.7849 C   0  0  0  0  0
   -0.1709   29.1198   62.6843 C   0  0  0  0  0
   -0.8349   30.1775   63.3118 C   0  0  0  0  0
   -0.4551   31.4965   63.0436 C   0  0  0  0  0
    0.5878   31.7585   62.1489 C   0  0  0  0  0
    1.2541   30.7023   61.5194 C   0  0  0  0  0
    3.6395   24.6027   63.9869 C   0  0  0  0  0
    4.1186   25.9163   64.6302 C   0  0  0  0  0
    2.9885   27.8203   64.6383 C   0  0  0  0  0
    5.2208   25.6119   65.6509 C   0  0  0  0  0
    7.2903   26.3366   65.3358 C   0  0  0  0  0
    4.8102   24.4432   66.5654 C   0  0  0  0  0
    5.6110   24.4271   68.6314 C   0  0  0  0  0
    4.2552   23.2869   65.7174 C   0  0  0  0  0
    3.8288   22.1334   66.6107 C   0  0  0  0  0
    3.2948   19.9980   66.7450 C   0  0  0  0  0
    1.0983   27.0232   61.4845 N   0  0  0  0  0
   -0.5291   27.8394   62.9388 N   0  0  0  0  0
    0.1000   26.8233   62.3486 N   0  0  0  0  0
  9  1  1  0  0  0
 10  9  1  0  0  0
 10 28  1  0  0  0
 11 12  1  0  0  0
 13 14  1  0  0  0
 13 29  1  0  0  0
 15 16  1  0  0  0
 17 12  1  0  0  0
 18  1  1  0  0  0
 18 19  1  0  0  0
 18  8  1  0  0  0
 19  4  1  0  0  0
 19 21  1  0  0  0
 20  4  1  0  0  0
 21  5  1  0  0  0
 21 23  1  0  0  0
 22  5  1  0  0  0
 23  6  1  0  0  0
 23 25  1  0  0  0
 24  6  1  0  0  0
 25 26  1  0  0  0
 25  8  1  0  0  0
 26  7  1  0  0  0
 27  7  1  0  0  0
 28 11  1  0  0  0
 28 30  1  0  0  0
  9  2  2  0  0  0
 11  3  2  0  0  0
 12 13  2  0  0  0
 14 15  2  0  0  0
 16 17  2  0  0  0
 29 30  2  0  0  0
M  END
> <rmsd>
0.678967178

$$$$
OSLXZUFCGCQQAL-UHFFFAOYSA-N


 33 35  0  0  0  0  0  0  0  0999 V2000
    4.5398   23.9041   67.1019 C   0  0  0  0  0
    2.9189   25.6006   66.2195 C   0  0  0  0  0
    2.8797   27.0889   65.8744 C   0  0  0  0  0
    3.5605   28.7376   64.3590 C   0  0  0  0  0
    3.3003   28.8523   62.8684 C   0  0  0  0  0
    1.5684   28.1995   61.2436 C   0  0  0  0  0
    0.2654   27.5671   60.9898 C   0  0  0  0  0
   -0.3887   27.3873   59.7816 C   0  0  0  0  0
    0.0518   27.7803   58.4065 C   0  0  0  0  0
   -2.5796   26.3599   59.1335 C   0  0  0  0  0
    5.1266   27.1915   65.1569 C   0  0  0  0  0
    5.3570   25.8023   65.6659 C   0  0  0  0  0
    3.4100   22.9905   67.4747 C   0  0  0  0  0
    3.1397   21.9231   66.4046 C   0  0  0  0  0
    1.9715   21.0404   66.8679 C   0  0  0  0  0
    3.5993   21.9869   64.2186 C   0  0  0  0  0
    4.7278   21.3332   64.9427 C   0  0  0  0  0
    4.2980   25.1205   66.3691 N   0  0  0  0  0
    3.7403   27.3425   64.7232 N   0  0  0  0  0
   -1.5436   26.7649   60.0686 N   0  0  0  0  0
   -1.6027   26.5687   61.3749 N   0  0  0  0  0
   -0.5138   27.0472   61.9618 N   0  0  0  0  0
    2.0513   28.2544   62.5518 O   0  0  0  0  0
    2.2416   28.6845   60.2943 O   0  0  0  0  0
    6.4674   25.2445   65.4581 O   0  0  0  0  0
    5.7113   23.5809   67.4368 O   0  0  0  0  0
    2.7858   22.5557   65.1933 O   0  0  0  0  0
    4.2883   21.1174   66.2459 O   0  0  0  0  0
    0.2048   29.1518   58.3239 F   0  0  0  0  0
    1.2390   27.1492   58.0836 F   0  0  0  0  0
    2.2858   20.4192   68.0645 F   0  0  0  0  0
    1.7103   20.0681   65.9182 F   0  0  0  0  0
    0.8326   21.8076   67.0437 F   0  0  0  0  0
  1 18  1  0  0  0
  2 18  1  0  0  0
  2  3  1  0  0  0
  3 19  1  0  0  0
  4 19  1  0  0  0
  4  5  1  0  0  0
  5 23  1  0  0  0
  6 23  1  0  0  0
  6  7  1  0  0  0
  7 22  1  0  0  0
  8 20  1  0  0  0
  9  8  1  0  0  0
  9 29  1  0  0  0
  9 30  1  0  0  0
 10 20  1  0  0  0
 11 19  1  0  0  0
 11 12  1  0  0  0
 12 18  1  0  0  0
 13  1  1  0  0  0
 13 14  1  0  0  0
 14 15  1  0  0  0
 14 27  1  0  0  0
 14 28  1  0  0  0
 15 31  1  0  0  0
 15 32  1  0  0  0
 15 33  1  0  0  0
 16 27  1  0  0  0
 16 17  1  0  0  0
 17 28  1  0  0  0
 20 21  1  0  0  0
  1 26  2  0  0  0
  6 24  2  0  0  0
  7  8  2  0  0  0
 12 25  2  0  0  0
 21 22  2  0  0  0
M  END
> <rmsd>
0.608582199

$$$$
FDPRGXXMAVBRBQ-UHFFFAOYSA-N


 25 27  0  0  0  0  0  0  0  0999 V2000
    1.7772   25.3959   65.4172 O   0  0  0  0  0
    1.9712   23.1052   65.3743 O   0  0  0  0  0
    4.0851   26.6029   64.9974 O   0  0  0  0  0
    4.0274   22.0079   66.6266 O   0  0  0  0  0
    2.2199   29.1545   60.1294 O   0  0  0  0  0
    2.5322   24.2259   65.5217 C   0  0  0  0  0
    3.9893   24.3034   65.8037 C   0  0  0  0  0
    4.7186   25.4834   65.5450 C   0  0  0  0  0
    4.7851   27.8048   64.7119 C   0  0  0  0  0
    6.7036   24.4551   66.3279 C   0  0  0  0  0
    4.6937   23.2023   66.3367 C   0  0  0  0  0
    4.6977   20.8790   67.1676 C   0  0  0  0  0
    0.3960   25.3756   65.0863 C   0  0  0  0  0
   -0.1410   26.7966   65.0228 C   0  0  0  0  0
    0.5784   27.3646   62.6868 C   0  0  0  0  0
    1.3465   28.3070   62.0916 C   0  0  0  0  0
    1.5122   28.2932   60.7144 C   0  0  0  0  0
    0.1063   26.3668   60.6321 C   0  0  0  0  0
    1.8151   29.1247   63.1043 C   0  0  0  0  0
    6.0517   25.5265   65.8155 N   0  0  0  0  0
    6.0280   23.3088   66.5825 N   0  0  0  0  0
    0.5649   27.5691   64.0094 N   0  0  0  0  0
    0.8808   27.3110   60.0055 N   0  0  0  0  0
   -0.0520   26.3872   61.9906 N   0  0  0  0  0
    1.3097   28.6379   64.2709 N   0  0  0  0  0
  6  1  1  0  0  0
  6  7  1  0  0  0
  8  3  1  0  0  0
  8 20  1  0  0  0
  9  3  1  0  0  0
 10 21  1  0  0  0
 11  4  1  0  0  0
 11  7  1  0  0  0
 12  4  1  0  0  0
 13  1  1  0  0  0
 13 14  1  0  0  0
 14 22  1  0  0  0
 15 24  1  0  0  0
 16 17  1  0  0  0
 16 19  1  0  0  0
 17 23  1  0  0  0
 22 15  1  0  0  0
 22 25  1  0  0  0
 23 18  1  0  0  0
  6  2  2  0  0  0
  7  8  2  0  0  0
 10 20  2  0  0  0
 11 21  2  0  0  0
 15 16  2  0  0  0
 17  5  2  0  0  0
 18 24  2  0  0  0
 19 25  2  0  0  0
M  END
> <rmsd>
0.558391035

$$$$
FDPRGXXMAVBRBQ-UHFFFAOYSA-N


 25 27  0  0  0  0  0  0  0  0999 V2000
    1.7771   25.3959   65.4172 O   0  0  0  0  0
    1.9712   23.1052   65.3743 O   0  0  0  0  0
    4.0273   22.0078   66.6266 O   0  0  0  0  0
    4.0851   26.6030   64.9974 O   0  0  0  0  0
    2.2199   29.1543   60.1294 O   0  0  0  0  0
    2.5322   24.2260   65.5218 C   0  0  0  0  0
    3.9893   24.3034   65.8038 C   0  0  0  0  0
    4.6937   23.2023   66.3366 C   0  0  0  0  0
    4.6977   20.8789   67.1674 C   0  0  0  0  0
    6.7037   24.4551   66.3278 C   0  0  0  0  0
    4.7186   25.4833   65.5451 C   0  0  0  0  0
    4.7852   27.8048   64.7119 C   0  0  0  0  0
    0.3959   25.3757   65.0864 C   0  0  0  0  0
   -0.1410   26.7966   65.0228 C   0  0  0  0  0
    0.5785   27.3645   62.6868 C   0  0  0  0  0
    1.3465   28.3070   62.0917 C   0  0  0  0  0
    1.5122   28.2932   60.7144 C   0  0  0  0  0
    0.1063   26.3669   60.6321 C   0  0  0  0  0
    1.8152   29.1247   63.1043 C   0  0  0  0  0
    6.0279   23.3088   66.5824 N   0  0  0  0  0
    6.0517   25.5264   65.8155 N   0  0  0  0  0
    0.5650   27.5691   64.0094 N   0  0  0  0  0
    0.8808   27.3110   60.0054 N   0  0  0  0  0
   -0.0521   26.3872   61.9907 N   0  0  0  0  0
    1.3098   28.6379   64.2709 N   0  0  0  0  0
  6  1  1  0  0  0
  6  7  1  0  0  0
  8  3  1  0  0  0
  8 20  1  0  0  0
  9  3  1  0  0  0
 10 21  1  0  0  0
 11  4  1  0  0  0
 11  7  1  0  0  0
 12  4  1  0  0  0
 13  1  1  0  0  0
 13 14  1  0  0  0
 14 22  1  0  0  0
 15 24  1  0  0  0
 16 17  1  0  0  0
 16 19  1  0  0  0
 17 23  1  0  0  0
 22 15  1  0  0  0
 22 25  1  0  0  0
 23 18  1  0  0  0
  6  2  2  0  0  0
  7  8  2  0  0  0
 10 20  2  0  0  0
 11 21  2  0  0  0
 15 16  2  0  0  0
 17  5  2  0  0  0
 18 24  2  0  0  0
 19 25  2  0  0  0
M  END
> <rmsd>
0.558391035

$$$$
KYCZHRAJIBYFMU-UHFFFAOYSA-N


 36 39  0  0  0  0  0  0  0  0999 V2000
    2.1902   24.3259   65.7695 C   0  0  0  0  0
    3.7299   22.8355   67.0507 C   0  0  0  0  0
    5.0183   22.8069   67.8101 C   0  0  0  0  0
    6.5372   24.5347   67.3616 C   0  0  0  0  0
    5.9490   25.5971   66.4438 C   0  0  0  0  0
    5.4935   25.3615   64.1524 C   0  0  0  0  0
    5.9575   25.6104   62.7060 C   0  0  0  0  0
    7.4756   25.7385   62.6105 C   0  0  0  0  0
    7.9944   26.8094   63.5753 C   0  0  0  0  0
    7.2298   26.8123   64.9058 C   0  0  0  0  0
    7.2192   22.3110   67.2179 C   0  0  0  0  0
    2.9227   24.9513   68.0957 C   0  0  0  0  0
    2.9685   26.3396   67.9066 C   0  0  0  0  0
    2.9732   27.2006   69.0045 C   0  0  0  0  0
    2.9355   26.6626   70.2919 C   0  0  0  0  0
    2.8883   24.4595   69.4090 C   0  0  0  0  0
    1.0840   25.3466   65.7704 C   0  0  0  0  0
   -0.2609   25.3016   63.6539 C   0  0  0  0  0
    0.8222   26.6333   62.4075 C   0  0  0  0  0
    1.4311   26.6106   63.6125 C   0  0  0  0  0
    2.5770   27.3655   63.8364 C   0  0  0  0  0
    4.2658   28.9260   62.9950 C   0  0  0  0  0
    2.4257   28.1288   61.5742 C   0  0  0  0  0
    0.6069   27.3694   60.0873 C   0  0  0  0  0
    2.9425   24.0437   66.9722 N   0  0  0  0  0
    6.1117   23.2097   66.9377 N   0  0  0  0  0
    6.5745   25.5248   65.1335 N   0  0  0  0  0
    2.8943   25.3151   70.4666 N   0  0  0  0  0
    0.7540   25.7778   64.4168 N   0  0  0  0  0
   -0.2523   25.8204   62.3959 N   0  0  0  0  0
    3.0636   28.1197   62.7984 N   0  0  0  0  0
    1.2914   27.3781   61.3748 N   0  0  0  0  0
    3.3678   21.7967   66.4345 O   0  0  0  0  0
    2.4258   23.6763   64.7134 O   0  0  0  0  0
    2.8858   28.8308   60.6300 O   0  0  0  0  0
    3.1468   27.3620   64.9617 O   0  0  0  0  0
  1 25  1  0  0  0
  3  2  1  0  0  0
  3 26  1  0  0  0
  4 26  1  0  0  0
  4  5  1  0  0  0
  5 27  1  0  0  0
  6 27  1  0  0  0
  6  7  1  0  0  0
  7  8  1  0  0  0
  8  9  1  0  0  0
  9 10  1  0  0  0
 10 27  1  0  0  0
 11 26  1  0  0  0
 13 14  1  0  0  0
 15 28  1  0  0  0
 16 12  1  0  0  0
 17  1  1  0  0  0
 17 29  1  0  0  0
 19 30  1  0  0  0
 20 21  1  0  0  0
 20 29  1  0  0  0
 21 31  1  0  0  0
 22 31  1  0  0  0
 23 32  1  0  0  0
 24 32  1  0  0  0
 25  2  1  0  0  0
 25 12  1  0  0  0
 29 18  1  0  0  0
 31 23  1  0  0  0
 32 19  1  0  0  0
  1 34  2  0  0  0
  2 33  2  0  0  0
 12 13  2  0  0  0
 14 15  2  0  0  0
 16 28  2  0  0  0
 18 30  2  0  0  0
 19 20  2  0  0  0
 21 36  2  0  0  0
 23 35  2  0  0  0
M  END
> <rmsd>
0.610674798

$$$$
BQBOGTZNZYYYPM-UHFFFAOYSA-N


 27 29  0  0  0  0  0  0  0  0999 V2000
    4.7506   23.7567   66.9134 C   0  0  0  0  0
    3.1535   25.6701   66.7452 C   0  0  0  0  0
    3.0847   27.1572   66.4092 C   0  0  0  0  0
    3.3868   28.7461   64.7128 C   0  0  0  0  0
    3.1677   28.8338   63.2119 C   0  0  0  0  0
    1.6810   27.8524   61.5093 C   0  0  0  0  0
    0.5754   26.9423   61.1871 C   0  0  0  0  0
    0.1481   26.7064   59.8513 C   0  0  0  0  0
    5.1107   27.2252   65.2125 C   0  0  0  0  0
    5.4524   25.8544   65.7136 C   0  0  0  0  0
    3.6249   22.8008   67.1575 C   0  0  0  0  0
    2.9523   22.2254   64.8418 C   0  0  0  0  0
    2.4018   21.6101   62.6250 C   0  0  0  0  0
    1.8588   22.8734   62.3954 C   0  0  0  0  0
    1.8806   23.8005   63.4353 C   0  0  0  0  0
    4.4894   25.1097   66.4942 N   0  0  0  0  0
    3.6631   27.3699   65.0901 N   0  0  0  0  0
   -0.0884   26.2705   62.1635 N   0  0  0  0  0
   -0.8798   25.8331   59.6981 N   0  0  0  0  0
    2.9361   21.3093   63.8377 N   0  0  0  0  0
    2.4223   23.4625   64.6340 N   0  0  0  0  0
    2.0680   28.0146   62.8400 O   0  0  0  0  0
    2.2796   28.4729   60.5881 O   0  0  0  0  0
    6.5840   25.3718   65.4425 O   0  0  0  0  0
    5.9333   23.3457   67.0554 O   0  0  0  0  0
    3.5133   21.8817   66.0755 O   0  0  0  0  0
   -1.1779   25.4173   61.2665 S   0  0  0  0  0
  1 16  1  0  0  0
  2 16  1  0  0  0
  2  3  1  0  0  0
  3 17  1  0  0  0
  4 17  1  0  0  0
  4  5  1  0  0  0
  5 22  1  0  0  0
  6 22  1  0  0  0
  6  7  1  0  0  0
  8  7  1  0  0  0
  9 17  1  0  0  0
  9 10  1  0  0  0
 10 16  1  0  0  0
 11  1  1  0  0  0
 11 26  1  0  0  0
 12 26  1  0  0  0
 12 21  1  0  0  0
 13 20  1  0  0  0
 14 15  1  0  0  0
 18 27  1  0  0  0
 27 19  1  0  0  0
  1 25  2  0  0  0
  6 23  2  0  0  0
  7 18  2  0  0  0
  8 19  2  0  0  0
 10 24  2  0  0  0
 12 20  2  0  0  0
 13 14  2  0  0  0
 15 21  2  0  0  0
M  END
> <rmsd>
0.598967433

$$$$
SLHDQWYOESHFES-UHFFFAOYSA-N


 26 28  0  0  0  0  0  0  0  0999 V2000
    2.6157   24.2611   65.0188 C   0  0  0  0  0
    0.7307   25.1966   63.5369 C   0  0  0  0  0
    0.3753   26.1123   62.5211 C   0  0  0  0  0
    2.6702   26.4605   61.5438 C   0  0  0  0  0
    3.6650   27.6180   61.4606 C   0  0  0  0  0
    2.0854   29.2091   61.2472 C   0  0  0  0  0
    0.9105   28.2328   61.3032 C   0  0  0  0  0
   -1.8984   25.4024   62.6480 C   0  0  0  0  0
   -1.5846   24.4775   63.6406 C   0  0  0  0  0
   -0.2682   24.3818   64.0856 C   0  0  0  0  0
    4.0273   24.4072   65.4602 C   0  0  0  0  0
    4.6890   25.6523   65.3992 C   0  0  0  0  0
    4.6431   28.0640   64.8788 C   0  0  0  0  0
    6.6588   24.6733   66.2781 C   0  0  0  0  0
    4.7531   23.3040   65.9575 C   0  0  0  0  0
    4.8538   20.9039   66.5202 C   0  0  0  0  0
    2.0787   25.1523   64.0302 N   0  0  0  0  0
    1.3506   26.9772   61.9126 N   0  0  0  0  0
   -0.9260   26.1908   62.1201 N   0  0  0  0  0
    5.9840   25.7493   65.8065 N   0  0  0  0  0
    6.0452   23.4676   66.3520 N   0  0  0  0  0
    3.1740   28.6080   60.5914 O   0  0  0  0  0
    1.8979   23.3443   65.5021 O   0  0  0  0  0
    4.0181   26.7906   64.9422 O   0  0  0  0  0
    4.1578   22.0410   66.0319 O   0  0  0  0  0
   -3.6929   25.5622   62.0288 Br  0  0  0  0  0
  1 17  1  0  0  0
  1 11  1  0  0  0
  2  3  1  0  0  0
  3 18  1  0  0  0
  4 18  1  0  0  0
  4  5  1  0  0  0
  5 22  1  0  0  0
  6 22  1  0  0  0
  6  7  1  0  0  0
  7 18  1  0  0  0
  8 19  1  0  0  0
  8 26  1  0  0  0
  9 10  1  0  0  0
 12 24  1  0  0  0
 12 20  1  0  0  0
 13 24  1  0  0  0
 14 21  1  0  0  0
 15 25  1  0  0  0
 15 11  1  0  0  0
 16 25  1  0  0  0
 17  2  1  0  0  0
  1 23  2  0  0  0
  3 19  2  0  0  0
  8  9  2  0  0  0
 10  2  2  0  0  0
 11 12  2  0  0  0
 14 20  2  0  0  0
 15 21  2  0  0  0
M  END
> <rmsd>
0.71000278

$$$$
SLHDQWYOESHFES-UHFFFAOYSA-N


 26 28  0  0  0  0  0  0  0  0999 V2000
    2.6158   24.2612   65.0187 C   0  0  0  0  0
    0.7308   25.1969   63.5368 C   0  0  0  0  0
    0.3754   26.1126   62.5210 C   0  0  0  0  0
    2.6705   26.4607   61.5438 C   0  0  0  0  0
    3.6654   27.6182   61.4606 C   0  0  0  0  0
    2.0858   29.2093   61.2472 C   0  0  0  0  0
    0.9108   28.2329   61.3030 C   0  0  0  0  0
   -1.8983   25.4028   62.6477 C   0  0  0  0  0
   -1.5845   24.4778   63.6403 C   0  0  0  0  0
   -0.2681   24.3821   64.0855 C   0  0  0  0  0
    4.0272   24.4073   65.4602 C   0  0  0  0  0
    4.7530   23.3040   65.9574 C   0  0  0  0  0
    4.8536   20.9038   66.5201 C   0  0  0  0  0
    6.6588   24.6731   66.2782 C   0  0  0  0  0
    4.6891   25.6524   65.3992 C   0  0  0  0  0
    4.6433   28.0640   64.8789 C   0  0  0  0  0
    2.0788   25.1524   64.0301 N   0  0  0  0  0
    1.3508   26.9774   61.9125 N   0  0  0  0  0
   -0.9258   26.1911   62.1199 N   0  0  0  0  0
    6.0452   23.4675   66.3520 N   0  0  0  0  0
    5.9841   25.7493   65.8065 N   0  0  0  0  0
    3.1744   28.6082   60.5914 O   0  0  0  0  0
    1.8978   23.3445   65.5020 O   0  0  0  0  0
    4.1577   22.0411   66.0319 O   0  0  0  0  0
    4.0183   26.7907   64.9422 O   0  0  0  0  0
   -3.6928   25.5627   62.0285 Br  0  0  0  0  0
  1 17  1  0  0  0
  1 11  1  0  0  0
  2  3  1  0  0  0
  3 18  1  0  0  0
  4 18  1  0  0  0
  4  5  1  0  0  0
  5 22  1  0  0  0
  6 22  1  0  0  0
  6  7  1  0  0  0
  7 18  1  0  0  0
  8 19  1  0  0  0
  8 26  1  0  0  0
  9 10  1  0  0  0
 12 24  1  0  0  0
 12 20  1  0  0  0
 13 24  1  0  0  0
 14 21  1  0  0  0
 15 25  1  0  0  0
 15 11  1  0  0  0
 16 25  1  0  0  0
 17  2  1  0  0  0
  1 23  2  0  0  0
  3 19  2  0  0  0
  8  9  2  0  0  0
 10  2  2  0  0  0
 11 12  2  0  0  0
 14 20  2  0  0  0
 15 21  2  0  0  0
M  END
> <rmsd>
0.710138738

$$$$
XMRSJNRTCVNUGC-UHFFFAOYSA-N


 34 38  0  0  0  0  0  0  0  0999 V2000
    4.3207   22.3637   68.4342 C   0  0  0  0  0
    3.3695   21.8925   66.1438 C   0  0  0  0  0
    2.6914   22.4403   64.9214 C   0  0  0  0  0
    2.3987   24.4484   65.9161 C   0  0  0  0  0
    1.5072   25.6758   65.9854 C   0  0  0  0  0
    2.3042   26.8602   63.9622 C   0  0  0  0  0
    2.0607   27.3292   62.5772 C   0  0  0  0  0
    0.8445   27.1121   61.8915 C   0  0  0  0  0
    0.6972   27.5922   60.5717 C   0  0  0  0  0
   -0.5004   27.3801   59.8891 C   0  0  0  0  0
   -1.5417   26.6949   60.5156 C   0  0  0  0  0
   -1.3671   26.2304   61.8209 C   0  0  0  0  0
    1.7492   28.2716   59.9622 C   0  0  0  0  0
    3.0838   28.0192   61.9088 C   0  0  0  0  0
    2.7869   24.0143   67.3284 C   0  0  0  0  0
    4.8743   23.3723   69.3641 C   0  0  0  0  0
    5.5254   24.5554   68.9243 C   0  0  0  0  0
    5.9731   25.9845   66.9330 C   0  0  0  0  0
    5.9276   25.5055   69.8763 C   0  0  0  0  0
    5.7245   25.2849   71.2390 C   0  0  0  0  0
    5.1181   24.1065   71.6707 C   0  0  0  0  0
    4.6955   23.1585   70.7384 C   0  0  0  0  0
    3.5344   22.7524   67.2898 N   0  0  0  0  0
   -0.1927   26.4458   62.4730 N   0  0  0  0  0
    2.9105   28.4691   60.6375 N   0  0  0  0  0
    5.8361   24.7915   67.5400 N   0  0  0  0  0
    6.1261   23.8643   66.6454 N   0  0  0  0  0
    6.4148   24.4617   65.5018 N   0  0  0  0  0
    6.3283   25.7761   65.6494 N   0  0  0  0  0
    3.8553   20.7305   66.1180 O   0  0  0  0  0
    1.7197   23.3952   65.2775 O   0  0  0  0  0
    1.2967   26.2104   64.6835 O   0  0  0  0  0
    3.4313   27.0554   64.4970 O   0  0  0  0  0
    4.5059   21.1418   68.6864 O   0  0  0  0  0
  1 23  1  0  0  0
  1 16  1  0  0  0
  3  2  1  0  0  0
  3 31  1  0  0  0
  4 31  1  0  0  0
  4  5  1  0  0  0
  4 15  1  0  0  0
  5 32  1  0  0  0
  6 32  1  0  0  0
  6  7  1  0  0  0
  7  8  1  0  0  0
  8  9  1  0  0  0
  9 13  1  0  0  0
 10 11  1  0  0  0
 12 24  1  0  0  0
 14 25  1  0  0  0
 15 23  1  0  0  0
 16 17  1  0  0  0
 17 26  1  0  0  0
 18 26  1  0  0  0
 19 20  1  0  0  0
 21 22  1  0  0  0
 23  2  1  0  0  0
 26 27  1  0  0  0
 28 29  1  0  0  0
  1 34  2  0  0  0
  2 30  2  0  0  0
  6 33  2  0  0  0
  8 24  2  0  0  0
  9 10  2  0  0  0
 11 12  2  0  0  0
 13 25  2  0  0  0
 14  7  2  0  0  0
 17 19  2  0  0  0
 18 29  2  0  0  0
 20 21  2  0  0  0
 22 16  2  0  0  0
 27 28  2  0  0  0
M  END
> <rmsd>
0.669813216

$$$$
ZELAVQJPJCUAMB-UHFFFAOYSA-N


 35 39  0  0  0  0  0  0  0  0999 V2000
    4.4908   23.6009   66.3163 C   0  0  0  0  0
    2.8659   25.2223   65.2631 C   0  0  0  0  0
    2.6757   26.7383   65.2112 C   0  0  0  0  0
    3.4312   28.7512   64.2830 C   0  0  0  0  0
    3.2202   29.1058   62.8218 C   0  0  0  0  0
    1.6822   28.5230   60.9878 C   0  0  0  0  0
    0.5217   27.7636   60.5097 C   0  0  0  0  0
   -0.2220   26.8317   61.1922 C   0  0  0  0  0
   -2.1489   25.3542   60.7785 C   0  0  0  0  0
   -2.2631   25.2950   62.3098 C   0  0  0  0  0
   -0.8725   25.2910   62.9721 C   0  0  0  0  0
   -0.0677   27.8350   59.2493 C   0  0  0  0  0
    4.9832   27.2338   65.1630 C   0  0  0  0  0
    5.3008   25.7957   65.4217 C   0  0  0  0  0
    3.6849   22.3952   66.0328 C   0  0  0  0  0
    3.1153   20.1628   66.5717 C   0  0  0  0  0
    2.2254   20.1168   65.5015 C   0  0  0  0  0
    2.0866   21.2513   64.6942 C   0  0  0  0  0
    0.2857   20.1164   63.3419 C   0  0  0  0  0
   -0.0564   20.0276   61.8557 C   0  0  0  0  0
    0.5595   22.1371   61.3787 C   0  0  0  0  0
    0.9793   22.4820   62.8060 C   0  0  0  0  0
    4.2287   24.8683   65.6792 N   0  0  0  0  0
    3.7376   27.3370   64.4068 N   0  0  0  0  0
   -1.2000   26.3921   60.3976 N   0  0  0  0  0
   -1.1165   26.9762   59.2130 N   0  0  0  0  0
    3.8270   21.2937   66.8166 N   0  0  0  0  0
    1.1838   21.2513   63.5738 N   0  0  0  0  0
    2.8251   22.3608   64.9780 N   0  0  0  0  0
    2.0961   28.3996   62.3135 O   0  0  0  0  0
    2.2989   29.2853   60.1937 O   0  0  0  0  0
   -0.0589   26.3708   62.4973 O   0  0  0  0  0
    6.4999   25.4095   65.4003 O   0  0  0  0  0
    5.4354   23.5110   67.1483 O   0  0  0  0  0
   -0.5439   21.2671   61.4025 O   0  0  0  0  0
  1 23  1  0  0  0
  1 15  1  0  0  0
  2 23  1  0  0  0
  2  3  1  0  0  0
  3 24  1  0  0  0
  4 24  1  0  0  0
  4  5  1  0  0  0
  5 30  1  0  0  0
  6 30  1  0  0  0
  6  7  1  0  0  0
  8 25  1  0  0  0
  8 32  1  0  0  0
  9 25  1  0  0  0
  9 10  1  0  0  0
 10 11  1  0  0  0
 11 32  1  0  0  0
 12  7  1  0  0  0
 13 24  1  0  0  0
 13 14  1  0  0  0
 14 23  1  0  0  0
 15 29  1  0  0  0
 16 27  1  0  0  0
 17 18  1  0  0  0
 18 28  1  0  0  0
 19 28  1  0  0  0
 19 20  1  0  0  0
 20 35  1  0  0  0
 21 35  1  0  0  0
 21 22  1  0  0  0
 22 28  1  0  0  0
 25 26  1  0  0  0
  1 34  2  0  0  0
  6 31  2  0  0  0
  7  8  2  0  0  0
 12 26  2  0  0  0
 14 33  2  0  0  0
 15 27  2  0  0  0
 16 17  2  0  0  0
 18 29  2  0  0  0
M  END
> <rmsd>
0.625592053

$$$$
NKVJHYBQJONMSA-UHFFFAOYSA-N


 29 33  0  0  0  0  0  0  0  0999 V2000
    4.7065   23.4012   66.7712 C   0  0  0  0  0
    4.9449   25.7963   66.1037 C   0  0  0  0  0
    4.3414   27.1407   65.8462 C   0  0  0  0  0
    2.3718   27.0140   64.5730 C   0  0  0  0  0
    1.7073   27.2849   63.2533 C   0  0  0  0  0
    2.3366   28.0925   62.2851 C   0  0  0  0  0
    1.0752   28.9701   59.1849 C   0  0  0  0  0
    1.1317   29.6415   57.8602 C   0  0  0  0  0
   -0.0049   28.2122   59.6435 C   0  0  0  0  0
    0.4480   27.8313   60.8889 C   0  0  0  0  0
    0.4180   26.7887   62.9872 C   0  0  0  0  0
    3.7226   28.6294   62.5105 C   0  0  0  0  0
    4.1002   28.5440   63.9889 C   0  0  0  0  0
    2.8464   25.0304   67.2733 C   0  0  0  0  0
    2.9357   25.9689   68.4672 C   0  0  0  0  0
    2.6968   24.4960   68.6909 C   0  0  0  0  0
    3.8512   22.2414   66.4526 C   0  0  0  0  0
    1.8182   21.3609   65.6163 C   0  0  0  0  0
    2.2797   20.0630   65.8267 C   0  0  0  0  0
    3.5573   19.8937   66.3565 C   0  0  0  0  0
    4.1898   24.7486   66.7506 N   0  0  0  0  0
    3.8242   27.1989   64.4892 N   0  0  0  0  0
    1.6697   28.3219   61.1259 N   0  0  0  0  0
    2.0790   29.0278   60.0900 N   0  0  0  0  0
   -0.1994   27.0653   61.8016 N   0  0  0  0  0
    2.6078   22.4211   65.9285 N   0  0  0  0  0
    4.3177   20.9789   66.6562 N   0  0  0  0  0
    6.1178   25.5801   65.6958 O   0  0  0  0  0
    5.9175   23.2043   67.0633 O   0  0  0  0  0
  1 21  1  0  0  0
  1 17  1  0  0  0
  3  2  1  0  0  0
  3 22  1  0  0  0
  4 22  1  0  0  0
  4  5  1  0  0  0
  6 23  1  0  0  0
  7  9  1  0  0  0
  8  7  1  0  0  0
 10 25  1  0  0  0
 10 23  1  0  0  0
 11  5  1  0  0  0
 12  6  1  0  0  0
 12 13  1  0  0  0
 13 22  1  0  0  0
 14 21  1  0  0  0
 14 15  1  0  0  0
 15 16  1  0  0  0
 16 14  1  0  0  0
 17 27  1  0  0  0
 18 26  1  0  0  0
 19 20  1  0  0  0
 21  2  1  0  0  0
 23 24  1  0  0  0
  1 29  2  0  0  0
  2 28  2  0  0  0
  5  6  2  0  0  0
  7 24  2  0  0  0
  9 10  2  0  0  0
 11 25  2  0  0  0
 17 26  2  0  0  0
 18 19  2  0  0  0
 20 27  2  0  0  0
M  END
> <rmsd>
0.642273903

$$$$
INACRIBVPRSUSP-UHFFFAOYSA-N


 35 39  0  0  0  0  0  0  0  0999 V2000
    2.2423   25.1623   63.0916 C   0  0  0  0  0
    3.5510   25.8499   65.1046 C   0  0  0  0  0
    4.5219   25.5415   66.2019 C   0  0  0  0  0
    6.7496   25.3317   66.8703 C   0  0  0  0  0
    7.1644   23.9970   66.2938 C   0  0  0  0  0
    7.1249   21.7048   67.2300 C   0  0  0  0  0
    6.4021   20.7163   67.9067 C   0  0  0  0  0
    6.9682   19.4578   68.1329 C   0  0  0  0  0
    8.2638   19.1828   67.6830 C   0  0  0  0  0
    8.9918   20.1641   67.0045 C   0  0  0  0  0
    8.4248   21.4220   66.7773 C   0  0  0  0  0
    6.2833   24.3864   65.1320 C   0  0  0  0  0
    3.1460   23.4173   64.6035 C   0  0  0  0  0
    3.3714   21.0334   64.7464 C   0  0  0  0  0
    3.4872   19.5622   64.5673 C   0  0  0  0  0
    2.7177   26.1861   62.1382 C   0  0  0  0  0
    4.0343   26.4234   61.7347 C   0  0  0  0  0
    5.2399   25.6760   62.1864 C   0  0  0  0  0
    2.8521   27.8146   60.6667 C   0  0  0  0  0
    1.9662   27.1038   61.4227 C   0  0  0  0  0
    0.6099   27.4292   61.3828 C   0  0  0  0  0
    1.1291   29.1255   59.7877 C   0  0  0  0  0
   -1.1832   28.8362   60.4601 C   0  0  0  0  0
    3.0139   24.8101   64.2550 N   0  0  0  0  0
    5.8989   25.6589   65.7327 N   0  0  0  0  0
    3.4196   21.6449   65.9501 N   0  0  0  0  0
    3.2944   22.9684   65.8718 N   0  0  0  0  0
    0.2148   28.4419   60.5463 N   0  0  0  0  0
    2.4578   28.8166   59.8461 N   0  0  0  0  0
    6.5311   22.9523   67.0222 O   0  0  0  0  0
    3.2156   27.0522   64.9273 O   0  0  0  0  0
    1.1469   24.5785   62.8758 O   0  0  0  0  0
    4.0819   27.4047   60.8532 O   0  0  0  0  0
   -0.2278   26.8202   62.1026 O   0  0  0  0  0
    3.1621   22.1410   63.4959 S   0  0  0  0  0
  1 24  1  0  0  0
  1 16  1  0  0  0
  3  2  1  0  0  0
  3 25  1  0  0  0
  4 25  1  0  0  0
  4  5  1  0  0  0
  5 30  1  0  0  0
  5 12  1  0  0  0
  6 30  1  0  0  0
  7  8  1  0  0  0
  9 10  1  0  0  0
 11  6  1  0  0  0
 12 25  1  0  0  0
 13 35  1  0  0  0
 14 35  1  0  0  0
 15 14  1  0  0  0
 17 33  1  0  0  0
 18 17  1  0  0  0
 19 33  1  0  0  0
 19 29  1  0  0  0
 20 21  1  0  0  0
 20 16  1  0  0  0
 21 28  1  0  0  0
 23 28  1  0  0  0
 24  2  1  0  0  0
 24 13  1  0  0  0
 26 27  1  0  0  0
 28 22  1  0  0  0
  1 32  2  0  0  0
  2 31  2  0  0  0
  6  7  2  0  0  0
  8  9  2  0  0  0
 10 11  2  0  0  0
 13 27  2  0  0  0
 14 26  2  0  0  0
 16 17  2  0  0  0
 19 20  2  0  0  0
 21 34  2  0  0  0
 22 29  2  0  0  0
M  END
> <rmsd>
0.600737035

$$$$
ILLIFXDVEBCLJJ-UHFFFAOYSA-N


 34 37  0  0  0  0  0  0  0  0999 V2000
    4.6214   23.5420   66.2298 C   0  0  0  0  0
    5.4705   25.7229   65.2976 C   0  0  0  0  0
    5.1726   26.9917   64.5542 C   0  0  0  0  0
    3.0010   26.4247   64.3240 C   0  0  0  0  0
    1.5877   26.9638   64.2198 C   0  0  0  0  0
    0.7191   27.8856   62.1104 C   0  0  0  0  0
    0.7277   28.9752   61.0998 C   0  0  0  0  0
    2.1279   29.6996   59.1938 C   0  0  0  0  0
    1.3061   30.8069   58.9245 C   0  0  0  0  0
    1.6123   31.6710   57.8693 C   0  0  0  0  0
    2.7396   31.4347   57.0779 C   0  0  0  0  0
    3.5605   30.3347   57.3413 C   0  0  0  0  0
    3.2545   29.4702   58.3966 C   0  0  0  0  0
    3.0192   25.2224   65.2696 C   0  0  0  0  0
    3.7257   22.3865   66.0382 C   0  0  0  0  0
    2.5719   19.1446   66.6655 C   0  0  0  0  0
    1.5309   18.4174   66.0694 C   0  0  0  0  0
    1.2473   17.1153   66.4918 C   0  0  0  0  0
    2.0022   16.5316   67.5127 C   0  0  0  0  0
    1.7005   15.1474   67.9614 C   0  0  0  0  0
    3.0409   17.2495   68.1117 C   0  0  0  0  0
    3.3249   18.5516   67.6897 C   0  0  0  0  0
    4.3951   24.7952   65.5529 N   0  0  0  0  0
    2.7325   22.3228   65.1274 N   0  0  0  0  0
    2.2088   21.1169   65.2757 N   0  0  0  0  0
    2.8630   20.4797   66.2327 N   0  0  0  0  0
    3.8239   21.2375   66.7348 N   0  0  0  0  0
    6.6600   25.4527   65.6127 O   0  0  0  0  0
    3.8596   27.4215   64.8208 O   0  0  0  0  0
    1.5350   27.9879   63.2370 O   0  0  0  0  0
    0.0014   26.8669   61.9211 O   0  0  0  0  0
    1.8493   28.8176   60.2411 O   0  0  0  0  0
    5.6060   23.4155   67.0073 O   0  0  0  0  0
    3.1233   32.5164   55.7566 Cl  0  0  0  0  0
  1 23  1  0  0  0
  1 15  1  0  0  0
  3  2  1  0  0  0
  3 29  1  0  0  0
  4 29  1  0  0  0
  4  5  1  0  0  0
  4 14  1  0  0  0
  5 30  1  0  0  0
  6 30  1  0  0  0
  7  6  1  0  0  0
  7 32  1  0  0  0
  8 32  1  0  0  0
  9 10  1  0  0  0
 11 34  1  0  0  0
 11 12  1  0  0  0
 13  8  1  0  0  0
 14 23  1  0  0  0
 15 24  1  0  0  0
 17 18  1  0  0  0
 19 21  1  0  0  0
 20 19  1  0  0  0
 22 16  1  0  0  0
 23  2  1  0  0  0
 26 25  1  0  0  0
 26 16  1  0  0  0
 26 27  1  0  0  0
  1 33  2  0  0  0
  2 28  2  0  0  0
  6 31  2  0  0  0
  8  9  2  0  0  0
 10 11  2  0  0  0
 12 13  2  0  0  0
 15 27  2  0  0  0
 16 17  2  0  0  0
 18 19  2  0  0  0
 21 22  2  0  0  0
 24 25  2  0  0  0
M  END
> <rmsd>
0.670660317

$$$$
