DJAPXSQBWJAVBC-UHFFFAOYSA-N


 34 37  0  0  0  0  0  0  0  0999 V2000
    5.2595   23.5044   66.9391 C   0  0  0  0  0
    3.4649   24.9854   65.9266 C   0  0  0  0  0
    3.1227   26.3320   65.3725 C   0  0  0  0  0
    4.9168   27.6495   65.5076 C   0  0  0  0  0
    5.5960   28.7556   64.7220 C   0  0  0  0  0
    4.5335   29.6955   62.7128 C   0  0  0  0  0
    3.3696   30.4075   62.1122 C   0  0  0  0  0
    2.0743   28.7975   60.7791 C   0  0  0  0  0
    1.0110   27.8936   60.6633 C   0  0  0  0  0
    0.1542   27.7206   61.7645 C   0  0  0  0  0
   -1.1256   26.1255   60.5618 C   0  0  0  0  0
   -0.2988   26.2675   59.4438 C   0  0  0  0  0
    0.7751   27.1578   59.4962 C   0  0  0  0  0
    1.4062   29.2957   62.9991 C   0  0  0  0  0
    5.9695   26.8419   66.2611 C   0  0  0  0  0
    5.3079   25.9669   67.3176 C   0  0  0  0  0
    4.7796   22.2751   66.2349 C   0  0  0  0  0
    4.2108   20.7274   68.0798 C   0  0  0  0  0
    4.9685   19.0390   70.1204 C   0  0  0  0  0
    3.6160   19.2966   69.9180 C   0  0  0  0  0
    3.2319   20.1520   68.8868 C   0  0  0  0  0
    4.6622   24.7990   66.7133 N   0  0  0  0  0
    2.2526   29.4837   61.9489 N   0  0  0  0  0
   -0.8860   26.8483   61.6883 N   0  0  0  0  0
    0.3690   28.4247   62.9035 N   0  0  0  0  0
    5.5214   20.4438   68.3188 N   0  0  0  0  0
    5.8867   19.6254   69.3094 N   0  0  0  0  0
    2.6807   24.0271   65.7008 O   0  0  0  0  0
    4.2046   26.8190   64.6304 O   0  0  0  0  0
    4.6108   29.5651   64.0982 O   0  0  0  0  0
    5.4043   29.1776   61.9646 O   0  0  0  0  0
    2.8614   28.9762   59.8094 O   0  0  0  0  0
    6.2125   23.3875   67.7560 O   0  0  0  0  0
    3.8339   21.5832   67.0415 O   0  0  0  0  0
  1 22  1  0  0  0
  3  2  1  0  0  0
  3 29  1  0  0  0
  4 29  1  0  0  0
  4  5  1  0  0  0
  4 15  1  0  0  0
  5 30  1  0  0  0
  6 30  1  0  0  0
  7  6  1  0  0  0
  7 23  1  0  0  0
  8  9  1  0  0  0
 10 24  1  0  0  0
 10 25  1  0  0  0
 11 12  1  0  0  0
 13  9  1  0  0  0
 14 23  1  0  0  0
 15 16  1  0  0  0
 16 22  1  0  0  0
 17  1  1  0  0  0
 17 34  1  0  0  0
 18 34  1  0  0  0
 19 20  1  0  0  0
 21 18  1  0  0  0
 22  2  1  0  0  0
 23  8  1  0  0  0
 26 27  1  0  0  0
  1 33  2  0  0  0
  2 28  2  0  0  0
  6 31  2  0  0  0
  8 32  2  0  0  0
  9 10  2  0  0  0
 11 24  2  0  0  0
 12 13  2  0  0  0
 14 25  2  0  0  0
 18 26  2  0  0  0
 19 27  2  0  0  0
 20 21  2  0  0  0
M  END
> <rmsd>
0.796696663

$$$$
