XSIVWJQNIWURFN-UHFFFAOYSA-N


 27 29  0  0  0  0  0  0  0  0999 V2000
    2.8946   25.5461   64.5335 C   0  0  0  0  0
    0.4172   24.9244   64.2841 C   0  0  0  0  0
   -0.7447   25.5325   63.4840 C   0  0  0  0  0
   -0.6748   26.7148   61.2529 C   0  0  0  0  0
   -0.2829   25.5668   60.3812 C   0  0  0  0  0
   -1.0932   24.4319   60.2997 C   0  0  0  0  0
   -0.7027   23.3554   59.5018 C   0  0  0  0  0
    0.5013   23.4304   58.7972 C   0  0  0  0  0
    0.9167   25.6012   59.6650 C   0  0  0  0  0
    1.2180   26.6511   62.9439 C   0  0  0  0  0
    2.0767   27.5335   62.4106 C   0  0  0  0  0
    3.2967   24.3005   65.2234 C   0  0  0  0  0
    2.9213   22.0127   65.7142 C   0  0  0  0  0
    4.8312   23.0780   66.6156 C   0  0  0  0  0
    6.4185   21.8557   68.0469 C   0  0  0  0  0
    4.4665   24.2695   65.9902 C   0  0  0  0  0
    1.6043   25.6770   63.9033 N   0  0  0  0  0
   -0.1611   26.5432   62.6101 N   0  0  0  0  0
    1.2801   24.5419   58.8929 N   0  0  0  0  0
    1.6985   28.6073   61.5456 N   0  0  0  0  0
    2.5540   23.1670   65.0993 N   0  0  0  0  0
    4.0513   21.9725   66.4664 N   0  0  0  0  0
    1.0097   22.0912   57.7919 Cl  0  0  0  0  0
    0.5009   29.2605   61.7250 O   0  0  0  0  0
    2.5733   29.1381   60.8332 O   0  0  0  0  0
    3.7048   26.5124   64.4999 O   0  0  0  0  0
    5.9938   23.0381   67.3859 O   0  0  0  0  0
  1 17  1  0  0  0
  1 12  1  0  0  0
  2 17  1  0  0  0
  2  3  1  0  0  0
  3 18  1  0  0  0
  4 18  1  0  0  0
  4  5  1  0  0  0
  6  7  1  0  0  0
  8 23  1  0  0  0
  8 19  1  0  0  0
  9  5  1  0  0  0
 10 17  1  0  0  0
 11 20  1  0  0  0
 13 21  1  0  0  0
 14 22  1  0  0  0
 14 27  1  0  0  0
 15 27  1  0  0  0
 16 12  1  0  0  0
 18 10  1  0  0  0
 20 24  1  0  0  0
  1 26  2  0  0  0
  5  6  2  0  0  0
  7  8  2  0  0  0
  9 19  2  0  0  0
 10 11  2  0  0  0
 12 21  2  0  0  0
 13 22  2  0  0  0
 14 16  2  0  0  0
 20 25  2  0  0  0
M  CHG  2  20   1  24  -1
M  END
> <rmsd>
0.518785417

$$$$
XSIVWJQNIWURFN-UHFFFAOYSA-N


 27 29  0  0  0  0  0  0  0  0999 V2000
    2.8698   25.5441   64.5414 C   0  0  0  0  0
    0.3931   24.9125   64.3142 C   0  0  0  0  0
   -0.7792   25.5174   63.5271 C   0  0  0  0  0
   -0.7387   26.7052   61.2986 C   0  0  0  0  0
   -0.3379   25.5686   60.4160 C   0  0  0  0  0
    0.8479   25.6310   59.6805 C   0  0  0  0  0
    1.2284   24.5511   58.8826 C   0  0  0  0  0
    0.4133   23.4178   58.8360 C   0  0  0  0  0
   -1.1234   24.4149   60.3470 C   0  0  0  0  0
    1.1734   26.6456   62.9699 C   0  0  0  0  0
    2.0236   27.5356   62.4330 C   0  0  0  0  0
    3.2804   24.3005   65.2300 C   0  0  0  0  0
    2.9250   22.0075   65.7109 C   0  0  0  0  0
    4.8261   23.0854   66.6162 C   0  0  0  0  0
    6.4243   21.8710   68.0425 C   0  0  0  0  0
    4.4510   24.2763   65.9957 C   0  0  0  0  0
    1.5730   25.6713   63.9238 N   0  0  0  0  0
   -0.2086   26.5325   62.6496 N   0  0  0  0  0
   -0.7357   23.3728   59.5633 N   0  0  0  0  0
    1.6398   28.6112   61.5709 N   0  0  0  0  0
    2.5482   23.1609   65.1002 N   0  0  0  0  0
    4.0553   21.9740   66.4630 N   0  0  0  0  0
    0.8733   22.0518   57.8434 Cl  0  0  0  0  0
    2.6045   29.2047   60.7932 O   0  0  0  0  0
    0.5474   29.1946   61.7281 O   0  0  0  0  0
    3.6779   26.5119   64.4990 O   0  0  0  0  0
    5.9900   23.0519   67.3848 O   0  0  0  0  0
  1 17  1  0  0  0
  1 12  1  0  0  0
  2 17  1  0  0  0
  2  3  1  0  0  0
  3 18  1  0  0  0
  4 18  1  0  0  0
  4  5  1  0  0  0
  6  7  1  0  0  0
  8 23  1  0  0  0
  8 19  1  0  0  0
  9  5  1  0  0  0
 10 17  1  0  0  0
 11 20  1  0  0  0
 13 21  1  0  0  0
 14 22  1  0  0  0
 14 27  1  0  0  0
 15 27  1  0  0  0
 16 12  1  0  0  0
 18 10  1  0  0  0
 20 24  1  0  0  0
  1 26  2  0  0  0
  5  6  2  0  0  0
  7  8  2  0  0  0
  9 19  2  0  0  0
 10 11  2  0  0  0
 12 21  2  0  0  0
 13 22  2  0  0  0
 14 16  2  0  0  0
 20 25  2  0  0  0
M  CHG  2  20   1  24  -1
M  END
> <rmsd>
0.516983867

$$$$
WXKFGMNGLFBDIN-UHFFFAOYSA-N


 35 39  0  0  0  0  0  0  0  0999 V2000
    2.6782   25.4666   64.1381 C   0  0  0  0  0
    0.5412   26.4229   63.1778 C   0  0  0  0  0
    0.7614   27.7591   63.8101 C   0  0  0  0  0
    0.2480   29.4653   62.2701 C   0  0  0  0  0
    0.7678   30.5540   61.3148 C   0  0  0  0  0
    2.3051   30.5377   61.1600 C   0  0  0  0  0
    2.1008   29.4419   59.0275 C   0  0  0  0  0
    2.6684   28.3994   58.1116 C   0  0  0  0  0
    3.9208   27.8665   58.3381 C   0  0  0  0  0
    2.8284   26.9932   56.2549 C   0  0  0  0  0
    2.0550   27.9324   56.9431 C   0  0  0  0  0
    4.7545   28.2053   59.5287 C   0  0  0  0  0
    4.2129   29.4905   60.1594 C   0  0  0  0  0
    2.9551   30.5137   62.5606 C   0  0  0  0  0
    2.2432   29.5700   63.5446 C   0  0  0  0  0
    1.3487   24.1780   62.4508 C   0  0  0  0  0
    2.3063   24.2279   61.2667 C   0  0  0  0  0
    2.5768   23.2765   59.2617 C   0  0  0  0  0
    1.9926   24.6330   58.9432 C   0  0  0  0  0
    1.8784   25.2976   60.2809 C   0  0  0  0  0
    3.1487   24.3192   64.9437 C   0  0  0  0  0
    2.8579   22.0958   65.7105 C   0  0  0  0  0
    4.7083   23.3461   66.4985 C   0  0  0  0  0
    6.3181   22.3780   68.0869 C   0  0  0  0  0
    4.3050   24.4357   65.7275 C   0  0  0  0  0
    1.5104   25.3589   63.2952 N   0  0  0  0  0
    1.3401   28.6678   62.8320 N   0  0  0  0  0
    2.7533   29.3921   60.3517 N   0  0  0  0  0
    2.4488   23.1521   64.9600 N   0  0  0  0  0
    3.9790   22.1968   66.4747 N   0  0  0  0  0
    4.2708   26.7775   57.1171 S   0  0  0  0  0
   -0.5047   26.2506   62.4953 O   0  0  0  0  0
    2.3061   22.9875   60.6087 O   0  0  0  0  0
    3.3148   26.5531   64.1870 O   0  0  0  0  0
    5.8508   23.4561   67.2920 O   0  0  0  0  0
  1 26  1  0  0  0
  1 21  1  0  0  0
  3  2  1  0  0  0
  3 27  1  0  0  0
  4 27  1  0  0  0
  4  5  1  0  0  0
  5  6  1  0  0  0
  6 28  1  0  0  0
  6 14  1  0  0  0
  7 28  1  0  0  0
  7  8  1  0  0  0
  9 31  1  0  0  0
 10 31  1  0  0  0
 11  8  1  0  0  0
 12  9  1  0  0  0
 12 13  1  0  0  0
 13 28  1  0  0  0
 14 15  1  0  0  0
 15 27  1  0  0  0
 16 26  1  0  0  0
 16 17  1  0  0  0
 17 33  1  0  0  0
 18 33  1  0  0  0
 18 19  1  0  0  0
 19 20  1  0  0  0
 20 17  1  0  0  0
 22 29  1  0  0  0
 23 30  1  0  0  0
 23 35  1  0  0  0
 24 35  1  0  0  0
 25 21  1  0  0  0
 26  2  1  0  0  0
  1 34  2  0  0  0
  2 32  2  0  0  0
  8  9  2  0  0  0
 10 11  2  0  0  0
 21 29  2  0  0  0
 22 30  2  0  0  0
 23 25  2  0  0  0
M  END
> <rmsd>
0.62300539

$$$$
JEKIMXXPSIGUHP-UHFFFAOYSA-N


 33 36  0  0  0  0  0  0  0  0999 V2000
    2.7569   25.6283   64.3457 C   0  0  0  0  0
    0.8341   26.6213   63.0248 C   0  0  0  0  0
    0.8980   27.9464   63.7361 C   0  0  0  0  0
    2.8631   28.7778   62.5249 C   0  0  0  0  0
    3.7404   30.0177   62.7245 C   0  0  0  0  0
    3.4038   31.1561   61.7562 C   0  0  0  0  0
    4.4264   32.2782   61.9313 C   0  0  0  0  0
    6.0551   30.9369   62.7336 C   0  0  0  0  0
    5.2247   29.6560   62.6545 C   0  0  0  0  0
    2.9951   28.1263   61.1370 C   0  0  0  0  0
    2.3467   28.1172   58.8990 C   0  0  0  0  0
    0.8042   28.7115   60.5421 C   0  0  0  0  0
    0.5654   29.4690   61.8474 C   0  0  0  0  0
    1.8335   24.4455   62.3355 C   0  0  0  0  0
    2.6671   24.7794   61.1077 C   0  0  0  0  0
    3.6070   23.8394   59.3254 C   0  0  0  0  0
    4.7776   24.1839   60.2179 C   0  0  0  0  0
    4.1411   24.7682   61.4420 C   0  0  0  0  0
    3.2205   24.3977   65.0249 C   0  0  0  0  0
    2.9694   22.0852   65.4760 C   0  0  0  0  0
    4.7325   23.2697   66.5171 C   0  0  0  0  0
    6.2988   22.1429   68.0467 C   0  0  0  0  0
    4.3269   24.4414   65.8798 C   0  0  0  0  0
    1.8031   25.5773   63.2611 N   0  0  0  0  0
    1.4674   29.0345   62.9275 N   0  0  0  0  0
    2.1985   28.8397   60.1486 N   0  0  0  0  0
    2.5631   23.2192   64.8483 N   0  0  0  0  0
    4.0467   22.1137   66.3024 N   0  0  0  0  0
    5.7202   31.7923   61.6680 O   0  0  0  0  0
   -0.1143   26.4210   62.2187 O   0  0  0  0  0
    2.4404   23.8289   60.1040 O   0  0  0  0  0
    3.2194   26.7383   64.7254 O   0  0  0  0  0
    5.8379   23.3015   67.3677 O   0  0  0  0  0
  1 24  1  0  0  0
  1 19  1  0  0  0
  3  2  1  0  0  0
  3 25  1  0  0  0
  4 25  1  0  0  0
  4  5  1  0  0  0
  4 10  1  0  0  0
  5  6  1  0  0  0
  6  7  1  0  0  0
  7 29  1  0  0  0
  8 29  1  0  0  0
  8  9  1  0  0  0
  9  5  1  0  0  0
 10 26  1  0  0  0
 11 26  1  0  0  0
 12 26  1  0  0  0
 12 13  1  0  0  0
 13 25  1  0  0  0
 14 24  1  0  0  0
 14 15  1  0  0  0
 15 31  1  0  0  0
 16 31  1  0  0  0
 16 17  1  0  0  0
 17 18  1  0  0  0
 18 15  1  0  0  0
 20 27  1  0  0  0
 21 28  1  0  0  0
 21 33  1  0  0  0
 22 33  1  0  0  0
 23 19  1  0  0  0
 24  2  1  0  0  0
  1 32  2  0  0  0
  2 30  2  0  0  0
 19 27  2  0  0  0
 20 28  2  0  0  0
 21 23  2  0  0  0
M  END
> <rmsd>
0.56345433

$$$$
OHHDZWLFBTWOMA-UHFFFAOYSA-N


 31 33  0  0  0  0  0  0  0  0999 V2000
    2.8154   25.5483   64.0618 C   0  0  0  0  0
    0.8463   26.5903   62.8978 C   0  0  0  0  0
    0.8435   27.7692   63.8226 C   0  0  0  0  0
    0.0698   29.9769   63.8703 C   0  0  0  0  0
    1.0542   30.8226   64.6426 C   0  0  0  0  0
    2.2957   30.7998   63.8000 C   0  0  0  0  0
    2.1985   29.5154   62.9940 C   0  0  0  0  0
    2.6120   29.7538   61.5308 C   0  0  0  0  0
    3.6889   27.7620   61.1702 C   0  0  0  0  0
    4.1268   26.9103   59.9979 C   0  0  0  0  0
    1.5622   24.2204   62.3619 C   0  0  0  0  0
    0.1657   23.6182   62.5378 C   0  0  0  0  0
    0.0517   22.3178   61.7481 C   0  0  0  0  0
    0.3509   22.5680   60.2725 C   0  0  0  0  0
    1.7568   23.1397   60.1102 C   0  0  0  0  0
    1.8877   24.4477   60.8847 C   0  0  0  0  0
    3.2128   24.3993   64.9044 C   0  0  0  0  0
    2.7516   22.2506   65.7897 C   0  0  0  0  0
    4.7496   23.3463   66.4253 C   0  0  0  0  0
    6.3448   22.2926   67.9768 C   0  0  0  0  0
    4.4098   24.4378   65.6271 C   0  0  0  0  0
    1.7132   25.4570   63.1362 N   0  0  0  0  0
    0.8227   29.0173   63.0697 N   0  0  0  0  0
    2.4079   23.3071   65.0081 N   0  0  0  0  0
    3.9145   22.2732   66.4905 N   0  0  0  0  0
    2.5885   28.5488   60.7932 O   0  0  0  0  0
    0.0229   26.5695   61.9424 O   0  0  0  0  0
    3.4627   26.6272   64.1549 O   0  0  0  0  0
    5.9434   23.3722   67.1468 O   0  0  0  0  0
    1.7116   30.6294   60.9480 F   0  0  0  0  0
    3.8692   30.3474   61.4771 F   0  0  0  0  0
  1 22  1  0  0  0
  1 17  1  0  0  0
  3  2  1  0  0  0
  3 23  1  0  0  0
  4 23  1  0  0  0
  4  5  1  0  0  0
  5  6  1  0  0  0
  6  7  1  0  0  0
  7  8  1  0  0  0
  7 23  1  0  0  0
  8 26  1  0  0  0
  8 30  1  0  0  0
  8 31  1  0  0  0
  9 26  1  0  0  0
  9 10  1  0  0  0
 11 22  1  0  0  0
 11 12  1  0  0  0
 12 13  1  0  0  0
 13 14  1  0  0  0
 14 15  1  0  0  0
 15 16  1  0  0  0
 16 11  1  0  0  0
 18 24  1  0  0  0
 19 25  1  0  0  0
 19 29  1  0  0  0
 20 29  1  0  0  0
 21 17  1  0  0  0
 22  2  1  0  0  0
  1 28  2  0  0  0
  2 27  2  0  0  0
 17 24  2  0  0  0
 18 25  2  0  0  0
 19 21  2  0  0  0
M  END
> <rmsd>
0.574179351

$$$$
WWJRPGFZTKJRRD-UHFFFAOYSA-N


 35 38  0  0  0  0  0  0  0  0999 V2000
    1.7566   28.1183   62.9380 C   0  0  0  0  0
    2.7873   25.9461   63.6904 C   0  0  0  0  0
    2.7185   24.4371   63.8298 C   0  0  0  0  0
    3.8199   24.0697   65.9139 C   0  0  0  0  0
    4.6271   22.7805   65.7705 C   0  0  0  0  0
    4.0054   21.7545   67.7543 C   0  0  0  0  0
    5.4524   21.8728   68.2378 C   0  0  0  0  0
    6.0491   22.9345   66.3339 C   0  0  0  0  0
    1.5607   24.7248   65.9526 C   0  0  0  0  0
    1.6843   23.8120   62.8915 C   0  0  0  0  0
    0.3459   24.5236   63.0153 C   0  0  0  0  0
    0.5189   25.9654   62.6666 C   0  0  0  0  0
    3.0443   28.7999   62.5985 C   0  0  0  0  0
    3.4365   28.5156   61.1559 C   0  0  0  0  0
    3.1297   30.3951   59.7846 C   0  0  0  0  0
    2.1557   31.1871   58.9069 C   0  0  0  0  0
    1.4281   30.2993   57.9351 C   0  0  0  0  0
    0.6302   30.8764   56.9451 C   0  0  0  0  0
   -0.0819   30.0715   56.0403 C   0  0  0  0  0
   -1.0345   32.0418   54.8835 C   0  0  0  0  0
    0.0090   28.6734   56.1338 C   0  0  0  0  0
   -0.6637   26.4604   55.2503 C   0  0  0  0  0
    0.8044   28.0947   57.1362 C   0  0  0  0  0
    1.4992   28.8987   58.0412 C   0  0  0  0  0
    2.3666   28.2678   59.0895 C   0  0  0  0  0
    1.6861   26.6872   63.1140 N   0  0  0  0  0
    2.5502   23.9488   65.2115 N   0  0  0  0  0
    2.5037   29.1562   60.2427 N   0  0  0  0  0
    3.8103   26.5456   64.1181 O   0  0  0  0  0
    3.9624   21.6664   66.3435 O   0  0  0  0  0
    6.0135   23.0600   67.7354 O   0  0  0  0  0
   -0.3510   26.5256   61.9466 O   0  0  0  0  0
    0.7117   28.8180   63.0198 O   0  0  0  0  0
   -0.8829   30.6380   55.0431 O   0  0  0  0  0
   -0.6978   27.8809   55.2226 O   0  0  0  0  0
  1 26  1  0  0  0
  3  2  1  0  0  0
  3 27  1  0  0  0
  3 10  1  0  0  0
  4 27  1  0  0  0
  4  5  1  0  0  0
  5 30  1  0  0  0
  6 30  1  0  0  0
  6  7  1  0  0  0
  7 31  1  0  0  0
  8 31  1  0  0  0
  8  5  1  0  0  0
  9 27  1  0  0  0
 10 11  1  0  0  0
 11 12  1  0  0  0
 12 26  1  0  0  0
 13  1  1  0  0  0
 13 14  1  0  0  0
 14 28  1  0  0  0
 15 28  1  0  0  0
 15 16  1  0  0  0
 16 17  1  0  0  0
 18 19  1  0  0  0
 19 34  1  0  0  0
 20 34  1  0  0  0
 21 35  1  0  0  0
 21 23  1  0  0  0
 22 35  1  0  0  0
 24 17  1  0  0  0
 25 24  1  0  0  0
 25 28  1  0  0  0
 26  2  1  0  0  0
  1 33  2  0  0  0
  2 29  2  0  0  0
 12 32  2  0  0  0
 17 18  2  0  0  0
 19 21  2  0  0  0
 23 24  2  0  0  0
M  END
> <rmsd>
0.58717972

$$$$
UZVHIVDZTFKXBO-UHFFFAOYSA-N


 33 36  0  0  0  0  0  0  0  0999 V2000
    2.6491   26.0661   64.7561 C   0  0  0  0  0
    0.1849   26.1446   64.3764 C   0  0  0  0  0
   -1.0191   25.7402   63.5690 C   0  0  0  0  0
   -1.2167   27.9030   62.5714 C   0  0  0  0  0
   -0.2266   28.6901   61.7268 C   0  0  0  0  0
    1.8354   29.7182   62.3483 C   0  0  0  0  0
    2.2270   30.3292   60.9963 C   0  0  0  0  0
    2.2139   28.3470   59.9425 C   0  0  0  0  0
    1.8222   27.5724   61.2071 C   0  0  0  0  0
   -2.3249   26.1056   61.6178 C   0  0  0  0  0
   -0.9280   24.2273   63.3350 C   0  0  0  0  0
    0.3370   23.8445   62.5657 C   0  0  0  0  0
    1.5669   24.4968   63.1287 C   0  0  0  0  0
    3.6230   25.1616   65.3980 C   0  0  0  0  0
    4.2200   23.0347   66.1806 C   0  0  0  0  0
    5.2385   21.4152   67.0300 C   0  0  0  0  0
    5.7814   24.7931   66.4713 C   0  0  0  0  0
    7.1313   25.2749   66.9719 C   0  0  0  0  0
    7.3501   26.7605   66.7211 C   0  0  0  0  0
    7.2411   25.0349   68.4663 C   0  0  0  0  0
    8.2410   24.5162   66.2678 C   0  0  0  0  0
    4.8640   25.6628   65.8485 C   0  0  0  0  0
    1.4700   25.5509   64.1097 N   0  0  0  0  0
   -1.0892   26.4760   62.2950 N   0  0  0  0  0
    1.1369   28.4359   62.1809 N   0  0  0  0  0
    3.3156   23.8424   65.5787 N   0  0  0  0  0
    5.3960   23.4933   66.6041 N   0  0  0  0  0
    6.0588   22.4901   67.1451 N   0  0  0  0  0
    4.0609   21.7241   66.4223 N   0  0  0  0  0
    0.0526   27.0093   65.2841 O   0  0  0  0  0
    3.0380   29.4297   60.2870 O   0  0  0  0  0
    2.6915   24.1385   62.6873 O   0  0  0  0  0
    2.8407   27.3124   64.7936 O   0  0  0  0  0
  1 23  1  0  0  0
  1 14  1  0  0  0
  3  2  1  0  0  0
  3 24  1  0  0  0
  3 11  1  0  0  0
  4 24  1  0  0  0
  4  5  1  0  0  0
  5 25  1  0  0  0
  6 25  1  0  0  0
  6  7  1  0  0  0
  7 31  1  0  0  0
  8 31  1  0  0  0
  8  9  1  0  0  0
  9 25  1  0  0  0
 10 24  1  0  0  0
 11 12  1  0  0  0
 12 13  1  0  0  0
 13 23  1  0  0  0
 15 26  1  0  0  0
 15 27  1  0  0  0
 16 29  1  0  0  0
 18 17  1  0  0  0
 18 19  1  0  0  0
 18 20  1  0  0  0
 18 21  1  0  0  0
 22 14  1  0  0  0
 23  2  1  0  0  0
 27 28  1  0  0  0
 27 17  1  0  0  0
  1 33  2  0  0  0
  2 30  2  0  0  0
 13 32  2  0  0  0
 14 26  2  0  0  0
 15 29  2  0  0  0
 16 28  2  0  0  0
 17 22  2  0  0  0
M  END
> <rmsd>
0.791265905

$$$$
SHSALMAHLPLFTC-UHFFFAOYSA-N


 34 38  0  0  0  0  0  0  0  0999 V2000
    2.6994   25.5425   64.2622 C   0  0  0  0  0
    0.7153   26.5294   63.0420 C   0  0  0  0  0
    0.7838   27.8155   63.8053 C   0  0  0  0  0
    2.4026   29.2656   62.9014 C   0  0  0  0  0
    3.0859   28.7077   61.6965 C   0  0  0  0  0
    3.6310   28.2437   59.7413 C   0  0  0  0  0
    3.6457   28.1275   58.2526 C   0  0  0  0  0
    3.7792   29.5044   57.6293 C   0  0  0  0  0
    4.9842   28.5947   57.7125 C   0  0  0  0  0
    2.5172   30.7694   62.9314 C   0  0  0  0  0
    1.2633   31.2196   63.6285 C   0  0  0  0  0
    0.2809   30.0771   63.4530 C   0  0  0  0  0
    1.4952   24.2218   62.5089 C   0  0  0  0  0
    2.3740   24.3030   61.3072 C   0  0  0  0  0
    2.9986   24.7294   59.3169 C   0  0  0  0  0
    4.0938   24.1829   59.9651 C   0  0  0  0  0
    3.6918   23.9072   61.2607 C   0  0  0  0  0
    3.1566   24.3689   65.0364 C   0  0  0  0  0
    2.7828   22.1698   65.8345 C   0  0  0  0  0
    4.7831   23.2812   66.4335 C   0  0  0  0  0
    6.4689   22.1939   67.8614 C   0  0  0  0  0
    4.3841   24.4010   65.7051 C   0  0  0  0  0
    1.6192   25.4378   63.3100 N   0  0  0  0  0
    0.9839   28.9289   62.8885 N   0  0  0  0  0
    4.4785   27.5766   60.5489 N   0  0  0  0  0
    2.7207   28.9675   60.4255 N   0  0  0  0  0
    2.3808   23.2542   65.1224 N   0  0  0  0  0
    3.9758   22.1863   66.4828 N   0  0  0  0  0
    4.1097   27.8939   61.7516 O   0  0  0  0  0
   -0.1841   26.3996   62.1676 O   0  0  0  0  0
    1.9916   24.7876   60.1546 O   0  0  0  0  0
    3.2818   26.6477   64.4327 O   0  0  0  0  0
    6.0060   23.3026   67.1053 O   0  0  0  0  0
    1.5253   31.3882   64.9752 F   0  0  0  0  0
  1 23  1  0  0  0
  1 18  1  0  0  0
  3  2  1  0  0  0
  3 24  1  0  0  0
  4 24  1  0  0  0
  4  5  1  0  0  0
  4 10  1  0  0  0
  5 29  1  0  0  0
  6 26  1  0  0  0
  7  6  1  0  0  0
  7  8  1  0  0  0
  8  9  1  0  0  0
  9  7  1  0  0  0
 10 11  1  0  0  0
 11 34  1  0  0  0
 11 12  1  0  0  0
 12 24  1  0  0  0
 13 23  1  0  0  0
 13 14  1  0  0  0
 14 31  1  0  0  0
 15 31  1  0  0  0
 16 17  1  0  0  0
 19 27  1  0  0  0
 20 28  1  0  0  0
 20 33  1  0  0  0
 21 33  1  0  0  0
 22 18  1  0  0  0
 23  2  1  0  0  0
 29 25  1  0  0  0
  1 32  2  0  0  0
  2 30  2  0  0  0
  5 26  2  0  0  0
  6 25  2  0  0  0
 15 16  2  0  0  0
 17 14  2  0  0  0
 18 27  2  0  0  0
 19 28  2  0  0  0
 20 22  2  0  0  0
M  END
> <rmsd>
0.44045648

$$$$
KZLPTDSTCGVDKE-UHFFFAOYSA-N


 34 37  0  0  0  0  0  0  0  0999 V2000
    5.1212   23.3324   66.5842 C   0  0  0  0  0
    2.9941   24.4987   65.8578 C   0  0  0  0  0
    2.4117   25.8095   65.4220 C   0  0  0  0  0
    3.9001   27.4278   65.8029 C   0  0  0  0  0
    4.3483   28.7459   65.1953 C   0  0  0  0  0
    3.3718   29.7315   63.1660 C   0  0  0  0  0
    2.1602   30.2011   62.4379 C   0  0  0  0  0
    1.7287   28.6900   60.5495 C   0  0  0  0  0
    1.0620   27.5836   60.0110 C   0  0  0  0  0
    0.1548   26.8901   60.8331 C   0  0  0  0  0
   -0.5395   25.7796   60.3340 C   0  0  0  0  0
   -0.3297   25.3620   59.0131 C   0  0  0  0  0
    0.5750   26.0502   58.1927 C   0  0  0  0  0
    1.2710   27.1594   58.6891 C   0  0  0  0  0
    5.0844   26.7711   66.5056 C   0  0  0  0  0
    4.6069   25.6356   67.4033 C   0  0  0  0  0
    4.8447   22.1180   65.7490 C   0  0  0  0  0
    4.7517   20.2739   67.3990 C   0  0  0  0  0
    6.0056   18.5516   69.1436 C   0  0  0  0  0
    4.6121   18.5530   69.0743 C   0  0  0  0  0
    3.9779   19.4242   68.1906 C   0  0  0  0  0
    4.2227   24.4614   66.6146 N   0  0  0  0  0
    1.4713   29.0629   61.8393 N   0  0  0  0  0
   -0.0404   27.3066   62.1083 N   0  0  0  0  0
    0.6086   28.3692   62.5876 N   0  0  0  0  0
    6.1109   20.2310   67.5033 N   0  0  0  0  0
    6.7186   19.3965   68.3498 N   0  0  0  0  0
    2.3817   23.4351   65.5638 O   0  0  0  0  0
    3.4032   26.5817   64.8000 O   0  0  0  0  0
    3.2666   29.3553   64.5051 O   0  0  0  0  0
    4.4710   29.6447   62.5536 O   0  0  0  0  0
    2.5585   29.3390   59.8507 O   0  0  0  0  0
    6.1645   23.3416   67.2934 O   0  0  0  0  0
    4.1229   21.1515   66.5108 O   0  0  0  0  0
  1 22  1  0  0  0
  3  2  1  0  0  0
  3 29  1  0  0  0
  4 29  1  0  0  0
  4  5  1  0  0  0
  4 15  1  0  0  0
  5 30  1  0  0  0
  6 30  1  0  0  0
  7  6  1  0  0  0
  7 23  1  0  0  0
  8  9  1  0  0  0
 10 11  1  0  0  0
 10 24  1  0  0  0
 12 13  1  0  0  0
 14  9  1  0  0  0
 15 16  1  0  0  0
 16 22  1  0  0  0
 17  1  1  0  0  0
 17 34  1  0  0  0
 18 34  1  0  0  0
 19 20  1  0  0  0
 21 18  1  0  0  0
 22  2  1  0  0  0
 23  8  1  0  0  0
 23 25  1  0  0  0
 26 27  1  0  0  0
  1 33  2  0  0  0
  2 28  2  0  0  0
  6 31  2  0  0  0
  8 32  2  0  0  0
  9 10  2  0  0  0
 11 12  2  0  0  0
 13 14  2  0  0  0
 18 26  2  0  0  0
 19 27  2  0  0  0
 20 21  2  0  0  0
 24 25  2  0  0  0
M  END
> <rmsd>
0.579770029

$$$$
SJSOHODDCZBECY-UHFFFAOYSA-N


 33 36  0  0  0  0  0  0  0  0999 V2000
    2.2651   25.3484   64.8137 C   0  0  0  0  0
   -0.0048   26.3624   64.3086 C   0  0  0  0  0
   -1.2959   25.8287   63.6698 C   0  0  0  0  0
   -1.7019   26.6657   62.4579 C   0  0  0  0  0
   -1.1982   25.8612   60.3148 C   0  0  0  0  0
   -0.8520   26.5799   59.0348 C   0  0  0  0  0
   -0.7783   28.0262   59.4399 C   0  0  0  0  0
   -0.5206   28.0143   60.9379 C   0  0  0  0  0
    0.8535   28.5190   61.2597 C   0  0  0  0  0
    2.5489   29.1616   62.2830 C   0  0  0  0  0
    3.5005   29.5389   63.3608 C   0  0  0  0  0
   -1.0640   24.3623   63.2905 C   0  0  0  0  0
    0.3067   24.1066   63.7700 C   0  0  0  0  0
    2.9609   24.2462   65.5062 C   0  0  0  0  0
    2.8738   22.2161   66.7231 C   0  0  0  0  0
    4.9777   23.2184   66.3153 C   0  0  0  0  0
    7.0612   22.1851   67.1265 C   0  0  0  0  0
    8.5552   22.4542   67.1050 C   0  0  0  0  0
    4.3533   24.2623   65.6342 C   0  0  0  0  0
    0.8946   25.2290   64.4045 N   0  0  0  0  0
   -0.6718   26.6451   61.4257 N   0  0  0  0  0
    2.8448   29.2310   60.9720 N   0  0  0  0  0
    1.2980   28.7170   62.5156 N   0  0  0  0  0
    2.2517   23.2266   66.0619 N   0  0  0  0  0
    4.2265   22.2146   66.8456 N   0  0  0  0  0
    0.3951   26.1650   58.6049 F   0  0  0  0  0
    8.8240   23.6574   67.7307 F   0  0  0  0  0
    9.0040   22.5030   65.7982 F   0  0  0  0  0
    9.2097   21.4376   67.7733 F   0  0  0  0  0
    1.7687   28.8252   60.3706 O   0  0  0  0  0
    0.9148   23.0219   63.5723 O   0  0  0  0  0
    2.8755   26.4331   64.6099 O   0  0  0  0  0
    6.3665   23.2202   66.4438 O   0  0  0  0  0
  1 20  1  0  0  0
  1 14  1  0  0  0
  2 20  1  0  0  0
  2  3  1  0  0  0
  3  4  1  0  0  0
  3 12  1  0  0  0
  4 21  1  0  0  0
  5 21  1  0  0  0
  5  6  1  0  0  0
  6 26  1  0  0  0
  6  7  1  0  0  0
  7  8  1  0  0  0
  8  9  1  0  0  0
  8 21  1  0  0  0
  9 30  1  0  0  0
 10 23  1  0  0  0
 11 10  1  0  0  0
 12 13  1  0  0  0
 13 20  1  0  0  0
 15 24  1  0  0  0
 16 25  1  0  0  0
 16 33  1  0  0  0
 17 33  1  0  0  0
 17 18  1  0  0  0
 18 27  1  0  0  0
 18 28  1  0  0  0
 18 29  1  0  0  0
 19 14  1  0  0  0
 30 22  1  0  0  0
  1 32  2  0  0  0
  9 23  2  0  0  0
 10 22  2  0  0  0
 13 31  2  0  0  0
 14 24  2  0  0  0
 15 25  2  0  0  0
 16 19  2  0  0  0
M  END
> <rmsd>
0.772605777

$$$$
KAUQKOWQVAQKEF-UHFFFAOYSA-N


 32 35  0  0  0  0  0  0  0  0999 V2000
    2.7263   25.5332   64.2310 C   0  0  0  0  0
    0.7009   26.5190   63.0823 C   0  0  0  0  0
    0.8201   27.8185   63.8149 C   0  0  0  0  0
    0.3668   30.0771   63.4152 C   0  0  0  0  0
    1.2171   31.2788   63.0797 C   0  0  0  0  0
    2.6155   30.7292   62.9594 C   0  0  0  0  0
    2.4570   29.2225   62.8668 C   0  0  0  0  0
    3.1016   28.7043   61.6228 C   0  0  0  0  0
    3.5978   28.3222   59.6396 C   0  0  0  0  0
    3.6195   28.3252   58.1534 C   0  0  0  0  0
    1.5139   24.2428   62.4596 C   0  0  0  0  0
    2.4996   24.2936   61.3020 C   0  0  0  0  0
    3.0180   23.2616   59.4011 C   0  0  0  0  0
    2.4348   24.5839   58.9553 C   0  0  0  0  0
    2.0162   25.2451   60.2327 C   0  0  0  0  0
    3.1774   24.3563   65.0049 C   0  0  0  0  0
    2.8210   22.1372   65.7542 C   0  0  0  0  0
    4.7605   23.2891   66.4671 C   0  0  0  0  0
    6.4003   22.2247   67.9638 C   0  0  0  0  0
    4.3692   24.4091   65.7351 C   0  0  0  0  0
    1.6351   25.4396   63.2907 N   0  0  0  0  0
    1.0320   28.9046   62.8688 N   0  0  0  0  0
    4.4427   27.5947   60.3934 N   0  0  0  0  0
    2.7265   29.0431   60.3734 N   0  0  0  0  0
    2.4275   23.2212   65.0363 N   0  0  0  0  0
    3.9795   22.1742   66.4622 N   0  0  0  0  0
    0.8244   31.7839   61.8536 F   0  0  0  0  0
    4.1019   27.8592   61.6172 O   0  0  0  0  0
   -0.2596   26.3728   62.2784 O   0  0  0  0  0
    2.6250   23.0224   60.7266 O   0  0  0  0  0
    3.3219   26.6329   64.3924 O   0  0  0  0  0
    5.9500   23.3300   67.1954 O   0  0  0  0  0
  1 21  1  0  0  0
  1 16  1  0  0  0
  3  2  1  0  0  0
  3 22  1  0  0  0
  4 22  1  0  0  0
  4  5  1  0  0  0
  5 27  1  0  0  0
  5  6  1  0  0  0
  6  7  1  0  0  0
  7  8  1  0  0  0
  7 22  1  0  0  0
  8 28  1  0  0  0
  9 24  1  0  0  0
 10  9  1  0  0  0
 11 21  1  0  0  0
 11 12  1  0  0  0
 12 30  1  0  0  0
 13 30  1  0  0  0
 13 14  1  0  0  0
 14 15  1  0  0  0
 15 12  1  0  0  0
 17 25  1  0  0  0
 18 26  1  0  0  0
 18 32  1  0  0  0
 19 32  1  0  0  0
 20 16  1  0  0  0
 21  2  1  0  0  0
 28 23  1  0  0  0
  1 31  2  0  0  0
  2 29  2  0  0  0
  8 24  2  0  0  0
  9 23  2  0  0  0
 16 25  2  0  0  0
 17 26  2  0  0  0
 18 20  2  0  0  0
M  END
> <rmsd>
0.458495915

$$$$
MDWQKBORCMJXGA-UHFFFAOYSA-N


 33 37  0  0  0  0  0  0  0  0999 V2000
    5.6285   23.6631   66.1242 C   0  0  0  0  0
    5.1388   25.5879   64.5288 C   0  0  0  0  0
    4.8358   27.0315   64.5965 C   0  0  0  0  0
    3.1945   28.6963   64.1675 C   0  0  0  0  0
    2.5810   28.9316   62.8312 C   0  0  0  0  0
    1.2692   29.4601   61.3035 C   0  0  0  0  0
    0.0982   30.0019   60.5508 C   0  0  0  0  0
   -0.4573   28.9356   59.6246 C   0  0  0  0  0
   -1.1562   29.2368   60.9305 C   0  0  0  0  0
    2.5735   26.8584   65.4977 C   0  0  0  0  0
    5.3123   27.4247   66.0098 C   0  0  0  0  0
    5.6809   26.1261   66.7449 C   0  0  0  0  0
    5.0327   22.6026   65.2520 C   0  0  0  0  0
    2.9721   21.8518   66.3687 C   0  0  0  0  0
    1.5861   21.8979   66.5021 C   0  0  0  0  0
    0.8441   22.7007   65.6409 C   0  0  0  0  0
    1.5034   23.4410   64.6553 C   0  0  0  0  0
    0.7609   24.3197   63.7266 C   0  0  0  0  0
   -0.6228   24.5052   63.8561 C   0  0  0  0  0
   -1.2926   25.3522   62.9697 C   0  0  0  0  0
    0.7361   25.8316   61.8375 C   0  0  0  0  0
    1.4412   24.9940   62.7035 C   0  0  0  0  0
    5.5483   25.0532   65.7747 N   0  0  0  0  0
    3.4003   27.2704   64.3649 N   0  0  0  0  0
    2.3779   28.9738   60.7108 N   0  0  0  0  0
    1.3574   29.4623   62.6510 N   0  0  0  0  0
    3.5806   22.5916   65.3939 N   0  0  0  0  0
   -0.6053   25.9926   61.9869 N   0  0  0  0  0
    2.8584   23.3550   64.5697 N   0  0  0  0  0
    5.0788   24.9123   63.4669 O   0  0  0  0  0
    3.1640   28.6519   61.6924 O   0  0  0  0  0
    6.1594   23.3224   67.2139 O   0  0  0  0  0
    3.6472   21.1294   67.1511 O   0  0  0  0  0
  1 23  1  0  0  0
  3  2  1  0  0  0
  3 24  1  0  0  0
  3 11  1  0  0  0
  4 24  1  0  0  0
  4  5  1  0  0  0
  5 31  1  0  0  0
  6 26  1  0  0  0
  7  6  1  0  0  0
  7  8  1  0  0  0
  8  9  1  0  0  0
  9  7  1  0  0  0
 10 24  1  0  0  0
 11 12  1  0  0  0
 12 23  1  0  0  0
 13  1  1  0  0  0
 13 27  1  0  0  0
 14 15  1  0  0  0
 16 17  1  0  0  0
 17 18  1  0  0  0
 19 20  1  0  0  0
 21 28  1  0  0  0
 22 18  1  0  0  0
 23  2  1  0  0  0
 27 14  1  0  0  0
 27 29  1  0  0  0
 31 25  1  0  0  0
  1 32  2  0  0  0
  2 30  2  0  0  0
  5 26  2  0  0  0
  6 25  2  0  0  0
 14 33  2  0  0  0
 15 16  2  0  0  0
 17 29  2  0  0  0
 18 19  2  0  0  0
 20 28  2  0  0  0
 21 22  2  0  0  0
M  END
> <rmsd>
0.633789599

$$$$
ATJWXWDMUMVODN-UHFFFAOYSA-N


 32 35  0  0  0  0  0  0  0  0999 V2000
    5.5508   24.7150   63.4345 C   0  0  0  0  0
    3.6831   26.3229   63.9303 C   0  0  0  0  0
    2.3493   26.8761   63.5335 C   0  0  0  0  0
    0.5740   27.8992   59.9559 C   0  0  0  0  0
    1.4419   28.8059   59.3213 C   0  0  0  0  0
    3.3208   30.4102   59.5010 C   0  0  0  0  0
    1.3267   29.0143   57.9367 C   0  0  0  0  0
    0.3633   28.3336   57.1875 C   0  0  0  0  0
   -0.6649   27.9229   54.9756 C   0  0  0  0  0
   -0.4971   27.4319   57.8305 C   0  0  0  0  0
   -0.3905   27.2175   59.2057 C   0  0  0  0  0
    2.5829   25.8642   61.3977 C   0  0  0  0  0
    4.0481   25.4865   61.5986 C   0  0  0  0  0
    5.6104   24.0153   64.7389 C   0  0  0  0  0
    4.4858   23.3920   65.3174 C   0  0  0  0  0
    4.6199   22.7503   66.5667 C   0  0  0  0  0
    2.3341   22.1411   66.5020 C   0  0  0  0  0
    2.2001   22.7619   65.2584 C   0  0  0  0  0
    6.9237   23.3013   66.6470 C   0  0  0  0  0
    6.8364   23.9499   65.4132 C   0  0  0  0  0
    4.3849   25.4497   63.0234 N   0  0  0  0  0
    2.3059   27.1204   62.0917 N   0  0  0  0  0
    3.5404   22.1463   67.1284 N   0  0  0  0  0
    3.2764   23.3690   64.6926 N   0  0  0  0  0
    5.8233   22.7232   67.1964 N   0  0  0  0  0
    4.1533   26.5930   65.0675 O   0  0  0  0  0
    0.3351   28.8651   62.4232 O   0  0  0  0  0
   -0.2791   26.5195   62.0830 O   0  0  0  0  0
    2.4062   29.4860   60.0744 O   0  0  0  0  0
    0.2832   28.5708   55.8126 O   0  0  0  0  0
    6.5503   24.6622   62.6665 O   0  0  0  0  0
    0.6886   27.6024   61.6881 S   0  0  0  0  0
  1 21  1  0  0  0
  1 14  1  0  0  0
  3  2  1  0  0  0
  3 22  1  0  0  0
  5 29  1  0  0  0
  5  7  1  0  0  0
  6 29  1  0  0  0
  8 30  1  0  0  0
  8 10  1  0  0  0
  9 30  1  0  0  0
 11  4  1  0  0  0
 12 22  1  0  0  0
 12 13  1  0  0  0
 13 21  1  0  0  0
 14 15  1  0  0  0
 15 16  1  0  0  0
 16 25  1  0  0  0
 17 23  1  0  0  0
 18 24  1  0  0  0
 19 20  1  0  0  0
 21  2  1  0  0  0
 32 22  1  0  0  0
 32  4  1  0  0  0
  1 31  2  0  0  0
  2 26  2  0  0  0
  4  5  2  0  0  0
  7  8  2  0  0  0
 10 11  2  0  0  0
 15 24  2  0  0  0
 16 23  2  0  0  0
 17 18  2  0  0  0
 19 25  2  0  0  0
 20 14  2  0  0  0
 32 27  2  0  0  0
 32 28  2  0  0  0
M  END
> <rmsd>
0.701967895

$$$$
DJFGEWLABHAHTH-UHFFFAOYSA-N


 29 32  0  0  0  0  0  0  0  0999 V2000
    2.9145   25.0551   64.4748 C   0  0  0  0  0
    0.7592   26.0410   63.6995 C   0  0  0  0  0
   -0.5418   25.9501   62.9635 C   0  0  0  0  0
   -1.4006   25.8180   60.7946 C   0  0  0  0  0
   -1.9568   26.8420   59.8359 C   0  0  0  0  0
   -1.7920   28.1530   60.5578 C   0  0  0  0  0
   -0.7674   27.8940   61.6472 C   0  0  0  0  0
    0.4425   28.7401   61.4276 C   0  0  0  0  0
    1.9730   30.1260   61.6710 C   0  0  0  0  0
    2.8552   31.1871   62.2237 C   0  0  0  0  0
    1.3666   23.6932   63.0114 C   0  0  0  0  0
    1.4660   23.8742   61.5043 C   0  0  0  0  0
    2.5626   23.1474   62.2410 C   0  0  0  0  0
    3.3608   23.9534   65.3538 C   0  0  0  0  0
    2.9249   21.8891   66.4309 C   0  0  0  0  0
    5.0122   22.9460   66.7820 C   0  0  0  0  0
    6.7248   21.9374   68.2353 C   0  0  0  0  0
    4.6269   23.9936   65.9467 C   0  0  0  0  0
    1.7061   24.9506   63.6920 N   0  0  0  0  0
   -0.3974   26.4805   61.6153 N   0  0  0  0  0
    2.1816   29.5305   60.4819 N   0  0  0  0  0
    0.8812   29.6583   62.3089 N   0  0  0  0  0
    2.5361   22.9030   65.6148 N   0  0  0  0  0
    4.1543   21.9133   67.0075 N   0  0  0  0  0
   -1.1837   26.8564   58.6898 F   0  0  0  0  0
    1.2109   28.6768   60.3674 O   0  0  0  0  0
    1.0124   27.1001   64.3347 O   0  0  0  0  0
    3.6012   26.1119   64.4133 O   0  0  0  0  0
    6.2745   22.9735   67.3755 O   0  0  0  0  0
  1 19  1  0  0  0
  1 14  1  0  0  0
  3  2  1  0  0  0
  3 20  1  0  0  0
  4 20  1  0  0  0
  4  5  1  0  0  0
  5 25  1  0  0  0
  5  6  1  0  0  0
  6  7  1  0  0  0
  7  8  1  0  0  0
  7 20  1  0  0  0
  8 26  1  0  0  0
  9 22  1  0  0  0
 10  9  1  0  0  0
 11 19  1  0  0  0
 11 12  1  0  0  0
 12 13  1  0  0  0
 13 11  1  0  0  0
 15 23  1  0  0  0
 16 24  1  0  0  0
 16 29  1  0  0  0
 17 29  1  0  0  0
 18 14  1  0  0  0
 19  2  1  0  0  0
 26 21  1  0  0  0
  1 28  2  0  0  0
  2 27  2  0  0  0
  8 22  2  0  0  0
  9 21  2  0  0  0
 14 23  2  0  0  0
 15 24  2  0  0  0
 16 18  2  0  0  0
M  END
> <rmsd>
0.611079454

$$$$
LALRDMFVERXSOO-UHFFFAOYSA-N


 33 36  0  0  0  0  0  0  0  0999 V2000
    4.6010   22.3525   66.6012 C   0  0  0  0  0
    4.9073   24.8147   65.8666 C   0  0  0  0  0
    3.9623   25.7144   65.1360 C   0  0  0  0  0
    1.6021   25.5237   64.0255 C   0  0  0  0  0
    2.1168   25.8383   62.6386 C   0  0  0  0  0
    1.0657   27.6332   60.0735 C   0  0  0  0  0
    2.1742   28.3777   59.6301 C   0  0  0  0  0
    4.0033   29.9612   60.1614 C   0  0  0  0  0
    4.5193   30.7114   61.3705 C   0  0  0  0  0
    2.5661   28.2927   58.2834 C   0  0  0  0  0
    1.8645   27.4781   57.3915 C   0  0  0  0  0
    0.7661   26.7407   57.8368 C   0  0  0  0  0
    0.3696   26.8179   59.1737 C   0  0  0  0  0
    1.3530   27.0129   64.1241 C   0  0  0  0  0
    2.8470   23.8003   65.4401 C   0  0  0  0  0
    5.9173   22.2514   67.2672 C   0  0  0  0  0
    6.4338   20.9234   67.7160 C   0  0  0  0  0
    7.2622   20.3011   66.6451 C   0  0  0  0  0
    9.0619   19.5993   65.0440 C   0  0  0  0  0
    7.7965   19.1036   64.7345 C   0  0  0  0  0
    6.7857   19.4981   65.6231 C   0  0  0  0  0
    4.1271   23.5887   66.0348 N   0  0  0  0  0
    2.6941   25.1015   64.9048 N   0  0  0  0  0
    1.8741   27.2690   62.7860 N   0  0  0  0  0
    4.2574   26.8769   64.7524 O   0  0  0  0  0
   -0.6157   26.7699   61.9636 O   0  0  0  0  0
    0.1027   29.1073   62.0693 O   0  0  0  0  0
    2.8696   29.1896   60.5332 O   0  0  0  0  0
    1.9468   22.9201   65.3824 O   0  0  0  0  0
    3.8776   21.3220   66.5314 O   0  0  0  0  0
    6.6288   23.2732   67.4540 O   0  0  0  0  0
    0.5448   27.7061   61.7536 S   0  0  0  0  0
    8.9069   20.5340   66.4347 S   0  0  0  0  0
  1 22  1  0  0  0
  1 16  1  0  0  0
  2 22  1  0  0  0
  2  3  1  0  0  0
  3 23  1  0  0  0
  4 23  1  0  0  0
  4  5  1  0  0  0
  5 24  1  0  0  0
  7 28  1  0  0  0
  7 10  1  0  0  0
  8 28  1  0  0  0
  8  9  1  0  0  0
 11 12  1  0  0  0
 13  6  1  0  0  0
 14 24  1  0  0  0
 14  4  1  0  0  0
 15 22  1  0  0  0
 17 16  1  0  0  0
 17 18  1  0  0  0
 18 33  1  0  0  0
 19 33  1  0  0  0
 20 21  1  0  0  0
 23 15  1  0  0  0
 32 24  1  0  0  0
 32  6  1  0  0  0
  1 30  2  0  0  0
  3 25  2  0  0  0
  6  7  2  0  0  0
 10 11  2  0  0  0
 12 13  2  0  0  0
 15 29  2  0  0  0
 16 31  2  0  0  0
 19 20  2  0  0  0
 21 18  2  0  0  0
 32 26  2  0  0  0
 32 27  2  0  0  0
M  END
> <rmsd>
0.613158584

$$$$
QXUQJAVLLOCSAJ-UHFFFAOYSA-N


 33 37  0  0  0  0  0  0  0  0999 V2000
    2.9081   25.6286   64.1683 C   0  0  0  0  0
    0.8529   26.5599   63.0644 C   0  0  0  0  0
    0.9252   27.8423   63.8325 C   0  0  0  0  0
    2.4636   29.2968   62.7897 C   0  0  0  0  0
    3.0339   28.6955   61.5466 C   0  0  0  0  0
    3.3604   28.1459   59.5651 C   0  0  0  0  0
    3.2389   28.0083   58.0803 C   0  0  0  0  0
    4.6019   28.0756   57.4181 C   0  0  0  0  0
    4.4834   26.6171   57.0218 C   0  0  0  0  0
    3.1238   26.5478   57.6886 C   0  0  0  0  0
    2.5944   30.8064   62.7573 C   0  0  0  0  0
    1.2555   31.3323   63.2085 C   0  0  0  0  0
    0.4368   30.1131   63.5669 C   0  0  0  0  0
    1.8778   24.4372   62.2032 C   0  0  0  0  0
    2.0409   24.9130   60.7676 C   0  0  0  0  0
    3.2132   24.2926   61.4878 C   0  0  0  0  0
    3.2830   24.4179   64.9296 C   0  0  0  0  0
    2.8674   22.1629   65.5254 C   0  0  0  0  0
    4.7060   23.2857   66.5031 C   0  0  0  0  0
    6.1833   22.1526   68.1143 C   0  0  0  0  0
    4.3869   24.4394   65.7883 C   0  0  0  0  0
    1.9116   25.5796   63.1243 N   0  0  0  0  0
    1.0473   28.9656   62.9139 N   0  0  0  0  0
    4.0876   27.8579   61.5491 N   0  0  0  0  0
    2.5370   28.9072   60.3094 N   0  0  0  0  0
    2.5448   23.2797   64.8226 N   0  0  0  0  0
    3.9409   22.1693   66.3574 N   0  0  0  0  0
    4.2595   27.5395   60.3031 O   0  0  0  0  0
   -0.1615   26.3500   62.3454 O   0  0  0  0  0
    3.4777   26.7216   64.4359 O   0  0  0  0  0
    5.8074   23.2947   67.3594 O   0  0  0  0  0
    1.4041   32.1526   64.3100 F   0  0  0  0  0
    0.6494   32.0239   62.1769 F   0  0  0  0  0
  1 22  1  0  0  0
  1 17  1  0  0  0
  3  2  1  0  0  0
  3 23  1  0  0  0
  4 23  1  0  0  0
  4  5  1  0  0  0
  4 11  1  0  0  0
  5 25  1  0  0  0
  6 28  1  0  0  0
  7  6  1  0  0  0
  7  8  1  0  0  0
  8  9  1  0  0  0
  9 10  1  0  0  0
 10  7  1  0  0  0
 11 12  1  0  0  0
 12 32  1  0  0  0
 12 33  1  0  0  0
 12 13  1  0  0  0
 13 23  1  0  0  0
 14 22  1  0  0  0
 14 15  1  0  0  0
 15 16  1  0  0  0
 16 14  1  0  0  0
 18 26  1  0  0  0
 19 27  1  0  0  0
 19 31  1  0  0  0
 20 31  1  0  0  0
 21 17  1  0  0  0
 22  2  1  0  0  0
 24 28  1  0  0  0
  1 30  2  0  0  0
  2 29  2  0  0  0
  5 24  2  0  0  0
  6 25  2  0  0  0
 17 26  2  0  0  0
 18 27  2  0  0  0
 19 21  2  0  0  0
M  END
> <rmsd>
0.496647626

$$$$
QXUQJAVLLOCSAJ-UHFFFAOYSA-N


 33 37  0  0  0  0  0  0  0  0999 V2000
    2.9965   25.4604   64.0138 C   0  0  0  0  0
    0.9084   26.4107   63.0050 C   0  0  0  0  0
    1.0025   27.6450   63.8476 C   0  0  0  0  0
    2.5000   29.1446   62.8194 C   0  0  0  0  0
    2.9370   28.8095   61.4317 C   0  0  0  0  0
    3.9387   27.9668   59.8105 C   0  0  0  0  0
    4.8822   27.1886   58.9454 C   0  0  0  0  0
    5.1046   25.7907   59.4898 C   0  0  0  0  0
    6.5439   26.1423   59.8109 C   0  0  0  0  0
    6.3205   27.5417   59.2720 C   0  0  0  0  0
    2.6947   30.6168   63.1000 C   0  0  0  0  0
    1.5618   30.9652   64.0210 C   0  0  0  0  0
    0.4919   29.9298   63.7483 C   0  0  0  0  0
    1.7717   24.1890   62.2174 C   0  0  0  0  0
    3.0680   23.8703   61.4867 C   0  0  0  0  0
    1.9388   24.5493   60.7492 C   0  0  0  0  0
    3.3052   24.3209   64.9027 C   0  0  0  0  0
    2.7525   22.1801   65.7528 C   0  0  0  0  0
    4.6738   23.2815   66.5851 C   0  0  0  0  0
    6.1000   22.2392   68.3008 C   0  0  0  0  0
    4.4210   24.3651   65.7448 C   0  0  0  0  0
    1.9262   25.3879   63.0499 N   0  0  0  0  0
    1.0858   28.8258   62.9995 N   0  0  0  0  0
    2.3746   29.3241   60.3205 N   0  0  0  0  0
    3.9330   27.9423   61.1592 N   0  0  0  0  0
    2.4929   23.2299   64.9306 N   0  0  0  0  0
    3.8354   22.2093   66.5724 N   0  0  0  0  0
    3.0251   28.7783   59.3385 O   0  0  0  0  0
   -0.0983   26.2688   62.2591 O   0  0  0  0  0
    3.6856   26.5128   64.0961 O   0  0  0  0  0
    5.7850   23.3143   67.4283 O   0  0  0  0  0
    1.0892   32.2354   63.7509 F   0  0  0  0  0
    1.9761   30.8795   65.3372 F   0  0  0  0  0
  1 22  1  0  0  0
  1 17  1  0  0  0
  3  2  1  0  0  0
  3 23  1  0  0  0
  4 23  1  0  0  0
  4  5  1  0  0  0
  4 11  1  0  0  0
  5 25  1  0  0  0
  6 28  1  0  0  0
  7  6  1  0  0  0
  7  8  1  0  0  0
  8  9  1  0  0  0
  9 10  1  0  0  0
 10  7  1  0  0  0
 11 12  1  0  0  0
 12 32  1  0  0  0
 12 33  1  0  0  0
 12 13  1  0  0  0
 13 23  1  0  0  0
 14 22  1  0  0  0
 14 15  1  0  0  0
 15 16  1  0  0  0
 16 14  1  0  0  0
 18 26  1  0  0  0
 19 27  1  0  0  0
 19 31  1  0  0  0
 20 31  1  0  0  0
 21 17  1  0  0  0
 22  2  1  0  0  0
 24 28  1  0  0  0
  1 30  2  0  0  0
  2 29  2  0  0  0
  5 24  2  0  0  0
  6 25  2  0  0  0
 17 26  2  0  0  0
 18 27  2  0  0  0
 19 21  2  0  0  0
M  END
> <rmsd>
0.600054443

$$$$
BQQAVZHZFXNTAT-UHFFFAOYSA-N


 36 39  0  0  0  0  0  0  0  0999 V2000
    1.3365   28.9096   62.4085 C   0  0  0  0  0
    1.6504   26.4653   61.9185 C   0  0  0  0  0
    2.5341   25.2633   61.7887 C   0  0  0  0  0
    2.1953   23.8844   63.6650 C   0  0  0  0  0
    2.7520   23.4289   64.9761 C   0  0  0  0  0
    4.7751   22.6160   66.2507 C   0  0  0  0  0
    6.6957   22.0886   67.5375 C   0  0  0  0  0
    5.9222   21.3024   68.3867 C   0  0  0  0  0
    4.5588   21.1860   68.1287 C   0  0  0  0  0
    5.0612   24.0193   64.1979 C   0  0  0  0  0
    4.3730   24.2766   62.8563 C   0  0  0  0  0
    3.6438   27.9163   62.3717 C   0  0  0  0  0
    4.0085   28.2827   63.8040 C   0  0  0  0  0
    4.4871   27.2872   65.7439 C   0  0  0  0  0
    5.8379   27.6481   65.1799 C   0  0  0  0  0
    5.5096   28.4008   63.9277 C   0  0  0  0  0
    1.7743   30.2774   62.0505 C   0  0  0  0  0
    2.5317   30.5397   60.8867 C   0  0  0  0  0
    3.6937   29.5456   58.9014 C   0  0  0  0  0
    3.8259   28.3527   58.0251 C   0  0  0  0  0
    2.9347   31.8592   60.6176 C   0  0  0  0  0
    2.5820   32.9037   61.4735 C   0  0  0  0  0
    1.8130   32.6444   62.6074 C   0  0  0  0  0
    1.4089   31.3390   62.8915 C   0  0  0  0  0
    2.1963   27.7671   62.2163 N   0  0  0  0  0
    3.0736   24.8980   63.0881 N   0  0  0  0  0
    4.1820   23.2988   65.1283 N   0  0  0  0  0
    6.1129   22.7258   66.4892 N   0  0  0  0  0
    4.0136   21.8393   67.0708 N   0  0  0  0  0
    1.9663   23.1907   65.9311 O   0  0  0  0  0
    0.4104   26.3137   61.7554 O   0  0  0  0  0
    3.5552   27.2997   64.6978 O   0  0  0  0  0
    0.2039   28.7540   62.9412 O   0  0  0  0  0
    2.8321   29.4857   60.0060 O   0  0  0  0  0
    4.3732   30.5746   58.6457 O   0  0  0  0  0
    6.4827   20.6638   69.4402 F   0  0  0  0  0
  1 25  1  0  0  0
  1 17  1  0  0  0
  3  2  1  0  0  0
  3 26  1  0  0  0
  4 26  1  0  0  0
  4  5  1  0  0  0
  5 27  1  0  0  0
  6 29  1  0  0  0
  7 28  1  0  0  0
  8 36  1  0  0  0
  8  9  1  0  0  0
 10 27  1  0  0  0
 10 11  1  0  0  0
 11 26  1  0  0  0
 12 25  1  0  0  0
 12 13  1  0  0  0
 13 32  1  0  0  0
 14 32  1  0  0  0
 14 15  1  0  0  0
 15 16  1  0  0  0
 16 13  1  0  0  0
 18 34  1  0  0  0
 18 21  1  0  0  0
 19 34  1  0  0  0
 20 19  1  0  0  0
 22 23  1  0  0  0
 24 17  1  0  0  0
 25  2  1  0  0  0
 27  6  1  0  0  0
  1 33  2  0  0  0
  2 31  2  0  0  0
  5 30  2  0  0  0
  6 28  2  0  0  0
  7  8  2  0  0  0
  9 29  2  0  0  0
 17 18  2  0  0  0
 19 35  2  0  0  0
 21 22  2  0  0  0
 23 24  2  0  0  0
M  END
> <rmsd>
0.770416558

$$$$
QTSPPOOMCBQWKL-UHFFFAOYSA-N


 31 33  0  0  0  0  0  0  0  0999 V2000
    4.4560   22.1120   65.5267 C   0  0  0  0  0
    2.9978   24.1443   65.5762 C   0  0  0  0  0
    2.7308   25.5556   66.0202 C   0  0  0  0  0
    2.2388   27.7765   65.2909 C   0  0  0  0  0
    0.7834   27.8211   64.8471 C   0  0  0  0  0
    0.6857   27.9155   63.3616 C   0  0  0  0  0
    0.8317   28.5747   61.3948 C   0  0  0  0  0
    1.1520   29.3643   60.1755 C   0  0  0  0  0
    2.5304   29.6806   58.4830 C   0  0  0  0  0
    4.2401   26.7761   64.5608 C   0  0  0  0  0
    3.4985   25.9393   67.3023 C   0  0  0  0  0
    4.9648   25.5316   67.2330 C   0  0  0  0  0
    5.0809   24.0721   66.9368 C   0  0  0  0  0
    4.5377   21.7907   64.0854 C   0  0  0  0  0
    4.6136   22.7563   63.1763 C   0  0  0  0  0
    4.7125   20.3755   63.6390 C   0  0  0  0  0
    6.3445   19.4672   62.2237 C   0  0  0  0  0
    7.7636   18.8976   62.1442 C   0  0  0  0  0
    7.8207   18.4922   64.3727 C   0  0  0  0  0
    6.4043   19.0400   64.5685 C   0  0  0  0  0
    4.1988   23.4540   65.9809 N   0  0  0  0  0
    2.8486   26.5104   64.9040 N   0  0  0  0  0
    0.1123   26.9685   62.5952 N   0  0  0  0  0
    1.1587   28.9560   62.6438 N   0  0  0  0  0
    6.1275   20.0519   63.5475 N   0  0  0  0  0
    2.1422   23.5677   64.8517 O   0  0  0  0  0
    0.2260   27.4136   61.3812 O   0  0  0  0  0
    2.3852   28.9581   59.6664 O   0  0  0  0  0
    5.9752   23.4007   67.5175 O   0  0  0  0  0
    4.6266   21.1948   66.3753 O   0  0  0  0  0
    7.9242   17.8834   63.1077 O   0  0  0  0  0
  1 21  1  0  0  0
  1 14  1  0  0  0
  3  2  1  0  0  0
  3 22  1  0  0  0
  3 11  1  0  0  0
  4 22  1  0  0  0
  4  5  1  0  0  0
  5  6  1  0  0  0
  6 24  1  0  0  0
  7 27  1  0  0  0
  8  7  1  0  0  0
  8 28  1  0  0  0
  9 28  1  0  0  0
 10 22  1  0  0  0
 11 12  1  0  0  0
 12 13  1  0  0  0
 13 21  1  0  0  0
 16 14  1  0  0  0
 16 25  1  0  0  0
 17 25  1  0  0  0
 17 18  1  0  0  0
 18 31  1  0  0  0
 19 31  1  0  0  0
 19 20  1  0  0  0
 20 25  1  0  0  0
 21  2  1  0  0  0
 23 27  1  0  0  0
  1 30  2  0  0  0
  2 26  2  0  0  0
  6 23  2  0  0  0
  7 24  2  0  0  0
 13 29  2  0  0  0
 14 15  2  0  0  0
M  END
> <rmsd>
0.730392575

$$$$
YSJOIQGIFPXQNB-UHFFFAOYSA-N


 32 34  0  0  0  0  0  0  0  0999 V2000
    2.4156   29.1077   60.8564 C   0  0  0  0  0
    0.1647   28.4182   61.7630 C   0  0  0  0  0
   -0.6970   27.2436   62.0978 C   0  0  0  0  0
    0.2267   25.3973   61.2406 C   0  0  0  0  0
    0.3778   23.9245   61.5908 C   0  0  0  0  0
    1.4878   23.2143   63.6756 C   0  0  0  0  0
    2.7239   23.0553   64.4526 C   0  0  0  0  0
    5.0128   22.7544   65.9596 C   0  0  0  0  0
    6.1199   22.1186   68.0642 C   0  0  0  0  0
    5.1155   23.2363   64.6562 C   0  0  0  0  0
    3.9598   23.3889   63.8946 C   0  0  0  0  0
    1.4206   25.8642   60.4060 C   0  0  0  0  0
    1.1545   27.2342   59.7915 C   0  0  0  0  0
    2.7624   29.9014   62.0721 C   0  0  0  0  0
    3.2966   29.4692   64.4517 C   0  0  0  0  0
    3.4506   28.5319   65.4854 C   0  0  0  0  0
    3.4201   26.1610   66.1950 C   0  0  0  0  0
    3.7476   28.9762   66.7850 C   0  0  0  0  0
    3.8890   30.3397   67.0522 C   0  0  0  0  0
    3.7343   31.2713   66.0244 C   0  0  0  0  0
    3.4392   30.8389   64.7296 C   0  0  0  0  0
    1.2340   28.2850   60.8059 N   0  0  0  0  0
    2.6776   22.5876   65.7296 N   0  0  0  0  0
    3.7853   22.4417   66.4597 N   0  0  0  0  0
   -0.0671   29.5242   62.3194 O   0  0  0  0  0
    0.1169   26.1509   62.4183 O   0  0  0  0  0
    1.5468   23.7182   62.3745 O   0  0  0  0  0
    0.3787   22.9029   64.1897 O   0  0  0  0  0
    6.1657   22.6010   66.7298 O   0  0  0  0  0
    3.2088   29.1331   59.8778 O   0  0  0  0  0
    3.0003   29.0191   63.1615 O   0  0  0  0  0
    3.3010   27.1699   65.2015 O   0  0  0  0  0
  1 22  1  0  0  0
  3  2  1  0  0  0
  3 26  1  0  0  0
  4 26  1  0  0  0
  4  5  1  0  0  0
  4 12  1  0  0  0
  5 27  1  0  0  0
  6 27  1  0  0  0
  6  7  1  0  0  0
  8 29  1  0  0  0
  8 10  1  0  0  0
  9 29  1  0  0  0
 11  7  1  0  0  0
 12 13  1  0  0  0
 13 22  1  0  0  0
 14  1  1  0  0  0
 14 31  1  0  0  0
 15 31  1  0  0  0
 16 32  1  0  0  0
 16 18  1  0  0  0
 17 32  1  0  0  0
 19 20  1  0  0  0
 21 15  1  0  0  0
 22  2  1  0  0  0
 23 24  1  0  0  0
  1 30  2  0  0  0
  2 25  2  0  0  0
  6 28  2  0  0  0
  7 23  2  0  0  0
  8 24  2  0  0  0
 10 11  2  0  0  0
 15 16  2  0  0  0
 18 19  2  0  0  0
 20 21  2  0  0  0
M  END
> <rmsd>
0.794111788

$$$$
YSEFDRGJBHQBDX-UHFFFAOYSA-N


 35 38  0  0  0  0  0  0  0  0999 V2000
    2.5722   25.4278   64.2026 C   0  0  0  0  0
    0.4749   26.3918   63.1711 C   0  0  0  0  0
    0.6834   27.7290   63.8093 C   0  0  0  0  0
    0.0757   29.9254   63.2652 C   0  0  0  0  0
    1.0616   31.0398   63.5464 C   0  0  0  0  0
    2.3005   30.6434   62.7958 C   0  0  0  0  0
    2.2147   29.1348   62.7075 C   0  0  0  0  0
    2.8302   28.6023   61.4482 C   0  0  0  0  0
    3.7539   28.4145   59.5880 C   0  0  0  0  0
    4.3791   28.7074   58.2647 C   0  0  0  0  0
    3.3602   29.3302   57.3309 C   0  0  0  0  0
    5.5640   29.6399   58.4291 C   0  0  0  0  0
    1.1190   24.0235   62.7215 C   0  0  0  0  0
    1.8383   23.9775   61.4153 C   0  0  0  0  0
    1.1853   24.3732   60.2431 C   0  0  0  0  0
    1.8624   24.3416   59.0200 C   0  0  0  0  0
    3.1948   23.9205   58.9688 C   0  0  0  0  0
    3.8509   23.5317   60.1408 C   0  0  0  0  0
    3.1733   23.5606   61.3634 C   0  0  0  0  0
    3.0774   24.3105   65.0298 C   0  0  0  0  0
    2.7513   22.1825   66.0191 C   0  0  0  0  0
    4.7920   23.3193   66.3938 C   0  0  0  0  0
    6.5690   22.3288   67.7814 C   0  0  0  0  0
    4.3479   24.3834   65.6100 C   0  0  0  0  0
    1.3775   25.2903   63.4041 N   0  0  0  0  0
    0.8067   28.7559   62.7841 N   0  0  0  0  0
    3.5298   27.1658   60.0353 N   0  0  0  0  0
    3.3231   29.3614   60.4487 N   0  0  0  0  0
    2.3056   23.2122   65.2538 N   0  0  0  0  0
    3.9860   22.2386   66.5821 N   0  0  0  0  0
    1.3385   31.0674   64.9006 F   0  0  0  0  0
    2.9585   27.3249   61.1894 O   0  0  0  0  0
   -0.5395   26.2297   62.4392 O   0  0  0  0  0
    3.2145   26.5131   64.1871 O   0  0  0  0  0
    6.0594   23.3797   66.9737 O   0  0  0  0  0
  1 25  1  0  0  0
  1 20  1  0  0  0
  3  2  1  0  0  0
  3 26  1  0  0  0
  4 26  1  0  0  0
  4  5  1  0  0  0
  5 31  1  0  0  0
  5  6  1  0  0  0
  6  7  1  0  0  0
  7  8  1  0  0  0
  7 26  1  0  0  0
  8 32  1  0  0  0
  9 28  1  0  0  0
 10  9  1  0  0  0
 10 11  1  0  0  0
 10 12  1  0  0  0
 13 25  1  0  0  0
 13 14  1  0  0  0
 15 16  1  0  0  0
 17 18  1  0  0  0
 19 14  1  0  0  0
 21 29  1  0  0  0
 22 30  1  0  0  0
 22 35  1  0  0  0
 23 35  1  0  0  0
 24 20  1  0  0  0
 25  2  1  0  0  0
 32 27  1  0  0  0
  1 34  2  0  0  0
  2 33  2  0  0  0
  8 28  2  0  0  0
  9 27  2  0  0  0
 14 15  2  0  0  0
 16 17  2  0  0  0
 18 19  2  0  0  0
 20 29  2  0  0  0
 21 30  2  0  0  0
 22 24  2  0  0  0
M  END
> <rmsd>
0.616175711

$$$$
WHQVUZLUZZLHOE-UHFFFAOYSA-N


 33 36  0  0  0  0  0  0  0  0999 V2000
    3.0729   25.9119   64.7000 C   0  0  0  0  0
    0.7324   26.1237   63.8285 C   0  0  0  0  0
   -0.2860   25.8486   62.7637 C   0  0  0  0  0
   -0.6293   25.6856   60.4576 C   0  0  0  0  0
   -0.8841   26.6900   59.3590 C   0  0  0  0  0
   -0.7255   28.0414   60.0054 C   0  0  0  0  0
   -0.1493   27.7660   61.3817 C   0  0  0  0  0
    1.0753   28.5912   61.6096 C   0  0  0  0  0
    2.4363   29.9430   62.4143 C   0  0  0  0  0
    3.0886   30.9768   63.2636 C   0  0  0  0  0
    2.3004   24.4219   62.8480 C   0  0  0  0  0
    3.0466   25.0047   61.6619 C   0  0  0  0  0
    3.6775   24.7082   59.5721 C   0  0  0  0  0
    4.0292   24.9519   65.2953 C   0  0  0  0  0
    3.6303   23.6841   65.7636 C   0  0  0  0  0
    4.5954   22.8209   66.3239 C   0  0  0  0  0
    2.9172   21.2019   66.7269 C   0  0  0  0  0
    1.9562   22.0582   66.1841 C   0  0  0  0  0
    6.2958   24.4372   65.9834 C   0  0  0  0  0
    5.3734   25.3251   65.4235 C   0  0  0  0  0
    2.0185   25.4710   63.8244 N   0  0  0  0  0
    0.1766   26.3440   61.4735 N   0  0  0  0  0
    2.1885   28.5164   60.8519 N   0  0  0  0  0
    1.1873   29.4832   62.6147 N   0  0  0  0  0
    4.2147   21.6016   66.7870 N   0  0  0  0  0
    2.3314   23.2785   65.7182 N   0  0  0  0  0
    5.8930   23.2129   66.4162 N   0  0  0  0  0
    0.0493   26.5373   58.3508 F   0  0  0  0  0
   -2.1618   26.5411   58.8546 F   0  0  0  0  0
    3.0073   29.3711   61.3844 O   0  0  0  0  0
    0.4341   26.9354   64.7449 O   0  0  0  0  0
    3.2444   24.0148   60.7014 O   0  0  0  0  0
    3.2147   27.1429   64.9340 O   0  0  0  0  0
  1 21  1  0  0  0
  1 14  1  0  0  0
  3  2  1  0  0  0
  3 22  1  0  0  0
  4 22  1  0  0  0
  4  5  1  0  0  0
  5 28  1  0  0  0
  5 29  1  0  0  0
  5  6  1  0  0  0
  6  7  1  0  0  0
  7  8  1  0  0  0
  7 22  1  0  0  0
  8 24  1  0  0  0
  9 30  1  0  0  0
 10  9  1  0  0  0
 11 21  1  0  0  0
 11 12  1  0  0  0
 12 32  1  0  0  0
 13 32  1  0  0  0
 14 15  1  0  0  0
 15 16  1  0  0  0
 16 27  1  0  0  0
 17 25  1  0  0  0
 18 26  1  0  0  0
 19 20  1  0  0  0
 21  2  1  0  0  0
 23 30  1  0  0  0
  1 33  2  0  0  0
  2 31  2  0  0  0
  8 23  2  0  0  0
  9 24  2  0  0  0
 15 26  2  0  0  0
 16 25  2  0  0  0
 17 18  2  0  0  0
 19 27  2  0  0  0
 20 14  2  0  0  0
M  END
> <rmsd>
0.619114339

$$$$
NGXWVFWUEWRJSP-UHFFFAOYSA-N


 35 38  0  0  0  0  0  0  0  0999 V2000
    2.8995   25.5633   64.1312 C   0  0  0  0  0
    0.8812   26.5116   62.9558 C   0  0  0  0  0
    0.9202   27.7768   63.7797 C   0  0  0  0  0
    0.3868   29.2911   61.8734 C   0  0  0  0  0
    0.8734   28.6128   60.5883 C   0  0  0  0  0
    2.6557   28.2300   59.1328 C   0  0  0  0  0
    3.7385   28.9961   58.3937 C   0  0  0  0  0
    3.8626   30.9309   56.8814 C   0  0  0  0  0
    4.8532   30.2769   56.1345 C   0  0  0  0  0
    5.5367   30.9613   55.1259 C   0  0  0  0  0
    5.2110   32.2932   54.8469 C   0  0  0  0  0
    4.2049   32.9381   55.5759 C   0  0  0  0  0
    3.5290   32.2571   56.5942 C   0  0  0  0  0
    4.2710   28.1550   57.2319 C   0  0  0  0  0
    3.0517   28.3817   61.4343 C   0  0  0  0  0
    2.6905   29.0962   62.7345 C   0  0  0  0  0
   -0.3583   27.9601   64.5811 C   0  0  0  0  0
    1.9618   24.3576   62.1662 C   0  0  0  0  0
    2.2299   24.8369   60.7503 C   0  0  0  0  0
    0.7042   23.5061   62.2180 C   0  0  0  0  0
    3.2723   24.3774   64.9314 C   0  0  0  0  0
    2.8468   22.1474   65.6084 C   0  0  0  0  0
    4.6972   23.2926   66.5364 C   0  0  0  0  0
    6.1766   22.2078   68.1788 C   0  0  0  0  0
    4.3811   24.4222   65.7831 C   0  0  0  0  0
    1.8915   25.4846   63.1037 N   0  0  0  0  0
    1.2547   29.0028   63.0315 N   0  0  0  0  0
    2.2703   28.9433   60.3395 N   0  0  0  0  0
    2.5271   23.2408   64.8685 N   0  0  0  0  0
    3.9248   22.1764   66.4341 N   0  0  0  0  0
    3.2200   30.2389   57.9113 O   0  0  0  0  0
    5.1429   28.9384   56.4138 O   0  0  0  0  0
   -0.0789   26.3351   62.1560 O   0  0  0  0  0
    3.4855   26.6579   64.3506 O   0  0  0  0  0
    5.8033   23.3249   67.3862 O   0  0  0  0  0
  1 26  1  0  0  0
  1 21  1  0  0  0
  3  2  1  0  0  0
  3 27  1  0  0  0
  3 17  1  0  0  0
  4 27  1  0  0  0
  4  5  1  0  0  0
  5 28  1  0  0  0
  6 28  1  0  0  0
  6  7  1  0  0  0
  7 31  1  0  0  0
  8 31  1  0  0  0
  9 10  1  0  0  0
  9 32  1  0  0  0
 11 12  1  0  0  0
 13  8  1  0  0  0
 14 32  1  0  0  0
 14  7  1  0  0  0
 15 28  1  0  0  0
 15 16  1  0  0  0
 16 27  1  0  0  0
 18 26  1  0  0  0
 18 19  1  0  0  0
 18 20  1  0  0  0
 22 29  1  0  0  0
 23 30  1  0  0  0
 23 35  1  0  0  0
 24 35  1  0  0  0
 25 21  1  0  0  0
 26  2  1  0  0  0
  1 34  2  0  0  0
  2 33  2  0  0  0
  8  9  2  0  0  0
 10 11  2  0  0  0
 12 13  2  0  0  0
 21 29  2  0  0  0
 22 30  2  0  0  0
 23 25  2  0  0  0
M  END
> <rmsd>
0.548730969

$$$$
SIFFPWZQYKKDCC-UHFFFAOYSA-N


 33 35  0  0  0  0  0  0  0  0999 V2000
    3.3503   23.1725   65.3523 C   0  0  0  0  0
    2.0824   24.7067   63.8842 C   0  0  0  0  0
    1.7758   25.9651   63.5200 C   0  0  0  0  0
    0.4775   26.1826   62.8175 C   0  0  0  0  0
   -0.6038   25.1560   62.9060 C   0  0  0  0  0
    3.5338   29.4168   63.3207 C   0  0  0  0  0
    2.6560   27.1216   63.8514 C   0  0  0  0  0
    4.5872   24.6918   63.7843 C   0  0  0  0  0
    4.8284   23.8871   62.5474 C   0  0  0  0  0
    5.6501   22.7493   62.5782 C   0  0  0  0  0
    5.8465   21.9995   61.4143 C   0  0  0  0  0
    5.2253   22.3792   60.2211 C   0  0  0  0  0
    4.4061   23.5110   60.1889 C   0  0  0  0  0
    4.2075   24.2627   61.3501 C   0  0  0  0  0
    4.5106   22.9147   66.2403 C   0  0  0  0  0
    4.8182   21.6205   66.7092 C   0  0  0  0  0
    4.3036   19.1960   66.7390 C   0  0  0  0  0
    5.9171   21.4439   67.5630 C   0  0  0  0  0
    6.6912   22.5406   67.9399 C   0  0  0  0  0
    8.6085   23.4232   69.2077 C   0  0  0  0  0
    5.3169   23.9851   66.6498 C   0  0  0  0  0
    3.3405   24.2838   64.4368 N   0  0  0  0  0
    0.2447   27.2350   62.0939 N   0  0  0  0  0
    2.6074   28.3231   63.0755 N   0  0  0  0  0
    6.3753   23.7807   67.4765 N   0  0  0  0  0
    1.4036   28.4917   61.8569 S   0  0  0  0  0
    2.0277   28.3612   60.4965 O   0  0  0  0  0
    0.7258   29.8256   61.9950 O   0  0  0  0  0
    3.4182   27.0669   64.8555 O   0  0  0  0  0
    2.3400   22.4196   65.4230 O   0  0  0  0  0
    4.0415   20.5255   66.3105 O   0  0  0  0  0
    7.7815   22.3480   68.7887 O   0  0  0  0  0
    6.2675   22.3707   63.7245 F   0  0  0  0  0
  1 22  1  0  0  0
  1 15  1  0  0  0
  3  4  1  0  0  0
  5  4  1  0  0  0
  6 24  1  0  0  0
  7  3  1  0  0  0
  8 22  1  0  0  0
  8  9  1  0  0  0
 10 33  1  0  0  0
 10 11  1  0  0  0
 12 13  1  0  0  0
 14  9  1  0  0  0
 16 31  1  0  0  0
 16 18  1  0  0  0
 17 31  1  0  0  0
 19 32  1  0  0  0
 19 25  1  0  0  0
 20 32  1  0  0  0
 21 15  1  0  0  0
 22  2  1  0  0  0
 24  7  1  0  0  0
 26 23  1  0  0  0
 26 24  1  0  0  0
  1 30  2  0  0  0
  2  3  2  0  0  0
  4 23  2  0  0  0
  7 29  2  0  0  0
  9 10  2  0  0  0
 11 12  2  0  0  0
 13 14  2  0  0  0
 15 16  2  0  0  0
 18 19  2  0  0  0
 21 25  2  0  0  0
 26 27  2  0  0  0
 26 28  2  0  0  0
M  END
> <rmsd>
0.795007229

$$$$
YCHNXTIGZCELNJ-UHFFFAOYSA-N


 32 35  0  0  0  0  0  0  0  0999 V2000
    4.6287   22.3610   66.4563 C   0  0  0  0  0
    4.9222   24.8330   65.7488 C   0  0  0  0  0
    3.9696   25.7376   65.0340 C   0  0  0  0  0
    1.5822   25.5680   63.9756 C   0  0  0  0  0
    2.0599   25.9849   62.6021 C   0  0  0  0  0
    0.9136   27.9647   60.1603 C   0  0  0  0  0
    1.9711   28.9976   59.9694 C   0  0  0  0  0
    2.6520   31.1498   58.9932 C   0  0  0  0  0
    1.2979   27.0406   64.1751 C   0  0  0  0  0
    2.8574   23.8208   65.3389 C   0  0  0  0  0
    5.9023   22.2726   67.2064 C   0  0  0  0  0
    7.7345   23.3444   68.2837 C   0  0  0  0  0
    8.2791   22.1113   68.6428 C   0  0  0  0  0
    7.6190   20.9311   68.2785 C   0  0  0  0  0
    7.6313   18.4469   68.3560 C   0  0  0  0  0
    8.4731   17.4905   68.8886 C   0  0  0  0  0
    9.2942   19.4237   69.3276 C   0  0  0  0  0
    6.4210   21.0189   67.5570 C   0  0  0  0  0
    4.1418   23.6078   65.9246 N   0  0  0  0  0
    2.7019   25.1229   64.8074 N   0  0  0  0  0
    1.7848   27.3964   62.8468 N   0  0  0  0  0
    6.5707   23.3978   67.5833 N   0  0  0  0  0
    8.1604   19.6504   68.6400 N   0  0  0  0  0
    9.5102   18.1052   69.4945 N   0  0  0  0  0
    4.2572   26.9053   64.6612 O   0  0  0  0  0
   -0.0714   29.2112   62.3232 O   0  0  0  0  0
   -0.6933   26.8636   61.9996 O   0  0  0  0  0
    1.6857   30.1332   59.2119 O   0  0  0  0  0
    3.1134   28.8302   60.4770 O   0  0  0  0  0
    1.9538   22.9433   65.2917 O   0  0  0  0  0
    3.9514   21.3109   66.2833 O   0  0  0  0  0
    0.4227   27.8650   61.8724 S   0  0  0  0  0
  1 19  1  0  0  0
  1 11  1  0  0  0
  2 19  1  0  0  0
  2  3  1  0  0  0
  3 20  1  0  0  0
  4 20  1  0  0  0
  4  5  1  0  0  0
  5 21  1  0  0  0
  6  7  1  0  0  0
  7 28  1  0  0  0
  8 28  1  0  0  0
  9 21  1  0  0  0
  9  4  1  0  0  0
 10 19  1  0  0  0
 12 22  1  0  0  0
 13 14  1  0  0  0
 14 23  1  0  0  0
 16 24  1  0  0  0
 17 23  1  0  0  0
 18 11  1  0  0  0
 20 10  1  0  0  0
 23 15  1  0  0  0
 32 21  1  0  0  0
 32  6  1  0  0  0
  1 31  2  0  0  0
  3 25  2  0  0  0
  7 29  2  0  0  0
 10 30  2  0  0  0
 11 22  2  0  0  0
 12 13  2  0  0  0
 14 18  2  0  0  0
 15 16  2  0  0  0
 17 24  2  0  0  0
 32 26  2  0  0  0
 32 27  2  0  0  0
M  END
> <rmsd>
0.674012125

$$$$
GODUWHHBLKJSSK-UHFFFAOYSA-N


 34 37  0  0  0  0  0  0  0  0999 V2000
    2.9620   25.4178   64.0284 C   0  0  0  0  0
    0.9431   26.4209   62.9361 C   0  0  0  0  0
    0.9646   27.5927   63.8723 C   0  0  0  0  0
    0.5628   29.8960   64.0098 C   0  0  0  0  0
    1.5980   31.0023   64.0633 C   0  0  0  0  0
    2.6709   30.6094   63.0856 C   0  0  0  0  0
    2.4560   29.1301   62.8741 C   0  0  0  0  0
    2.8319   28.7336   61.4833 C   0  0  0  0  0
    3.7217   27.7775   59.8651 C   0  0  0  0  0
    4.5788   26.9031   59.0222 C   0  0  0  0  0
    1.7591   24.1472   62.2574 C   0  0  0  0  0
    2.9131   23.5303   61.7464 C   0  0  0  0  0
    2.8128   22.3837   60.9538 C   0  0  0  0  0
    1.5581   21.8408   60.6665 C   0  0  0  0  0
    0.4038   22.4425   61.1733 C   0  0  0  0  0
    0.5036   23.5890   61.9663 C   0  0  0  0  0
    3.2798   24.3017   64.9426 C   0  0  0  0  0
    2.7071   22.2061   65.8866 C   0  0  0  0  0
    4.7017   23.2709   66.5842 C   0  0  0  0  0
    6.1779   22.2399   68.2637 C   0  0  0  0  0
    4.4385   24.3367   65.7249 C   0  0  0  0  0
    1.8699   25.3211   63.0902 N   0  0  0  0  0
    1.0468   28.8418   63.1247 N   0  0  0  0  0
    2.2360   29.2163   60.3745 N   0  0  0  0  0
    3.7804   27.8150   61.2088 N   0  0  0  0  0
    2.4374   23.2378   65.0454 N   0  0  0  0  0
    3.8317   22.2255   66.6478 N   0  0  0  0  0
    1.0335   32.2093   63.6970 F   0  0  0  0  0
    2.1265   31.0914   65.3374 F   0  0  0  0  0
    1.4607   20.7291   59.8988 F   0  0  0  0  0
    2.8186   28.5992   59.3925 O   0  0  0  0  0
    0.0864   26.4083   62.0107 O   0  0  0  0  0
    3.6570   26.4695   64.0715 O   0  0  0  0  0
    5.8560   23.2931   67.3676 O   0  0  0  0  0
  1 22  1  0  0  0
  1 17  1  0  0  0
  3  2  1  0  0  0
  3 23  1  0  0  0
  4 23  1  0  0  0
  4  5  1  0  0  0
  5 28  1  0  0  0
  5 29  1  0  0  0
  5  6  1  0  0  0
  6  7  1  0  0  0
  7  8  1  0  0  0
  7 23  1  0  0  0
  8 25  1  0  0  0
  9 31  1  0  0  0
 10  9  1  0  0  0
 12 13  1  0  0  0
 14 30  1  0  0  0
 14 15  1  0  0  0
 16 11  1  0  0  0
 18 26  1  0  0  0
 19 27  1  0  0  0
 19 34  1  0  0  0
 20 34  1  0  0  0
 21 17  1  0  0  0
 22  2  1  0  0  0
 22 11  1  0  0  0
 24 31  1  0  0  0
  1 33  2  0  0  0
  2 32  2  0  0  0
  8 24  2  0  0  0
  9 25  2  0  0  0
 11 12  2  0  0  0
 13 14  2  0  0  0
 15 16  2  0  0  0
 17 26  2  0  0  0
 18 27  2  0  0  0
 19 21  2  0  0  0
M  END
> <rmsd>
0.613441885

$$$$
IOGSXRDRZCAHNC-UHFFFAOYSA-N


 34 37  0  0  0  0  0  0  0  0999 V2000
    1.8613   26.0210   61.0728 C   0  0  0  0  0
    1.6371   28.0243   62.5581 C   0  0  0  0  0
    1.8357   27.2110   63.7985 C   0  0  0  0  0
    4.0833   26.3576   63.6246 C   0  0  0  0  0
    3.7256   24.9156   63.9958 C   0  0  0  0  0
    3.7880   24.7442   65.5050 C   0  0  0  0  0
    4.2418   22.5455   66.5172 C   0  0  0  0  0
    4.6078   20.4120   67.4705 C   0  0  0  0  0
    5.9011   20.7831   67.8345 C   0  0  0  0  0
    6.3347   22.0687   67.5155 C   0  0  0  0  0
    2.8590   25.7469   66.1718 C   0  0  0  0  0
    3.2347   27.1691   65.7421 C   0  0  0  0  0
    2.0978   28.3016   60.1105 C   0  0  0  0  0
    2.4113   29.3442   57.8911 C   0  0  0  0  0
    2.6354   30.1757   58.9885 C   0  0  0  0  0
    0.7867   25.1703   61.6204 C   0  0  0  0  0
    0.9150   23.7809   61.6313 C   0  0  0  0  0
   -0.1133   23.0066   62.1584 C   0  0  0  0  0
   -1.2504   23.6337   62.6625 C   0  0  0  0  0
   -2.5276   25.6680   63.1597 C   0  0  0  0  0
   -3.2219   26.4671   62.0718 C   0  0  0  0  0
   -2.1532   26.5779   64.3159 C   0  0  0  0  0
    1.8419   27.4516   61.2472 N   0  0  0  0  0
    3.2086   27.3413   64.2826 N   0  0  0  0  0
    3.8046   21.2949   66.8215 N   0  0  0  0  0
    5.5031   22.9241   66.8658 N   0  0  0  0  0
    2.4611   29.5976   60.2082 N   0  0  0  0  0
   -1.3418   24.9974   62.6289 N   0  0  0  0  0
   -0.3478   25.7322   62.1178 N   0  0  0  0  0
    3.3896   23.4258   65.8494 O   0  0  0  0  0
    1.3065   29.2338   62.6830 O   0  0  0  0  0
    2.8098   25.4875   60.4344 O   0  0  0  0  0
   -2.1820   22.9336   63.1433 O   0  0  0  0  0
    1.9800   27.8348   58.5010 S   0  0  0  0  0
  1 23  1  0  0  0
  1 16  1  0  0  0
  3  2  1  0  0  0
  3 24  1  0  0  0
  4 24  1  0  0  0
  4  5  1  0  0  0
  5  6  1  0  0  0
  6 30  1  0  0  0
  6 11  1  0  0  0
  7 30  1  0  0  0
  7 26  1  0  0  0
  8 25  1  0  0  0
  9 10  1  0  0  0
 11 12  1  0  0  0
 12 24  1  0  0  0
 13 34  1  0  0  0
 14 34  1  0  0  0
 15 27  1  0  0  0
 16 17  1  0  0  0
 18 19  1  0  0  0
 19 28  1  0  0  0
 20 28  1  0  0  0
 20 21  1  0  0  0
 20 22  1  0  0  0
 23  2  1  0  0  0
 23 13  1  0  0  0
 28 29  1  0  0  0
  1 32  2  0  0  0
  2 31  2  0  0  0
  7 25  2  0  0  0
  8  9  2  0  0  0
 10 26  2  0  0  0
 13 27  2  0  0  0
 14 15  2  0  0  0
 16 29  2  0  0  0
 17 18  2  0  0  0
 19 33  2  0  0  0
M  END
> <rmsd>
0.703104556

$$$$
OSQASCNXWSBHPW-UHFFFAOYSA-N


 31 34  0  0  0  0  0  0  0  0999 V2000
    4.4424   22.6199   67.0599 C   0  0  0  0  0
    4.7356   25.0334   66.1997 C   0  0  0  0  0
    3.8383   25.8532   65.3272 C   0  0  0  0  0
    1.6150   25.5102   63.9888 C   0  0  0  0  0
    2.2425   25.8957   62.6675 C   0  0  0  0  0
    1.3255   27.6919   60.0359 C   0  0  0  0  0
    2.3876   28.5635   59.7322 C   0  0  0  0  0
    3.9641   30.3176   60.4902 C   0  0  0  0  0
    2.9277   28.5634   58.4350 C   0  0  0  0  0
    2.4187   27.7081   57.4552 C   0  0  0  0  0
    1.3654   26.8449   57.7621 C   0  0  0  0  0
    0.8234   25.9339   56.7209 C   0  0  0  0  0
    0.8217   26.8371   59.0482 C   0  0  0  0  0
    1.2365   26.9721   64.0812 C   0  0  0  0  0
    2.7908   23.8918   65.5810 C   0  0  0  0  0
    5.7449   22.6128   67.7961 C   0  0  0  0  0
    7.9985   22.6412   67.6057 C   0  0  0  0  0
    8.2026   23.6429   68.7426 C   0  0  0  0  0
    7.0344   23.5300   69.7183 C   0  0  0  0  0
    5.7072   23.5982   68.9679 C   0  0  0  0  0
    4.0029   23.7738   66.3234 N   0  0  0  0  0
    2.6404   25.1610   64.9736 N   0  0  0  0  0
    1.8706   27.2991   62.8088 N   0  0  0  0  0
    4.1131   27.0185   64.9377 O   0  0  0  0  0
   -0.4595   26.6085   61.7048 O   0  0  0  0  0
    0.0197   28.9954   61.9543 O   0  0  0  0  0
    2.8908   29.4155   60.7224 O   0  0  0  0  0
    1.9464   22.9636   65.4636 O   0  0  0  0  0
    3.7231   21.5870   67.1032 O   0  0  0  0  0
    6.8029   22.9283   66.9214 O   0  0  0  0  0
    0.6236   27.6531   61.6499 S   0  0  0  0  0
  1 21  1  0  0  0
  2 21  1  0  0  0
  2  3  1  0  0  0
  3 22  1  0  0  0
  4 22  1  0  0  0
  4  5  1  0  0  0
  5 23  1  0  0  0
  7 27  1  0  0  0
  7  9  1  0  0  0
  8 27  1  0  0  0
 10 11  1  0  0  0
 12 11  1  0  0  0
 13  6  1  0  0  0
 14 23  1  0  0  0
 14  4  1  0  0  0
 15 21  1  0  0  0
 16  1  1  0  0  0
 16 30  1  0  0  0
 17 30  1  0  0  0
 17 18  1  0  0  0
 18 19  1  0  0  0
 19 20  1  0  0  0
 20 16  1  0  0  0
 22 15  1  0  0  0
 31 23  1  0  0  0
 31  6  1  0  0  0
  1 29  2  0  0  0
  3 24  2  0  0  0
  6  7  2  0  0  0
  9 10  2  0  0  0
 11 13  2  0  0  0
 15 28  2  0  0  0
 31 25  2  0  0  0
 31 26  2  0  0  0
M  END
> <rmsd>
0.714431703

$$$$
JYBCENKAUWIRBT-UHFFFAOYSA-N


 29 31  0  0  0  0  0  0  0  0999 V2000
    2.7268   25.3020   64.1349 C   0  0  0  0  0
    0.6757   26.3155   63.0749 C   0  0  0  0  0
    0.8723   27.6246   63.7763 C   0  0  0  0  0
    2.4196   28.9268   62.5690 C   0  0  0  0  0
    2.6948   30.4105   62.6540 C   0  0  0  0  0
    3.1261   30.8240   61.2614 C   0  0  0  0  0
    3.8581   29.6274   59.3921 C   0  0  0  0  0
    2.7665   28.5377   61.1463 C   0  0  0  0  0
    1.3730   31.0520   62.9915 C   0  0  0  0  0
    0.5047   29.9098   63.4552 C   0  0  0  0  0
    1.2299   23.9108   62.6914 C   0  0  0  0  0
    1.9640   23.8164   61.3668 C   0  0  0  0  0
    3.1496   24.2214   65.0509 C   0  0  0  0  0
    2.6802   22.1909   66.1775 C   0  0  0  0  0
    4.7685   23.2430   66.5356 C   0  0  0  0  0
    6.4479   22.2627   68.0475 C   0  0  0  0  0
    7.8456   22.5674   68.5560 C   0  0  0  0  0
    4.4056   24.2693   65.6649 C   0  0  0  0  0
    1.5291   25.1841   63.3410 N   0  0  0  0  0
    0.9956   28.7041   62.8070 N   0  0  0  0  0
    2.7698   29.7512   60.3445 N   0  0  0  0  0
    2.3131   23.1841   65.3266 N   0  0  0  0  0
    3.8995   22.2229   66.7748 N   0  0  0  0  0
   -0.2920   26.2000   62.2741 O   0  0  0  0  0
    3.4366   26.3407   64.0423 O   0  0  0  0  0
    6.0202   23.2786   67.1502 O   0  0  0  0  0
    8.7291   22.6230   67.4941 F   0  0  0  0  0
    7.8481   23.7787   69.2227 F   0  0  0  0  0
    8.2407   21.5688   69.4250 F   0  0  0  0  0
  1 19  1  0  0  0
  1 13  1  0  0  0
  3  2  1  0  0  0
  3 20  1  0  0  0
  4 20  1  0  0  0
  4  5  1  0  0  0
  5  6  1  0  0  0
  5  9  1  0  0  0
  6 21  1  0  0  0
  7 21  1  0  0  0
  8 21  1  0  0  0
  8  4  1  0  0  0
  9 10  1  0  0  0
 10 20  1  0  0  0
 11 19  1  0  0  0
 11 12  1  0  0  0
 14 22  1  0  0  0
 15 23  1  0  0  0
 15 26  1  0  0  0
 16 26  1  0  0  0
 16 17  1  0  0  0
 17 27  1  0  0  0
 17 28  1  0  0  0
 17 29  1  0  0  0
 18 13  1  0  0  0
 19  2  1  0  0  0
  1 25  2  0  0  0
  2 24  2  0  0  0
 13 22  2  0  0  0
 14 23  2  0  0  0
 15 18  2  0  0  0
M  END
> <rmsd>
0.634444058

$$$$
HLRCYSIRWSLEBX-UHFFFAOYSA-N


 32 35  0  0  0  0  0  0  0  0999 V2000
    0.7427   28.8333   62.0719 C   0  0  0  0  0
    0.7803   26.4442   62.8464 C   0  0  0  0  0
    1.3903   25.4131   63.7469 C   0  0  0  0  0
    2.0864   24.3160   62.9349 C   0  0  0  0  0
    2.2632   23.0249   63.7399 C   0  0  0  0  0
    2.5420   22.0487   65.8466 C   0  0  0  0  0
    3.9079   22.0558   66.4489 C   0  0  0  0  0
    5.6477   21.4837   67.4357 C   0  0  0  0  0
    6.6668   20.6975   68.1811 C   0  0  0  0  0
    0.9089   23.7022   65.5687 C   0  0  0  0  0
    0.3435   24.8411   64.7016 C   0  0  0  0  0
    1.5477   28.2889   64.3658 C   0  0  0  0  0
    3.0343   28.3645   64.2734 C   0  0  0  0  0
    5.0662   27.9740   64.4770 C   0  0  0  0  0
    6.3666   27.3734   64.8792 C   0  0  0  0  0
    0.9835   28.5192   60.6300 C   0  0  0  0  0
    3.1540   27.6147   60.4766 C   0  0  0  0  0
    4.6212   27.9003   60.1648 C   0  0  0  0  0
    4.7515   28.3812   58.7222 C   0  0  0  0  0
    3.8107   29.5564   58.4596 C   0  0  0  0  0
    2.3879   29.1805   58.8711 C   0  0  0  0  0
    0.9899   27.8486   63.0905 N   0  0  0  0  0
    2.2639   23.3066   65.1726 N   0  0  0  0  0
    5.8323   22.7581   67.0434 N   0  0  0  0  0
    4.4416   20.9949   67.0822 N   0  0  0  0  0
    4.9610   29.0549   63.6809 N   0  0  0  0  0
    3.8699   27.4978   64.8774 N   0  0  0  0  0
    2.3626   28.8329   60.2892 N   0  0  0  0  0
    4.7314   23.0771   66.4339 O   0  0  0  0  0
    0.0435   26.0704   61.8920 O   0  0  0  0  0
    3.6841   29.2645   63.5780 O   0  0  0  0  0
    0.4199   30.0085   62.3942 O   0  0  0  0  0
  1 22  1  0  0  0
  3  2  1  0  0  0
  3  4  1  0  0  0
  4  5  1  0  0  0
  5 23  1  0  0  0
  6 23  1  0  0  0
  6  7  1  0  0  0
  7 29  1  0  0  0
  8 25  1  0  0  0
  9  8  1  0  0  0
 10 23  1  0  0  0
 10 11  1  0  0  0
 11  3  1  0  0  0
 12 22  1  0  0  0
 12 13  1  0  0  0
 13 31  1  0  0  0
 14 27  1  0  0  0
 15 14  1  0  0  0
 16  1  1  0  0  0
 16 28  1  0  0  0
 17 28  1  0  0  0
 17 18  1  0  0  0
 18 19  1  0  0  0
 19 20  1  0  0  0
 20 21  1  0  0  0
 21 28  1  0  0  0
 22  2  1  0  0  0
 29 24  1  0  0  0
 31 26  1  0  0  0
  1 32  2  0  0  0
  2 30  2  0  0  0
  7 25  2  0  0  0
  8 24  2  0  0  0
 13 27  2  0  0  0
 14 26  2  0  0  0
M  END
> <rmsd>
0.697570384

$$$$
HDUXZZNPKLJUTQ-UHFFFAOYSA-N


 27 29  0  0  0  0  0  0  0  0999 V2000
    0.8639   26.9736   62.7541 C   0  0  0  0  0
    2.1529   25.4925   64.3863 C   0  0  0  0  0
    2.0251   24.1649   65.0473 C   0  0  0  0  0
    4.3227   23.5813   65.3644 C   0  0  0  0  0
    4.3725   22.9910   66.7669 C   0  0  0  0  0
    4.9213   24.1750   68.5527 C   0  0  0  0  0
    3.4132   21.1072   67.4229 C   0  0  0  0  0
    3.3487   23.1677   63.2602 C   0  0  0  0  0
    0.6553   23.6626   64.5771 C   0  0  0  0  0
    0.0744   24.7186   63.6239 C   0  0  0  0  0
    1.9272   28.0282   62.6769 C   0  0  0  0  0
    2.7232   27.8964   61.3688 C   0  0  0  0  0
    4.1098   28.4859   61.5425 C   0  0  0  0  0
    1.2480   29.6543   60.4396 C   0  0  0  0  0
    0.9149   30.0749   61.7333 C   0  0  0  0  0
    0.1396   31.2227   61.9196 C   0  0  0  0  0
   -0.3221   31.9378   60.8096 C   0  0  0  0  0
   -0.0079   31.5053   59.5163 C   0  0  0  0  0
    0.7780   30.3631   59.3305 C   0  0  0  0  0
    1.0426   25.7990   63.5612 N   0  0  0  0  0
    3.0848   23.1996   64.6965 N   0  0  0  0  0
    3.1219   26.2761   64.5719 O   0  0  0  0  0
    5.4697   23.5170   67.4510 O   0  0  0  0  0
    4.4937   21.6013   66.6905 O   0  0  0  0  0
   -0.1892   27.1069   62.0731 O   0  0  0  0  0
    2.0608   28.5303   60.2694 O   0  0  0  0  0
    1.3592   29.3334   62.8302 O   0  0  0  0  0
  1 20  1  0  0  0
  3  2  1  0  0  0
  3 21  1  0  0  0
  3  9  1  0  0  0
  4 21  1  0  0  0
  4  5  1  0  0  0
  5 23  1  0  0  0
  5 24  1  0  0  0
  6 23  1  0  0  0
  7 24  1  0  0  0
  8 21  1  0  0  0
  9 10  1  0  0  0
 10 20  1  0  0  0
 11  1  1  0  0  0
 11 12  1  0  0  0
 11 27  1  0  0  0
 12 13  1  0  0  0
 12 26  1  0  0  0
 14 26  1  0  0  0
 15 16  1  0  0  0
 15 27  1  0  0  0
 17 18  1  0  0  0
 19 14  1  0  0  0
 20  2  1  0  0  0
  1 25  2  0  0  0
  2 22  2  0  0  0
 14 15  2  0  0  0
 16 17  2  0  0  0
 18 19  2  0  0  0
M  END
> <rmsd>
0.719451547

$$$$
HEYNNMIIKOGTFW-UHFFFAOYSA-N


 30 32  0  0  0  0  0  0  0  0999 V2000
    2.7902   25.5401   64.2448 C   0  0  0  0  0
    0.8216   26.5505   63.0246 C   0  0  0  0  0
    0.8779   27.8136   63.8285 C   0  0  0  0  0
    0.4748   30.1096   63.6530 C   0  0  0  0  0
    1.3336   31.3094   63.3259 C   0  0  0  0  0
    2.6482   30.7502   62.8439 C   0  0  0  0  0
    2.4586   29.2466   62.8172 C   0  0  0  0  0
    2.9882   28.6749   61.5424 C   0  0  0  0  0
    3.2734   28.2003   59.5376 C   0  0  0  0  0
    3.1530   28.1353   58.0573 C   0  0  0  0  0
    1.6254   24.2633   62.4290 C   0  0  0  0  0
    2.4169   24.4351   61.1410 C   0  0  0  0  0
    3.9008   24.2669   61.4040 C   0  0  0  0  0
    3.2118   24.3554   65.0223 C   0  0  0  0  0
    2.8125   22.1387   65.7563 C   0  0  0  0  0
    4.7588   23.2587   66.5006 C   0  0  0  0  0
    6.3633   22.1614   68.0118 C   0  0  0  0  0
    4.3940   24.3878   65.7689 C   0  0  0  0  0
    1.7321   25.4576   63.2666 N   0  0  0  0  0
    1.0322   28.9648   62.9492 N   0  0  0  0  0
    4.0003   27.7882   61.4964 N   0  0  0  0  0
    2.4923   28.9667   60.3210 N   0  0  0  0  0
    2.4449   23.2316   65.0384 N   0  0  0  0  0
    3.9619   22.1553   66.4793 N   0  0  0  0  0
    1.5224   32.0875   64.4518 F   0  0  0  0  0
    0.7433   32.0559   62.3235 F   0  0  0  0  0
    4.1473   27.5199   60.2353 O   0  0  0  0  0
   -0.0706   26.4416   62.1397 O   0  0  0  0  0
    3.3833   26.6370   64.4347 O   0  0  0  0  0
    5.9380   23.2786   67.2460 O   0  0  0  0  0
  1 19  1  0  0  0
  1 14  1  0  0  0
  3  2  1  0  0  0
  3 20  1  0  0  0
  4 20  1  0  0  0
  4  5  1  0  0  0
  5 25  1  0  0  0
  5 26  1  0  0  0
  5  6  1  0  0  0
  6  7  1  0  0  0
  7  8  1  0  0  0
  7 20  1  0  0  0
  8 22  1  0  0  0
  9 27  1  0  0  0
 10  9  1  0  0  0
 11 19  1  0  0  0
 11 12  1  0  0  0
 12 13  1  0  0  0
 15 23  1  0  0  0
 16 24  1  0  0  0
 16 30  1  0  0  0
 17 30  1  0  0  0
 18 14  1  0  0  0
 19  2  1  0  0  0
 21 27  1  0  0  0
  1 29  2  0  0  0
  2 28  2  0  0  0
  8 21  2  0  0  0
  9 22  2  0  0  0
 14 23  2  0  0  0
 15 24  2  0  0  0
 16 18  2  0  0  0
M  END
> <rmsd>
0.452027023

$$$$
HEYNNMIIKOGTFW-UHFFFAOYSA-N


 30 32  0  0  0  0  0  0  0  0999 V2000
    2.6048   25.3383   64.5963 C   0  0  0  0  0
    0.4625   26.3310   63.7589 C   0  0  0  0  0
   -0.6686   26.3353   62.7785 C   0  0  0  0  0
   -1.1154   26.0728   60.4997 C   0  0  0  0  0
   -1.3757   27.0744   59.3935 C   0  0  0  0  0
   -0.7234   28.3576   59.8339 C   0  0  0  0  0
   -0.3051   28.1109   61.2650 C   0  0  0  0  0
    0.9940   28.7906   61.5532 C   0  0  0  0  0
    2.4543   29.9987   62.4109 C   0  0  0  0  0
    3.1647   30.9890   63.2623 C   0  0  0  0  0
    1.1276   24.0153   63.0546 C   0  0  0  0  0
    1.7572   24.1051   61.6728 C   0  0  0  0  0
    3.2576   23.8928   61.7532 C   0  0  0  0  0
    3.1793   24.1752   65.3061 C   0  0  0  0  0
    2.9616   21.9619   66.1240 C   0  0  0  0  0
    4.9720   23.1404   66.5297 C   0  0  0  0  0
    6.8256   22.1039   67.7711 C   0  0  0  0  0
    4.4648   24.2482   65.8520 C   0  0  0  0  0
    1.3892   25.2285   63.8290 N   0  0  0  0  0
   -0.1808   26.6688   61.4466 N   0  0  0  0  0
    2.1487   28.5153   60.9123 N   0  0  0  0  0
    1.1401   29.7263   62.5148 N   0  0  0  0  0
    2.4547   23.0331   65.4601 N   0  0  0  0  0
    4.2110   22.0185   66.6523 N   0  0  0  0  0
   -2.7349   27.2646   59.2307 F   0  0  0  0  0
   -0.8131   26.6388   58.2107 F   0  0  0  0  0
    3.0290   29.2877   61.4725 O   0  0  0  0  0
    0.5924   27.3226   64.5277 O   0  0  0  0  0
    3.1969   26.4504   64.6641 O   0  0  0  0  0
    6.2551   23.2002   67.0724 O   0  0  0  0  0
  1 19  1  0  0  0
  1 14  1  0  0  0
  3  2  1  0  0  0
  3 20  1  0  0  0
  4 20  1  0  0  0
  4  5  1  0  0  0
  5 25  1  0  0  0
  5 26  1  0  0  0
  5  6  1  0  0  0
  6  7  1  0  0  0
  7  8  1  0  0  0
  7 20  1  0  0  0
  8 22  1  0  0  0
  9 27  1  0  0  0
 10  9  1  0  0  0
 11 19  1  0  0  0
 11 12  1  0  0  0
 12 13  1  0  0  0
 15 23  1  0  0  0
 16 24  1  0  0  0
 16 30  1  0  0  0
 17 30  1  0  0  0
 18 14  1  0  0  0
 19  2  1  0  0  0
 21 27  1  0  0  0
  1 29  2  0  0  0
  2 28  2  0  0  0
  8 21  2  0  0  0
  9 22  2  0  0  0
 14 23  2  0  0  0
 15 24  2  0  0  0
 16 18  2  0  0  0
M  END
> <rmsd>
0.594915926

$$$$
QJPCQNNNOSGTEW-UHFFFAOYSA-N


 30 32  0  0  0  0  0  0  0  0999 V2000
    2.9370   25.5361   64.1107 C   0  0  0  0  0
    0.9135   26.5147   62.9916 C   0  0  0  0  0
    0.9508   27.7230   63.8790 C   0  0  0  0  0
    0.5331   30.0154   63.9166 C   0  0  0  0  0
    2.4364   29.2293   62.8272 C   0  0  0  0  0
    2.8625   28.6250   61.5307 C   0  0  0  0  0
    3.8281   27.4334   60.1341 C   0  0  0  0  0
    4.7289   26.4244   59.5175 C   0  0  0  0  0
    1.8919   24.3469   62.1933 C   0  0  0  0  0
    0.6929   23.7123   61.8310 C   0  0  0  0  0
    0.7030   22.6289   60.9480 C   0  0  0  0  0
    1.9123   22.1676   60.4216 C   0  0  0  0  0
    3.1115   22.7884   60.7791 C   0  0  0  0  0
    4.3982   22.2977   60.2215 C   0  0  0  0  0
    3.1016   23.8709   61.6623 C   0  0  0  0  0
    3.2860   24.3649   64.9414 C   0  0  0  0  0
    2.8097   22.1638   65.6753 C   0  0  0  0  0
    4.7036   23.2789   66.5509 C   0  0  0  0  0
    6.1767   22.1916   68.1971 C   0  0  0  0  0
    4.4079   24.3992   65.7754 C   0  0  0  0  0
    1.8926   25.4561   63.1169 N   0  0  0  0  0
    1.0305   28.9400   63.0788 N   0  0  0  0  0
    2.9585   28.1919   59.4418 N   0  0  0  0  0
    2.3420   28.9530   60.3330 N   0  0  0  0  0
    2.5092   23.2480   64.9144 N   0  0  0  0  0
    3.8995   22.1824   66.4854 N   0  0  0  0  0
    3.7780   27.6941   61.4169 O   0  0  0  0  0
    0.0056   26.4446   62.1193 O   0  0  0  0  0
    3.5678   26.6163   64.2716 O   0  0  0  0  0
    5.8222   23.3002   67.3843 O   0  0  0  0  0
  1 21  1  0  0  0
  1 16  1  0  0  0
  3  2  1  0  0  0
  3 22  1  0  0  0
  4 22  1  0  0  0
  5 22  1  0  0  0
  5  6  1  0  0  0
  6 27  1  0  0  0
  7 27  1  0  0  0
  8  7  1  0  0  0
 10 11  1  0  0  0
 12 13  1  0  0  0
 14 13  1  0  0  0
 15  9  1  0  0  0
 17 25  1  0  0  0
 18 26  1  0  0  0
 18 30  1  0  0  0
 19 30  1  0  0  0
 20 16  1  0  0  0
 21  2  1  0  0  0
 21  9  1  0  0  0
 23 24  1  0  0  0
  1 29  2  0  0  0
  2 28  2  0  0  0
  6 24  2  0  0  0
  7 23  2  0  0  0
  9 10  2  0  0  0
 11 12  2  0  0  0
 13 15  2  0  0  0
 16 25  2  0  0  0
 17 26  2  0  0  0
 18 20  2  0  0  0
M  END
> <rmsd>
0.53824079

$$$$
ZJSBDMUMUQQWAN-UHFFFAOYSA-N


 33 35  0  0  0  0  0  0  0  0999 V2000
    3.3455   23.2158   65.4167 C   0  0  0  0  0
    2.0909   24.7217   63.9061 C   0  0  0  0  0
    1.7746   25.9731   63.5260 C   0  0  0  0  0
    0.4895   26.1667   62.7925 C   0  0  0  0  0
   -0.5763   25.1224   62.8594 C   0  0  0  0  0
    3.4816   29.4519   63.3511 C   0  0  0  0  0
    2.6296   27.1447   63.8711 C   0  0  0  0  0
    4.5922   24.7371   63.8550 C   0  0  0  0  0
    4.9019   23.8659   62.6846 C   0  0  0  0  0
    5.6409   22.6910   62.8618 C   0  0  0  0  0
    5.9085   21.8614   61.7690 C   0  0  0  0  0
    5.4342   22.2039   60.4990 C   0  0  0  0  0
    4.6902   23.3745   60.3217 C   0  0  0  0  0
    4.4223   24.2043   61.4145 C   0  0  0  0  0
    4.5322   22.9112   66.2531 C   0  0  0  0  0
    4.8342   21.5967   66.6640 C   0  0  0  0  0
    4.2808   19.1809   66.6223 C   0  0  0  0  0
    5.9576   21.3725   67.4736 C   0  0  0  0  0
    6.7609   22.4433   67.8639 C   0  0  0  0  0
    8.7324   23.2506   69.0984 C   0  0  0  0  0
    5.3678   23.9543   66.6739 C   0  0  0  0  0
    3.3409   24.3214   64.4925 N   0  0  0  0  0
    0.2559   27.2127   62.0601 N   0  0  0  0  0
    2.5780   28.3427   63.0901 N   0  0  0  0  0
    6.4495   23.7041   67.4567 N   0  0  0  0  0
    1.3981   28.4884   61.8456 S   0  0  0  0  0
    2.0536   28.3663   60.4992 O   0  0  0  0  0
    0.6949   29.8109   61.9662 O   0  0  0  0  0
    3.3722   27.1051   64.8904 O   0  0  0  0  0
    2.3114   22.5022   65.5347 O   0  0  0  0  0
    4.0267   20.5293   66.2518 O   0  0  0  0  0
    7.8753   22.2036   68.6684 O   0  0  0  0  0
    5.7691   21.1651   59.1310 Cl  0  0  0  0  0
  1 22  1  0  0  0
  1 15  1  0  0  0
  3  4  1  0  0  0
  5  4  1  0  0  0
  6 24  1  0  0  0
  7  3  1  0  0  0
  8 22  1  0  0  0
  8  9  1  0  0  0
 10 11  1  0  0  0
 12 33  1  0  0  0
 12 13  1  0  0  0
 14  9  1  0  0  0
 16 31  1  0  0  0
 16 18  1  0  0  0
 17 31  1  0  0  0
 19 32  1  0  0  0
 19 25  1  0  0  0
 20 32  1  0  0  0
 21 15  1  0  0  0
 22  2  1  0  0  0
 24  7  1  0  0  0
 26 23  1  0  0  0
 26 24  1  0  0  0
  1 30  2  0  0  0
  2  3  2  0  0  0
  4 23  2  0  0  0
  7 29  2  0  0  0
  9 10  2  0  0  0
 11 12  2  0  0  0
 13 14  2  0  0  0
 15 16  2  0  0  0
 18 19  2  0  0  0
 21 25  2  0  0  0
 26 27  2  0  0  0
 26 28  2  0  0  0
M  END
> <rmsd>
0.78561461

$$$$
JBPFQWVPNCIBBR-UHFFFAOYSA-N


 25 26  0  0  0  0  0  0  0  0999 V2000
    2.8054   25.3296   64.1088 C   0  0  0  0  0
    0.7891   26.3575   62.9987 C   0  0  0  0  0
    0.9463   27.6470   63.7437 C   0  0  0  0  0
    0.3939   29.8934   63.3808 C   0  0  0  0  0
    1.4075   30.8536   63.9606 C   0  0  0  0  0
    2.6665   30.5630   63.1991 C   0  0  0  0  0
    2.5279   29.1091   62.7907 C   0  0  0  0  0
    3.1409   28.8508   61.4112 C   0  0  0  0  0
    3.0445   29.3575   59.1928 C   0  0  0  0  0
    1.3563   23.9623   62.6009 C   0  0  0  0  0
    3.1913   24.2372   65.0276 C   0  0  0  0  0
    2.6739   22.1980   66.1170 C   0  0  0  0  0
    4.7522   23.2378   66.5602 C   0  0  0  0  0
    6.3725   22.2377   68.1211 C   0  0  0  0  0
    4.4244   24.2742   65.6869 C   0  0  0  0  0
    1.6384   25.2261   63.2706 N   0  0  0  0  0
    1.1079   28.7544   62.8110 N   0  0  0  0  0
    2.3414   23.2008   65.2631 N   0  0  0  0  0
    3.8710   22.2191   66.7580 N   0  0  0  0  0
    2.4612   29.6183   60.4412 O   0  0  0  0  0
   -0.1409   26.2586   62.1526 O   0  0  0  0  0
    3.5190   26.3684   64.0570 O   0  0  0  0  0
    5.9812   23.2625   67.2199 O   0  0  0  0  0
    4.4862   29.1939   61.4535 F   0  0  0  0  0
    3.0292   27.4966   61.1265 F   0  0  0  0  0
  1 16  1  0  0  0
  1 11  1  0  0  0
  3  2  1  0  0  0
  3 17  1  0  0  0
  4 17  1  0  0  0
  4  5  1  0  0  0
  5  6  1  0  0  0
  6  7  1  0  0  0
  7  8  1  0  0  0
  7 17  1  0  0  0
  8 20  1  0  0  0
  8 24  1  0  0  0
  8 25  1  0  0  0
  9 20  1  0  0  0
 10 16  1  0  0  0
 12 18  1  0  0  0
 13 19  1  0  0  0
 13 23  1  0  0  0
 14 23  1  0  0  0
 15 11  1  0  0  0
 16  2  1  0  0  0
  1 22  2  0  0  0
  2 21  2  0  0  0
 11 18  2  0  0  0
 12 19  2  0  0  0
 13 15  2  0  0  0
M  END
> <rmsd>
0.601892412

$$$$
RRJGHCXFVBYNDB-UHFFFAOYSA-N


 31 34  0  0  0  0  0  0  0  0999 V2000
    2.0426   28.2350   60.8243 C   0  0  0  0  0
    1.8804   28.6658   63.2926 C   0  0  0  0  0
    2.3979   28.4618   64.6928 C   0  0  0  0  0
    3.0800   26.9267   66.3936 C   0  0  0  0  0
    3.3758   25.4705   66.7880 C   0  0  0  0  0
    3.1258   24.4926   65.6341 C   0  0  0  0  0
    4.3789   22.5258   66.4616 C   0  0  0  0  0
    5.4939   20.6155   67.2998 C   0  0  0  0  0
    6.7210   21.2667   67.1861 C   0  0  0  0  0
    6.7344   22.5710   66.6956 C   0  0  0  0  0
    1.7717   24.7532   64.9708 C   0  0  0  0  0
    1.4855   26.2513   64.7997 C   0  0  0  0  0
    3.5928   29.3964   64.9489 C   0  0  0  0  0
    4.9001   28.9069   64.3271 C   0  0  0  0  0
    4.8740   28.9647   62.8074 C   0  0  0  0  0
    4.0273   27.8302   62.2530 C   0  0  0  0  0
    0.7051   27.6562   60.5830 C   0  0  0  0  0
   -1.1176   26.3404   61.3293 C   0  0  0  0  0
   -1.1948   27.2798   59.1592 C   0  0  0  0  0
   -3.1290   26.9161   57.6796 C   0  0  0  0  0
    0.0587   27.8564   59.3593 C   0  0  0  0  0
    2.6288   28.2346   62.1363 N   0  0  0  0  0
    2.7037   27.0497   64.9791 N   0  0  0  0  0
    4.3501   21.2527   66.9371 N   0  0  0  0  0
    5.5702   23.1757   66.3428 N   0  0  0  0  0
    0.1040   26.8961   61.5385 N   0  0  0  0  0
   -1.7594   26.5339   60.1482 N   0  0  0  0  0
    0.7814   29.2653   63.1473 O   0  0  0  0  0
    3.1828   23.1484   66.0957 O   0  0  0  0  0
    2.7011   28.7008   59.8543 O   0  0  0  0  0
   -1.8518   27.4767   57.9442 O   0  0  0  0  0
  1 22  1  0  0  0
  1 17  1  0  0  0
  3  2  1  0  0  0
  3 23  1  0  0  0
  3 13  1  0  0  0
  4 23  1  0  0  0
  4  5  1  0  0  0
  5  6  1  0  0  0
  6 29  1  0  0  0
  6 11  1  0  0  0
  7 29  1  0  0  0
  7 25  1  0  0  0
  8 24  1  0  0  0
  9 10  1  0  0  0
 11 12  1  0  0  0
 12 23  1  0  0  0
 13 14  1  0  0  0
 14 15  1  0  0  0
 15 16  1  0  0  0
 16 22  1  0  0  0
 18 26  1  0  0  0
 19 27  1  0  0  0
 19 31  1  0  0  0
 20 31  1  0  0  0
 21 17  1  0  0  0
 22  2  1  0  0  0
  1 30  2  0  0  0
  2 28  2  0  0  0
  7 24  2  0  0  0
  8  9  2  0  0  0
 10 25  2  0  0  0
 17 26  2  0  0  0
 18 27  2  0  0  0
 19 21  2  0  0  0
M  END
> <rmsd>
0.785760045

$$$$
QADARQYYKURXCO-UHFFFAOYSA-N


 33 36  0  0  0  0  0  0  0  0999 V2000
    0.5391   27.1125   62.6476 C   0  0  0  0  0
    1.8179   28.3404   64.4101 C   0  0  0  0  0
    3.1031   27.6428   64.0960 C   0  0  0  0  0
    2.8694   25.3271   64.3813 C   0  0  0  0  0
    3.1712   24.1477   65.2501 C   0  0  0  0  0
    4.9360   22.9148   66.5697 C   0  0  0  0  0
    4.9364   20.5491   66.7291 C   0  0  0  0  0
    5.9891   20.6006   67.6386 C   0  0  0  0  0
    6.5030   21.8456   67.9921 C   0  0  0  0  0
    5.0631   25.4014   66.3013 C   0  0  0  0  0
    4.7630   26.4509   65.2299 C   0  0  0  0  0
   -0.6703   28.0643   64.5954 C   0  0  0  0  0
   -2.4939   28.4438   66.2208 C   0  0  0  0  0
   -2.8952   28.1430   64.9193 C   0  0  0  0  0
    1.3368   27.5247   61.4713 C   0  0  0  0  0
    1.5723   28.8787   61.1565 C   0  0  0  0  0
    1.2299   31.2676   61.6640 C   0  0  0  0  0
    2.8667   28.2429   59.2597 C   0  0  0  0  0
    2.6406   26.8940   59.5256 C   0  0  0  0  0
    1.8705   26.5394   60.6322 C   0  0  0  0  0
    0.5637   27.8630   63.8781 N   0  0  0  0  0
    3.3198   26.5544   65.0345 N   0  0  0  0  0
    4.4029   24.1260   65.9994 N   0  0  0  0  0
    4.4328   21.7001   66.2124 N   0  0  0  0  0
    5.9720   22.9739   67.4535 N   0  0  0  0  0
   -1.8879   27.9315   64.0289 N   0  0  0  0  0
    2.3326   29.1952   60.0689 N   0  0  0  0  0
    2.3379   23.2065   65.3300 O   0  0  0  0  0
    1.8491   29.3454   65.1691 O   0  0  0  0  0
   -0.1596   26.0646   62.5759 O   0  0  0  0  0
    1.0123   29.8920   61.9393 O   0  0  0  0  0
    6.5049   19.4641   68.1646 F   0  0  0  0  0
   -0.8098   28.4358   66.2279 S   0  0  0  0  0
  1 21  1  0  0  0
  1 15  1  0  0  0
  3  2  1  0  0  0
  3 22  1  0  0  0
  4 22  1  0  0  0
  4  5  1  0  0  0
  5 23  1  0  0  0
  6 25  1  0  0  0
  7 24  1  0  0  0
  8 32  1  0  0  0
  8  9  1  0  0  0
 10 23  1  0  0  0
 10 11  1  0  0  0
 11 22  1  0  0  0
 12 33  1  0  0  0
 13 33  1  0  0  0
 14 26  1  0  0  0
 16 31  1  0  0  0
 16 27  1  0  0  0
 17 31  1  0  0  0
 18 19  1  0  0  0
 20 15  1  0  0  0
 21  2  1  0  0  0
 21 12  1  0  0  0
 23  6  1  0  0  0
  1 30  2  0  0  0
  2 29  2  0  0  0
  5 28  2  0  0  0
  6 24  2  0  0  0
  7  8  2  0  0  0
  9 25  2  0  0  0
 12 26  2  0  0  0
 13 14  2  0  0  0
 15 16  2  0  0  0
 18 27  2  0  0  0
 19 20  2  0  0  0
M  END
> <rmsd>
0.606014311

$$$$
SJHGQZGGXSZYAX-UHFFFAOYSA-N


 28 30  0  0  0  0  0  0  0  0999 V2000
    2.8099   25.4408   64.0922 C   0  0  0  0  0
    0.7935   26.4792   62.9906 C   0  0  0  0  0
    0.9361   27.7492   63.7754 C   0  0  0  0  0
    2.0156   29.5985   62.7380 C   0  0  0  0  0
    1.8498   30.8270   61.8759 C   0  0  0  0  0
    2.5511   30.4862   60.5806 C   0  0  0  0  0
    2.9620   28.7512   61.9065 C   0  0  0  0  0
   -0.1621   29.7875   63.6729 C   0  0  0  0  0
   -1.4249   30.0166   62.9136 C   0  0  0  0  0
   -2.3036   28.9559   62.6609 C   0  0  0  0  0
   -3.4885   29.1815   61.9539 C   0  0  0  0  0
   -3.7985   30.4678   61.5015 C   0  0  0  0  0
   -2.9243   31.5287   61.7576 C   0  0  0  0  0
   -1.7392   31.3034   62.4645 C   0  0  0  0  0
    1.4015   24.1081   62.5155 C   0  0  0  0  0
    3.2049   24.3173   64.9690 C   0  0  0  0  0
    2.7115   22.2256   65.9663 C   0  0  0  0  0
    4.7659   23.2817   66.4773 C   0  0  0  0  0
    6.3862   22.2451   68.0143 C   0  0  0  0  0
    4.4297   24.3478   65.6441 C   0  0  0  0  0
    1.6569   25.3515   63.2328 N   0  0  0  0  0
    0.7279   28.9120   62.9171 N   0  0  0  0  0
    2.3708   23.2575   65.1512 N   0  0  0  0  0
    3.9008   22.2405   66.6219 N   0  0  0  0  0
    2.8109   29.1094   60.5610 O   0  0  0  0  0
   -0.1478   26.3818   62.1562 O   0  0  0  0  0
    3.5028   26.4949   64.0974 O   0  0  0  0  0
    5.9869   23.2998   67.1520 O   0  0  0  0  0
  1 21  1  0  0  0
  1 16  1  0  0  0
  3  2  1  0  0  0
  3 22  1  0  0  0
  4 22  1  0  0  0
  4  5  1  0  0  0
  5  6  1  0  0  0
  6 25  1  0  0  0
  7 25  1  0  0  0
  7  4  1  0  0  0
  8 22  1  0  0  0
  8  9  1  0  0  0
 10 11  1  0  0  0
 12 13  1  0  0  0
 14  9  1  0  0  0
 15 21  1  0  0  0
 17 23  1  0  0  0
 18 24  1  0  0  0
 18 28  1  0  0  0
 19 28  1  0  0  0
 20 16  1  0  0  0
 21  2  1  0  0  0
  1 27  2  0  0  0
  2 26  2  0  0  0
  9 10  2  0  0  0
 11 12  2  0  0  0
 13 14  2  0  0  0
 16 23  2  0  0  0
 17 24  2  0  0  0
 18 20  2  0  0  0
M  END
> <rmsd>
0.514449954

$$$$
IEVMTKSFJAXPIO-UHFFFAOYSA-N


 31 34  0  0  0  0  0  0  0  0999 V2000
    1.9229   27.9221   62.3785 C   0  0  0  0  0
    2.7822   25.5390   62.7237 C   0  0  0  0  0
    2.1333   24.2453   63.2295 C   0  0  0  0  0
    2.5482   24.0326   64.6744 C   0  0  0  0  0
    2.0912   22.4626   66.3891 C   0  0  0  0  0
    2.1737   20.9890   66.7901 C   0  0  0  0  0
    3.8655   20.5599   65.3426 C   0  0  0  0  0
    3.8625   21.9964   64.7960 C   0  0  0  0  0
    5.0246   22.8068   65.3273 C   0  0  0  0  0
    5.9724   23.3056   64.4286 C   0  0  0  0  0
    7.0424   24.0725   64.8937 C   0  0  0  0  0
    7.1503   24.3333   66.2620 C   0  0  0  0  0
    5.1706   23.0944   66.6922 C   0  0  0  0  0
    0.6150   24.4484   63.1688 C   0  0  0  0  0
    0.4793   25.8900   62.8856 C   0  0  0  0  0
    3.2689   28.5372   62.4598 C   0  0  0  0  0
    3.7475   29.3289   61.3928 C   0  0  0  0  0
    3.3679   30.2994   59.1424 C   0  0  0  0  0
    5.0261   29.9027   61.4749 C   0  0  0  0  0
    5.8236   29.7029   62.6005 C   0  0  0  0  0
    5.3493   28.9329   63.6609 C   0  0  0  0  0
    4.0729   28.3512   63.6075 C   0  0  0  0  0
    4.3454   27.3519   65.8614 C   0  0  0  0  0
    1.7246   26.5311   62.6820 N   0  0  0  0  0
    2.5302   22.6109   65.0000 N   0  0  0  0  0
    6.2203   23.8434   67.1261 N   0  0  0  0  0
    3.5072   20.5463   66.7054 O   0  0  0  0  0
   -0.6280   26.4891   62.8398 O   0  0  0  0  0
    0.9416   28.6334   62.0273 O   0  0  0  0  0
    2.9502   29.5213   60.2566 O   0  0  0  0  0
    3.5835   27.6073   64.6894 O   0  0  0  0  0
  1 24  1  0  0  0
  1 16  1  0  0  0
  2 24  1  0  0  0
  2  3  1  0  0  0
  3  4  1  0  0  0
  3 14  1  0  0  0
  4 25  1  0  0  0
  5 25  1  0  0  0
  5  6  1  0  0  0
  6 27  1  0  0  0
  7 27  1  0  0  0
  7  8  1  0  0  0
  8  9  1  0  0  0
  8 25  1  0  0  0
 10 11  1  0  0  0
 12 26  1  0  0  0
 13  9  1  0  0  0
 14 15  1  0  0  0
 15 24  1  0  0  0
 17 30  1  0  0  0
 17 19  1  0  0  0
 18 30  1  0  0  0
 20 21  1  0  0  0
 22 31  1  0  0  0
 22 16  1  0  0  0
 23 31  1  0  0  0
  1 29  2  0  0  0
  9 10  2  0  0  0
 11 12  2  0  0  0
 13 26  2  0  0  0
 15 28  2  0  0  0
 16 17  2  0  0  0
 19 20  2  0  0  0
 21 22  2  0  0  0
M  END
> <rmsd>
0.77298367

$$$$
RPZATVAIDVDRGA-UHFFFAOYSA-N


 31 34  0  0  0  0  0  0  0  0999 V2000
    2.4953   25.6329   65.3195 C   0  0  0  0  0
    0.1130   25.3164   64.6593 C   0  0  0  0  0
    0.4646   25.0087   63.2372 C   0  0  0  0  0
   -0.7684   26.3263   61.7506 C   0  0  0  0  0
   -1.1141   27.7832   61.4436 C   0  0  0  0  0
   -0.2098   28.4269   60.3868 C   0  0  0  0  0
   -0.1753   27.6362   59.0874 C   0  0  0  0  0
    2.3956   27.2826   61.3126 C   0  0  0  0  0
    1.5246   26.0403   61.4357 C   0  0  0  0  0
    0.7948   25.1728   67.0706 C   0  0  0  0  0
   -0.1073   24.5065   69.2721 C   0  0  0  0  0
    1.0821   25.2354   69.3002 C   0  0  0  0  0
    3.6099   24.7974   65.8253 C   0  0  0  0  0
    3.4646   23.4209   66.0957 C   0  0  0  0  0
    4.5678   22.6952   66.5927 C   0  0  0  0  0
    3.2564   20.7251   66.6352 C   0  0  0  0  0
    2.1664   21.4355   66.1286 C   0  0  0  0  0
    5.9266   24.6357   66.5212 C   0  0  0  0  0
    4.8604   25.3937   66.0322 C   0  0  0  0  0
    1.1289   25.3596   65.6807 N   0  0  0  0  0
    0.5032   26.2335   62.4546 N   0  0  0  0  0
    1.5789   25.5938   68.0850 N   0  0  0  0  0
    4.4338   21.3686   66.8542 N   0  0  0  0  0
    2.2947   22.7630   65.8671 N   0  0  0  0  0
    5.7599   23.3147   66.7935 N   0  0  0  0  0
    1.4378   28.7636   61.0046 S   0  0  0  0  0
   -0.5306   24.3212   67.6522 S   0  0  0  0  0
    2.1714   29.6062   59.9997 O   0  0  0  0  0
    1.3229   29.5333   62.2896 O   0  0  0  0  0
   -1.0914   25.5512   64.9462 O   0  0  0  0  0
    2.7529   26.6215   64.5797 O   0  0  0  0  0
  1 20  1  0  0  0
  1 13  1  0  0  0
  3  2  1  0  0  0
  3 21  1  0  0  0
  4 21  1  0  0  0
  4  5  1  0  0  0
  5  6  1  0  0  0
  6  7  1  0  0  0
  6 26  1  0  0  0
  8  9  1  0  0  0
  9 21  1  0  0  0
 10 27  1  0  0  0
 11 27  1  0  0  0
 12 22  1  0  0  0
 13 14  1  0  0  0
 14 15  1  0  0  0
 15 25  1  0  0  0
 16 23  1  0  0  0
 17 24  1  0  0  0
 18 19  1  0  0  0
 20  2  1  0  0  0
 20 10  1  0  0  0
 26  8  1  0  0  0
  1 31  2  0  0  0
  2 30  2  0  0  0
 10 22  2  0  0  0
 11 12  2  0  0  0
 14 24  2  0  0  0
 15 23  2  0  0  0
 16 17  2  0  0  0
 18 25  2  0  0  0
 19 13  2  0  0  0
 26 28  2  0  0  0
 26 29  2  0  0  0
M  END
> <rmsd>
0.747962654

$$$$
JPKZMICXJIVZIQ-UHFFFAOYSA-N


 35 38  0  0  0  0  0  0  0  0999 V2000
    2.8702   27.4661   64.4062 C   0  0  0  0  0
    0.9596   28.1450   62.9325 C   0  0  0  0  0
    0.0228   27.1875   63.5991 C   0  0  0  0  0
    0.8646   25.0014   63.2723 C   0  0  0  0  0
    0.3183   24.0852   64.3722 C   0  0  0  0  0
    1.3984   23.1338   64.8497 C   0  0  0  0  0
    3.5826   23.2382   65.9803 C   0  0  0  0  0
    4.8974   21.2893   66.2932 C   0  0  0  0  0
    5.8925   22.0578   66.8993 C   0  0  0  0  0
    4.5796   24.0040   66.5881 C   0  0  0  0  0
   -0.8804   23.2853   63.8578 C   0  0  0  0  0
   -1.6756   24.0352   62.7863 C   0  0  0  0  0
   -1.5233   25.5463   62.9535 C   0  0  0  0  0
    3.3150   28.7314   62.3130 C   0  0  0  0  0
    5.1520   29.7157   61.1240 C   0  0  0  0  0
    6.4183   30.3149   60.6267 C   0  0  0  0  0
    2.2771   27.7058   65.7412 C   0  0  0  0  0
    1.4494   28.9322   65.9588 C   0  0  0  0  0
    2.5344   26.8334   66.7273 C   0  0  0  0  0
    2.0253   26.8341   68.1117 C   0  0  0  0  0
    0.9732   27.6591   68.5376 C   0  0  0  0  0
    0.5090   27.5915   69.8537 C   0  0  0  0  0
    1.0886   26.6935   70.7532 C   0  0  0  0  0
    2.1303   25.8628   70.3345 C   0  0  0  0  0
    2.5927   25.9313   69.0175 C   0  0  0  0  0
    2.3736   28.1407   63.2318 N   0  0  0  0  0
   -0.1275   25.9843   62.7945 N   0  0  0  0  0
    3.7651   21.8948   65.8472 N   0  0  0  0  0
    5.7121   23.3981   67.0337 N   0  0  0  0  0
    4.0533   29.5466   60.3580 N   0  0  0  0  0
    3.0336   28.9995   61.0168 N   0  0  0  0  0
    2.4245   23.8584   65.5131 O   0  0  0  0  0
    0.4879   28.9478   62.0828 O   0  0  0  0  0
    3.8391   26.6647   64.2920 O   0  0  0  0  0
    4.8967   29.1821   62.6995 S   0  0  0  0  0
  1 26  1  0  0  0
  1 17  1  0  0  0
  3  2  1  0  0  0
  3 27  1  0  0  0
  4 27  1  0  0  0
  4  5  1  0  0  0
  5  6  1  0  0  0
  5 11  1  0  0  0
  6 32  1  0  0  0
  7 32  1  0  0  0
  8 28  1  0  0  0
  9 29  1  0  0  0
 10  7  1  0  0  0
 11 12  1  0  0  0
 12 13  1  0  0  0
 13 27  1  0  0  0
 14 35  1  0  0  0
 15 35  1  0  0  0
 16 15  1  0  0  0
 18 17  1  0  0  0
 19 20  1  0  0  0
 21 22  1  0  0  0
 23 24  1  0  0  0
 25 20  1  0  0  0
 26  2  1  0  0  0
 26 14  1  0  0  0
 30 31  1  0  0  0
  1 34  2  0  0  0
  2 33  2  0  0  0
  7 28  2  0  0  0
  8  9  2  0  0  0
 10 29  2  0  0  0
 14 31  2  0  0  0
 15 30  2  0  0  0
 17 19  2  0  0  0
 20 21  2  0  0  0
 22 23  2  0  0  0
 24 25  2  0  0  0
M  END
> <rmsd>
0.670288086

$$$$
YVYKOYRHPDWZEA-UHFFFAOYSA-N


 27 29  0  0  0  0  0  0  0  0999 V2000
    1.7437   27.9585   62.9111 C   0  0  0  0  0
    2.6351   25.8293   63.9112 C   0  0  0  0  0
    2.4953   24.3421   64.1794 C   0  0  0  0  0
    3.4873   24.1271   66.3301 C   0  0  0  0  0
    3.7732   22.8488   67.1147 C   0  0  0  0  0
    5.2251   21.8341   65.6181 C   0  0  0  0  0
    6.3465   21.9780   66.6501 C   0  0  0  0  0
    4.9521   23.0300   68.0853 C   0  0  0  0  0
    1.2532   24.8620   66.2090 C   0  0  0  0  0
    1.4799   23.6753   63.2493 C   0  0  0  0  0
    0.1699   24.4477   63.2391 C   0  0  0  0  0
    0.4230   25.8434   62.7713 C   0  0  0  0  0
    3.0701   28.5380   62.5391 C   0  0  0  0  0
    3.8962   27.4932   60.4176 C   0  0  0  0  0
    4.5758   26.3218   61.0388 C   0  0  0  0  0
    3.8319   27.7465   59.0601 C   0  0  0  0  0
    3.1046   28.9267   59.0137 C   0  0  0  0  0
    2.7380   29.6536   57.7698 C   0  0  0  0  0
    1.5993   26.5549   63.2095 N   0  0  0  0  0
    2.2433   23.9873   65.5876 N   0  0  0  0  0
    3.2574   28.4633   61.0971 N   0  0  0  0  0
    2.7625   29.3440   60.2474 N   0  0  0  0  0
    3.6589   26.4270   64.3401 O   0  0  0  0  0
    3.9707   21.7315   66.2632 O   0  0  0  0  0
    6.1600   23.1676   67.3755 O   0  0  0  0  0
   -0.3859   26.3706   61.9612 O   0  0  0  0  0
    0.7325   28.7101   62.8969 O   0  0  0  0  0
  1 19  1  0  0  0
  3  2  1  0  0  0
  3 20  1  0  0  0
  3 10  1  0  0  0
  4 20  1  0  0  0
  4  5  1  0  0  0
  5 24  1  0  0  0
  6 24  1  0  0  0
  6  7  1  0  0  0
  7 25  1  0  0  0
  8 25  1  0  0  0
  8  5  1  0  0  0
  9 20  1  0  0  0
 10 11  1  0  0  0
 11 12  1  0  0  0
 12 19  1  0  0  0
 13  1  1  0  0  0
 13 21  1  0  0  0
 15 14  1  0  0  0
 16 17  1  0  0  0
 18 17  1  0  0  0
 19  2  1  0  0  0
 21 14  1  0  0  0
 21 22  1  0  0  0
  1 27  2  0  0  0
  2 23  2  0  0  0
 12 26  2  0  0  0
 14 16  2  0  0  0
 17 22  2  0  0  0
M  END
> <rmsd>
0.554320216

$$$$
KNQCYPGVPSULEU-UHFFFAOYSA-N


 31 33  0  0  0  0  0  0  0  0999 V2000
    2.7981   25.4524   64.2919 C   0  0  0  0  0
    0.8142   26.4295   63.0634 C   0  0  0  0  0
    0.9975   27.7998   63.6696 C   0  0  0  0  0
    0.4656   29.0346   61.6777 C   0  0  0  0  0
    0.9706   30.0728   60.6771 C   0  0  0  0  0
    2.6790   30.6680   59.1965 C   0  0  0  0  0
    3.2156   29.4375   61.1099 C   0  0  0  0  0
    2.7428   28.3902   62.1157 C   0  0  0  0  0
    1.6501   24.1509   62.4768 C   0  0  0  0  0
    2.5768   24.2006   61.2621 C   0  0  0  0  0
    4.5166   25.0338   60.5510 C   0  0  0  0  0
    3.4766   25.8592   59.8294 C   0  0  0  0  0
    2.1714   25.2868   60.2914 C   0  0  0  0  0
    3.2157   24.2716   65.0791 C   0  0  0  0  0
    2.8283   22.0493   65.8034 C   0  0  0  0  0
    4.7356   23.1980   66.6023 C   0  0  0  0  0
    6.2910   22.1538   68.2162 C   0  0  0  0  0
    5.6818   22.2922   69.6039 C   0  0  0  0  0
    4.3761   24.3208   65.8587 C   0  0  0  0  0
    1.7566   25.3613   63.2953 N   0  0  0  0  0
    1.4744   28.8137   62.7184 N   0  0  0  0  0
    2.2102   29.6024   60.0628 N   0  0  0  0  0
    2.4648   23.1366   65.0751 N   0  0  0  0  0
    3.9565   22.0827   66.5586 N   0  0  0  0  0
   -0.1995   26.2231   62.3424 O   0  0  0  0  0
    3.9088   24.4094   61.6498 O   0  0  0  0  0
    3.3789   26.5533   64.4941 O   0  0  0  0  0
    5.8962   23.2345   67.3783 O   0  0  0  0  0
    4.3023   22.2413   69.5279 F   0  0  0  0  0
    6.1293   21.2554   70.3994 F   0  0  0  0  0
    6.0676   23.4947   70.1662 F   0  0  0  0  0
  1 20  1  0  0  0
  1 14  1  0  0  0
  3  2  1  0  0  0
  3 21  1  0  0  0
  4 21  1  0  0  0
  4  5  1  0  0  0
  5 22  1  0  0  0
  6 22  1  0  0  0
  7 22  1  0  0  0
  7  8  1  0  0  0
  8 21  1  0  0  0
  9 20  1  0  0  0
  9 10  1  0  0  0
 10 26  1  0  0  0
 11 26  1  0  0  0
 11 12  1  0  0  0
 12 13  1  0  0  0
 13 10  1  0  0  0
 15 23  1  0  0  0
 16 24  1  0  0  0
 16 28  1  0  0  0
 17 28  1  0  0  0
 17 18  1  0  0  0
 18 29  1  0  0  0
 18 30  1  0  0  0
 18 31  1  0  0  0
 19 14  1  0  0  0
 20  2  1  0  0  0
  1 27  2  0  0  0
  2 25  2  0  0  0
 14 23  2  0  0  0
 15 24  2  0  0  0
 16 19  2  0  0  0
M  END
> <rmsd>
0.593945146

$$$$
OPWMZOLGYAWBLI-UHFFFAOYSA-N


 35 38  0  0  0  0  0  0  0  0999 V2000
    2.9570   25.5887   64.1829 C   0  0  0  0  0
    1.0386   26.6254   62.9225 C   0  0  0  0  0
    0.9705   27.7910   63.8631 C   0  0  0  0  0
    2.5072   29.3562   63.0301 C   0  0  0  0  0
    2.7684   30.2617   61.8657 C   0  0  0  0  0
    2.5208   29.8616   60.5400 C   0  0  0  0  0
    2.5171   30.2682   58.1324 C   0  0  0  0  0
    3.2983   31.9662   59.7293 C   0  0  0  0  0
    3.5587   32.3883   61.0533 C   0  0  0  0  0
    4.0812   33.6602   61.3022 C   0  0  0  0  0
    4.3502   34.5260   60.2397 C   0  0  0  0  0
    4.0976   34.1225   58.9263 C   0  0  0  0  0
    3.5754   32.8515   58.6715 C   0  0  0  0  0
    3.2920   31.5277   62.1116 C   0  0  0  0  0
    0.4912   30.0648   63.9867 C   0  0  0  0  0
    1.9018   24.3762   62.2498 C   0  0  0  0  0
    3.0008   24.4048   61.1866 C   0  0  0  0  0
    5.1033   25.1070   60.9122 C   0  0  0  0  0
    4.2727   26.1759   60.2478 C   0  0  0  0  0
    2.8832   25.6199   60.2907 C   0  0  0  0  0
    3.3053   24.3861   64.9691 C   0  0  0  0  0
    2.8439   22.1521   65.6083 C   0  0  0  0  0
    4.7064   23.2551   66.5629 C   0  0  0  0  0
    6.1621   22.1225   68.1941 C   0  0  0  0  0
    4.4105   24.4011   65.8261 C   0  0  0  0  0
    1.9634   25.5400   63.1383 N   0  0  0  0  0
    1.0866   29.0473   63.1370 N   0  0  0  0  0
    2.7864   30.7135   59.4991 N   0  0  0  0  0
    2.5438   23.2616   64.8842 N   0  0  0  0  0
    3.9181   22.1522   66.4393 N   0  0  0  0  0
    2.0507   28.7118   60.3138 O   0  0  0  0  0
    0.2264   26.5792   61.9587 O   0  0  0  0  0
    4.2744   24.3807   61.7787 O   0  0  0  0  0
    3.5560   26.6727   64.4221 O   0  0  0  0  0
    5.8089   23.2575   67.4179 O   0  0  0  0  0
  1 26  1  0  0  0
  1 21  1  0  0  0
  3  2  1  0  0  0
  3 27  1  0  0  0
  4 27  1  0  0  0
  4  5  1  0  0  0
  5  6  1  0  0  0
  6 28  1  0  0  0
  7 28  1  0  0  0
  9 10  1  0  0  0
  9 14  1  0  0  0
 11 12  1  0  0  0
 13  8  1  0  0  0
 15 27  1  0  0  0
 16 26  1  0  0  0
 16 17  1  0  0  0
 17 33  1  0  0  0
 18 33  1  0  0  0
 18 19  1  0  0  0
 19 20  1  0  0  0
 20 17  1  0  0  0
 22 29  1  0  0  0
 23 30  1  0  0  0
 23 35  1  0  0  0
 24 35  1  0  0  0
 25 21  1  0  0  0
 26  2  1  0  0  0
 28  8  1  0  0  0
  1 34  2  0  0  0
  2 32  2  0  0  0
  6 31  2  0  0  0
  8  9  2  0  0  0
 10 11  2  0  0  0
 12 13  2  0  0  0
 14  5  2  0  0  0
 21 29  2  0  0  0
 22 30  2  0  0  0
 23 25  2  0  0  0
M  END
> <rmsd>
0.593256891

$$$$
CPAJJCJPRZFCIE-UHFFFAOYSA-N


 30 32  0  0  0  0  0  0  0  0999 V2000
    2.7128   25.5443   64.4064 C   0  0  0  0  0
    0.7616   26.5351   63.1258 C   0  0  0  0  0
    0.9601   27.9249   63.6779 C   0  0  0  0  0
    2.7746   28.3527   62.1504 C   0  0  0  0  0
    3.2625   29.2581   61.0155 C   0  0  0  0  0
    4.5407   28.7300   60.4573 C   0  0  0  0  0
    6.8743   28.3383   59.7196 C   0  0  0  0  0
    6.0305   27.2787   59.4156 C   0  0  0  0  0
    4.7105   27.4985   59.8322 C   0  0  0  0  0
    1.1720   29.9823   60.5470 C   0  0  0  0  0
    0.5421   29.1094   61.6338 C   0  0  0  0  0
    1.7101   24.3367   62.4532 C   0  0  0  0  0
    2.6768   24.5938   61.3114 C   0  0  0  0  0
    3.6356   23.8194   59.4845 C   0  0  0  0  0
    3.1918   24.3258   65.0959 C   0  0  0  0  0
    2.9362   22.0276   65.6127 C   0  0  0  0  0
    4.7508   23.2179   66.5541 C   0  0  0  0  0
    6.3656   22.1119   68.0486 C   0  0  0  0  0
    4.3317   24.3783   65.9055 C   0  0  0  0  0
    1.7103   25.4749   63.3677 N   0  0  0  0  0
    1.5177   28.8728   62.7031 N   0  0  0  0  0
    2.5164   23.1507   64.9741 N   0  0  0  0  0
    4.0457   22.0645   66.3948 N   0  0  0  0  0
    6.0060   29.5470   60.4968 S   0  0  0  0  0
    8.7355   28.4176   59.3194 Br  0  0  0  0  0
    2.2893   29.3260   60.0006 O   0  0  0  0  0
   -0.2539   26.3134   62.4120 O   0  0  0  0  0
    2.6848   23.4973   60.4517 O   0  0  0  0  0
    3.2039   26.6586   64.7353 O   0  0  0  0  0
    5.8897   23.2579   67.3589 O   0  0  0  0  0
  1 20  1  0  0  0
  1 15  1  0  0  0
  3  2  1  0  0  0
  3 21  1  0  0  0
  4 21  1  0  0  0
  4  5  1  0  0  0
  5  6  1  0  0  0
  5 26  1  0  0  0
  6 24  1  0  0  0
  7 24  1  0  0  0
  7 25  1  0  0  0
  8  9  1  0  0  0
 10 26  1  0  0  0
 10 11  1  0  0  0
 11 21  1  0  0  0
 12 20  1  0  0  0
 12 13  1  0  0  0
 13 28  1  0  0  0
 14 28  1  0  0  0
 16 22  1  0  0  0
 17 23  1  0  0  0
 17 30  1  0  0  0
 18 30  1  0  0  0
 19 15  1  0  0  0
 20  2  1  0  0  0
  1 29  2  0  0  0
  2 27  2  0  0  0
  7  8  2  0  0  0
  9  6  2  0  0  0
 15 22  2  0  0  0
 16 23  2  0  0  0
 17 19  2  0  0  0
M  END
> <rmsd>
0.56395632

$$$$
HVVYYRKUKYCCLG-UHFFFAOYSA-N


 29 31  0  0  0  0  0  0  0  0999 V2000
    3.0963   25.9334   64.9242 C   0  0  0  0  0
    0.8095   25.9208   63.9233 C   0  0  0  0  0
   -0.1155   25.6077   62.7890 C   0  0  0  0  0
    0.7204   27.1307   61.0738 C   0  0  0  0  0
    1.6140   28.1754   61.7281 C   0  0  0  0  0
    3.8227   28.0973   61.8236 C   0  0  0  0  0
    0.9683   29.7038   63.1923 C   0  0  0  0  0
   -1.5454   26.5030   61.1126 C   0  0  0  0  0
    0.3144   24.3403   62.0336 C   0  0  0  0  0
    1.7828   24.3585   61.6191 C   0  0  0  0  0
    2.6962   24.8141   62.7185 C   0  0  0  0  0
    4.1199   24.9986   65.4521 C   0  0  0  0  0
    3.7811   23.6617   65.7451 C   0  0  0  0  0
    4.7684   22.7892   66.2459 C   0  0  0  0  0
    3.1759   21.0417   66.3518 C   0  0  0  0  0
    2.1924   21.9040   65.8637 C   0  0  0  0  0
    6.3883   24.5148   66.1694 C   0  0  0  0  0
    5.4484   25.4224   65.6739 C   0  0  0  0  0
    2.1984   25.5373   63.8669 N   0  0  0  0  0
   -0.3946   26.7907   61.9540 N   0  0  0  0  0
    4.4416   21.5023   66.5339 N   0  0  0  0  0
    2.5142   23.1922   65.5740 N   0  0  0  0  0
    6.0352   23.2326   66.4448 N   0  0  0  0  0
    0.3496   26.5258   64.9290 O   0  0  0  0  0
    2.7617   28.3540   60.9539 O   0  0  0  0  0
    0.9277   29.3877   61.8334 O   0  0  0  0  0
    3.9314   24.6046   62.5840 O   0  0  0  0  0
    2.9956   27.0856   65.4271 O   0  0  0  0  0
    6.0633   27.1878   65.2521 Br  0  0  0  0  0
  1 19  1  0  0  0
  1 12  1  0  0  0
  3  2  1  0  0  0
  3 20  1  0  0  0
  3  9  1  0  0  0
  4 20  1  0  0  0
  4  5  1  0  0  0
  5 25  1  0  0  0
  5 26  1  0  0  0
  6 25  1  0  0  0
  7 26  1  0  0  0
  8 20  1  0  0  0
  9 10  1  0  0  0
 10 11  1  0  0  0
 11 19  1  0  0  0
 12 13  1  0  0  0
 13 14  1  0  0  0
 14 23  1  0  0  0
 15 21  1  0  0  0
 16 22  1  0  0  0
 17 18  1  0  0  0
 18 29  1  0  0  0
 19  2  1  0  0  0
  1 28  2  0  0  0
  2 24  2  0  0  0
 11 27  2  0  0  0
 13 22  2  0  0  0
 14 21  2  0  0  0
 15 16  2  0  0  0
 17 23  2  0  0  0
 18 12  2  0  0  0
M  END
> <rmsd>
0.641378462

$$$$
JBMPOJHKMJOUKK-UHFFFAOYSA-N


 35 38  0  0  0  0  0  0  0  0999 V2000
    3.0535   29.0049   62.1464 C   0  0  0  0  0
    0.8018   28.2211   62.8749 C   0  0  0  0  0
    0.0207   27.0759   63.4295 C   0  0  0  0  0
    1.0632   24.9268   63.1639 C   0  0  0  0  0
    0.4933   24.3145   64.4525 C   0  0  0  0  0
    1.4273   23.2484   64.9965 C   0  0  0  0  0
    3.6626   23.0570   65.9944 C   0  0  0  0  0
    4.4452   20.9822   66.8378 C   0  0  0  0  0
    5.6168   21.6018   67.2798 C   0  0  0  0  0
    4.8401   23.6714   66.4276 C   0  0  0  0  0
   -0.8627   23.6847   64.1651 C   0  0  0  0  0
   -1.7970   24.7260   63.5692 C   0  0  0  0  0
   -1.1700   25.3251   62.3041 C   0  0  0  0  0
    2.8084   27.7966   64.3105 C   0  0  0  0  0
    3.4471   27.0353   66.4921 C   0  0  0  0  0
    3.5988   26.6489   67.9183 C   0  0  0  0  0
    4.2716   29.7731   62.5624 C   0  0  0  0  0
    3.8980   31.0134   63.3190 C   0  0  0  0  0
    3.1312   32.0006   62.6844 C   0  0  0  0  0
    2.7759   33.1670   63.3656 C   0  0  0  0  0
    3.1882   33.3573   64.6863 C   0  0  0  0  0
    2.8139   34.5984   65.4086 C   0  0  0  0  0
    3.9634   32.3856   65.3233 C   0  0  0  0  0
    4.3243   31.2157   64.6471 C   0  0  0  0  0
    5.1777   30.2207   65.3532 C   0  0  0  0  0
    2.2176   28.3459   63.1174 N   0  0  0  0  0
    0.1547   25.9131   62.5575 N   0  0  0  0  0
    3.4950   21.7220   66.2065 N   0  0  0  0  0
    5.7887   22.9318   67.0625 N   0  0  0  0  0
    4.4180   26.8714   65.5671 N   0  0  0  0  0
    4.0649   27.2961   64.3546 N   0  0  0  0  0
    2.6712   23.8172   65.3723 O   0  0  0  0  0
    0.2031   29.0584   62.1455 O   0  0  0  0  0
    2.7542   28.9662   60.9229 O   0  0  0  0  0
    2.0684   27.7379   65.8290 S   0  0  0  0  0
  1 26  1  0  0  0
  3  2  1  0  0  0
  3 27  1  0  0  0
  4 27  1  0  0  0
  4  5  1  0  0  0
  5  6  1  0  0  0
  5 11  1  0  0  0
  6 32  1  0  0  0
  7 32  1  0  0  0
  8 28  1  0  0  0
  9 29  1  0  0  0
 10  7  1  0  0  0
 11 12  1  0  0  0
 12 13  1  0  0  0
 13 27  1  0  0  0
 14 35  1  0  0  0
 15 35  1  0  0  0
 16 15  1  0  0  0
 17  1  1  0  0  0
 17 18  1  0  0  0
 19 20  1  0  0  0
 21 23  1  0  0  0
 22 21  1  0  0  0
 24 18  1  0  0  0
 25 24  1  0  0  0
 26  2  1  0  0  0
 26 14  1  0  0  0
 30 31  1  0  0  0
  1 34  2  0  0  0
  2 33  2  0  0  0
  7 28  2  0  0  0
  8  9  2  0  0  0
 10 29  2  0  0  0
 14 31  2  0  0  0
 15 30  2  0  0  0
 18 19  2  0  0  0
 20 21  2  0  0  0
 23 24  2  0  0  0
M  END
> <rmsd>
0.655968249

$$$$
KZRMESIOBNZSJU-UHFFFAOYSA-N


 31 33  0  0  0  0  0  0  0  0999 V2000
    2.9089   27.2039   63.6405 C   0  0  0  0  0
    0.9407   26.6959   65.0506 C   0  0  0  0  0
    0.6219   25.3262   65.6022 C   0  0  0  0  0
    2.4168   23.6871   65.9669 C   0  0  0  0  0
    3.6342   23.2877   66.7291 C   0  0  0  0  0
    4.8061   21.5853   67.6757 C   0  0  0  0  0
    6.0652   22.0328   66.9183 C   0  0  0  0  0
    4.8927   23.7337   65.9707 C   0  0  0  0  0
   -0.5774   25.5237   66.5040 C   0  0  0  0  0
   -1.2619   26.8078   66.0452 C   0  0  0  0  0
   -0.3793   27.4326   64.9768 C   0  0  0  0  0
    1.0246   25.8525   62.6590 C   0  0  0  0  0
    1.8805   25.1543   61.6356 C   0  0  0  0  0
    3.2854   28.0531   62.4886 C   0  0  0  0  0
    2.3492   28.8533   61.8004 C   0  0  0  0  0
    0.0427   29.6949   61.5599 C   0  0  0  0  0
    4.0516   29.6218   60.3202 C   0  0  0  0  0
    5.0106   28.8599   60.9851 C   0  0  0  0  0
    4.6222   28.0783   62.0718 C   0  0  0  0  0
    1.6033   26.6129   63.7462 N   0  0  0  0  0
    2.7579   29.6038   60.7373 N   0  0  0  0  0
    1.7267   24.8378   66.3475 O   0  0  0  0  0
    2.0525   23.0206   64.9587 O   0  0  0  0  0
    3.6576   21.8907   66.9179 O   0  0  0  0  0
    6.0385   23.4289   66.7311 O   0  0  0  0  0
   -0.2291   25.7559   62.5642 O   0  0  0  0  0
    3.7540   26.9982   64.5545 O   0  0  0  0  0
    1.0146   28.8906   62.2122 O   0  0  0  0  0
    1.2087   24.0511   61.1356 F   0  0  0  0  0
    3.0638   24.7237   62.2082 F   0  0  0  0  0
    2.1600   26.0164   60.5924 F   0  0  0  0  0
  1 20  1  0  0  0
  1 14  1  0  0  0
  2 20  1  0  0  0
  2  3  1  0  0  0
  3 22  1  0  0  0
  3  9  1  0  0  0
  4 22  1  0  0  0
  5  4  1  0  0  0
  5 24  1  0  0  0
  6 24  1  0  0  0
  6  7  1  0  0  0
  7 25  1  0  0  0
  8 25  1  0  0  0
  8  5  1  0  0  0
  9 10  1  0  0  0
 10 11  1  0  0  0
 11  2  1  0  0  0
 13 12  1  0  0  0
 13 29  1  0  0  0
 13 30  1  0  0  0
 13 31  1  0  0  0
 15 28  1  0  0  0
 15 21  1  0  0  0
 16 28  1  0  0  0
 17 18  1  0  0  0
 19 14  1  0  0  0
 20 12  1  0  0  0
  1 27  2  0  0  0
  4 23  2  0  0  0
 12 26  2  0  0  0
 14 15  2  0  0  0
 17 21  2  0  0  0
 18 19  2  0  0  0
M  END
> <rmsd>
0.634226203

$$$$
JLFFWQNEINWPEE-UHFFFAOYSA-N


 34 37  0  0  0  0  0  0  0  0999 V2000
    0.3707   27.4253   62.8471 C   0  0  0  0  0
    1.2397   28.2884   65.0402 C   0  0  0  0  0
    2.6648   27.9267   64.7660 C   0  0  0  0  0
    2.7085   25.5822   64.5784 C   0  0  0  0  0
    3.1251   24.2940   65.2162 C   0  0  0  0  0
    4.8914   23.0390   66.5328 C   0  0  0  0  0
    4.9385   20.6682   66.5984 C   0  0  0  0  0
    6.0599   20.7038   67.4234 C   0  0  0  0  0
    6.5800   21.9436   67.7877 C   0  0  0  0  0
    4.8229   25.5354   66.5882 C   0  0  0  0  0
    4.4409   26.7183   65.6973 C   0  0  0  0  0
   -1.0581   27.3275   64.8986 C   0  0  0  0  0
   -0.9011   25.9632   65.4950 C   0  0  0  0  0
   -0.2465   25.7979   66.7239 C   0  0  0  0  0
   -0.0777   24.5177   67.2636 C   0  0  0  0  0
   -0.5606   23.4002   66.5748 C   0  0  0  0  0
   -1.2119   23.5634   65.3468 C   0  0  0  0  0
   -1.3806   24.8431   64.8066 C   0  0  0  0  0
    1.0986   28.3405   61.9471 C   0  0  0  0  0
    1.4985   27.9222   60.6733 C   0  0  0  0  0
    2.4405   30.0511   60.2576 C   0  0  0  0  0
    3.1682   30.9732   59.3521 C   0  0  0  0  0
    2.0367   30.4782   61.5224 C   0  0  0  0  0
    0.1764   27.7426   64.2369 N   0  0  0  0  0
    3.0006   26.7008   65.4712 N   0  0  0  0  0
    4.2936   24.2676   66.0667 N   0  0  0  0  0
    4.3790   21.8290   66.1684 N   0  0  0  0  0
    5.9902   23.0817   67.3394 N   0  0  0  0  0
    2.1613   28.7843   59.8585 N   0  0  0  0  0
    1.3758   29.6143   62.3367 N   0  0  0  0  0
    2.4549   23.2540   64.9834 O   0  0  0  0  0
    0.9723   28.9951   66.0510 O   0  0  0  0  0
   -0.1032   26.3554   62.3837 O   0  0  0  0  0
    6.6342   19.5568   67.8561 F   0  0  0  0  0
  1 24  1  0  0  0
  1 19  1  0  0  0
  3  2  1  0  0  0
  3 25  1  0  0  0
  4 25  1  0  0  0
  4  5  1  0  0  0
  5 26  1  0  0  0
  6 28  1  0  0  0
  7 27  1  0  0  0
  8 34  1  0  0  0
  8  9  1  0  0  0
 10 26  1  0  0  0
 10 11  1  0  0  0
 11 25  1  0  0  0
 12 24  1  0  0  0
 12 13  1  0  0  0
 14 15  1  0  0  0
 16 17  1  0  0  0
 18 13  1  0  0  0
 19 30  1  0  0  0
 20 29  1  0  0  0
 21 23  1  0  0  0
 22 21  1  0  0  0
 24  2  1  0  0  0
 26  6  1  0  0  0
  1 33  2  0  0  0
  2 32  2  0  0  0
  5 31  2  0  0  0
  6 27  2  0  0  0
  7  8  2  0  0  0
  9 28  2  0  0  0
 13 14  2  0  0  0
 15 16  2  0  0  0
 17 18  2  0  0  0
 19 20  2  0  0  0
 21 29  2  0  0  0
 23 30  2  0  0  0
M  END
> <rmsd>
0.650140762

$$$$
LTGSVVRLQBNHDC-UHFFFAOYSA-N


 32 34  0  0  0  0  0  0  0  0999 V2000
    2.4966   28.8628   60.7547 C   0  0  0  0  0
    0.2981   28.2232   61.7756 C   0  0  0  0  0
   -0.6322   27.0989   62.0914 C   0  0  0  0  0
    0.1742   25.2152   61.1839 C   0  0  0  0  0
    0.2953   23.7361   61.5187 C   0  0  0  0  0
    1.3922   23.0061   63.6038 C   0  0  0  0  0
    2.6144   22.9107   64.4125 C   0  0  0  0  0
    4.8730   22.7457   65.9848 C   0  0  0  0  0
    5.9567   22.1666   68.1179 C   0  0  0  0  0
    4.9830   23.2401   64.6868 C   0  0  0  0  0
    3.8427   23.3237   63.8921 C   0  0  0  0  0
    1.3642   25.6476   60.3224 C   0  0  0  0  0
    1.1464   27.0375   59.7330 C   0  0  0  0  0
    3.3202   29.0149   61.9730 C   0  0  0  0  0
    3.1227   28.1725   63.0749 C   0  0  0  0  0
    3.9175   28.2895   64.2258 C   0  0  0  0  0
    2.7154   26.4478   65.3626 C   0  0  0  0  0
    4.9291   29.2606   64.2716 C   0  0  0  0  0
    6.7598   30.3301   65.5499 C   0  0  0  0  0
    5.1334   30.1003   63.1646 C   0  0  0  0  0
    4.3373   29.9757   62.0242 C   0  0  0  0  0
    1.3046   28.0630   60.7605 N   0  0  0  0  0
    2.5604   22.4352   65.6863 N   0  0  0  0  0
    3.6536   22.3542   66.4477 N   0  0  0  0  0
    0.2049   29.3014   62.4207 O   0  0  0  0  0
    0.1215   25.9545   62.3759 O   0  0  0  0  0
    1.4604   23.5057   62.3017 O   0  0  0  0  0
    0.2850   22.6527   64.0946 O   0  0  0  0  0
    6.0106   22.6597   66.7877 O   0  0  0  0  0
    2.8691   29.4061   59.6791 O   0  0  0  0  0
    3.7207   27.4520   65.3292 O   0  0  0  0  0
    5.7171   29.3729   65.4223 O   0  0  0  0  0
  1 22  1  0  0  0
  1 14  1  0  0  0
  3  2  1  0  0  0
  3 26  1  0  0  0
  4 26  1  0  0  0
  4  5  1  0  0  0
  4 12  1  0  0  0
  5 27  1  0  0  0
  6 27  1  0  0  0
  6  7  1  0  0  0
  8 29  1  0  0  0
  8 10  1  0  0  0
  9 29  1  0  0  0
 11  7  1  0  0  0
 12 13  1  0  0  0
 13 22  1  0  0  0
 15 16  1  0  0  0
 16 31  1  0  0  0
 17 31  1  0  0  0
 18 32  1  0  0  0
 18 20  1  0  0  0
 19 32  1  0  0  0
 21 14  1  0  0  0
 22  2  1  0  0  0
 23 24  1  0  0  0
  1 30  2  0  0  0
  2 25  2  0  0  0
  6 28  2  0  0  0
  7 23  2  0  0  0
  8 24  2  0  0  0
 10 11  2  0  0  0
 14 15  2  0  0  0
 16 18  2  0  0  0
 20 21  2  0  0  0
M  END
> <rmsd>
0.805868447

$$$$
UXTZCPAIJMXWEZ-UHFFFAOYSA-N


 28 31  0  0  0  0  0  0  0  0999 V2000
    3.2784   25.5643   64.5895 C   0  0  0  0  0
    1.0609   25.6579   63.4224 C   0  0  0  0  0
    0.0929   25.1135   62.4007 C   0  0  0  0  0
    0.0953   26.6446   60.4597 C   0  0  0  0  0
   -0.6659   27.8013   59.7868 C   0  0  0  0  0
   -0.3304   29.1027   60.4986 C   0  0  0  0  0
    1.5024   27.1601   60.7741 C   0  0  0  0  0
   -1.9106   25.6616   61.3064 C   0  0  0  0  0
    0.6968   24.0405   61.4780 C   0  0  0  0  0
    1.6046   23.1113   62.2618 C   0  0  0  0  0
    2.7801   23.9177   62.7918 C   0  0  0  0  0
    4.1751   24.6948   65.3856 C   0  0  0  0  0
    3.7657   23.4442   65.8914 C   0  0  0  0  0
    4.6791   22.6699   66.6377 C   0  0  0  0  0
    3.0295   20.9980   66.9268 C   0  0  0  0  0
    2.1171   21.7678   66.2023 C   0  0  0  0  0
    6.3426   24.3430   66.4124 C   0  0  0  0  0
    5.4724   25.1420   65.6675 C   0  0  0  0  0
    2.3306   25.0108   63.6588 N   0  0  0  0  0
   -0.6063   26.1961   61.6817 N   0  0  0  0  0
    4.2891   21.4657   67.1311 N   0  0  0  0  0
    2.5023   22.9725   65.7048 N   0  0  0  0  0
    5.9342   23.1322   66.8752 N   0  0  0  0  0
    0.7032   26.6338   64.1368 O   0  0  0  0  0
    1.4555   29.2257   62.5219 O   0  0  0  0  0
    2.2958   29.6882   60.2400 O   0  0  0  0  0
    3.3798   26.8165   64.7057 O   0  0  0  0  0
    1.3244   28.8913   61.0634 S   0  0  0  0  0
  1 19  1  0  0  0
  1 12  1  0  0  0
  3  2  1  0  0  0
  3 20  1  0  0  0
  3  9  1  0  0  0
  4 20  1  0  0  0
  4  5  1  0  0  0
  5  6  1  0  0  0
  6 28  1  0  0  0
  7  4  1  0  0  0
  8 20  1  0  0  0
  9 10  1  0  0  0
 10 11  1  0  0  0
 11 19  1  0  0  0
 12 13  1  0  0  0
 13 14  1  0  0  0
 14 23  1  0  0  0
 15 21  1  0  0  0
 16 22  1  0  0  0
 17 18  1  0  0  0
 19  2  1  0  0  0
 28  7  1  0  0  0
  1 27  2  0  0  0
  2 24  2  0  0  0
 13 22  2  0  0  0
 14 21  2  0  0  0
 15 16  2  0  0  0
 17 23  2  0  0  0
 18 12  2  0  0  0
 28 25  2  0  0  0
 28 26  2  0  0  0
M  END
> <rmsd>
0.590967417

$$$$
PTVJYQZRHGQPKP-UHFFFAOYSA-N


 34 37  0  0  0  0  0  0  0  0999 V2000
    5.3282   23.5918   66.5992 C   0  0  0  0  0
    3.4125   24.6044   65.2838 C   0  0  0  0  0
    2.9661   25.7552   64.4398 C   0  0  0  0  0
    4.7131   27.0828   64.0379 C   0  0  0  0  0
    5.0219   28.5587   63.8718 C   0  0  0  0  0
    4.0517   29.8246   61.9962 C   0  0  0  0  0
    2.8411   30.3863   61.3339 C   0  0  0  0  0
    1.3010   28.4504   61.3082 C   0  0  0  0  0
    0.2405   27.6820   63.2843 C   0  0  0  0  0
   -0.3444   26.6381   62.5663 C   0  0  0  0  0
    0.7121   27.4071   60.5907 C   0  0  0  0  0
    5.9263   26.3775   64.6343 C   0  0  0  0  0
    5.7805   24.8650   64.5037 C   0  0  0  0  0
    4.4460   23.1715   67.7330 C   0  0  0  0  0
    4.2412   21.6930   67.7161 C   0  0  0  0  0
    5.0059   20.7471   68.3558 C   0  0  0  0  0
    6.1104   20.8320   69.1990 C   0  0  0  0  0
    6.6480   19.6205   69.6747 C   0  0  0  0  0
    7.8263   19.6425   70.5796 C   0  0  0  0  0
    6.0753   18.3830   69.2980 C   0  0  0  0  0
    4.9594   18.3380   68.4399 C   0  0  0  0  0
    4.4547   19.5541   67.9887 C   0  0  0  0  0
    4.8194   24.3405   65.4758 N   0  0  0  0  0
    1.0488   28.5651   62.6419 N   0  0  0  0  0
   -0.0963   26.5240   61.2348 N   0  0  0  0  0
    3.2869   21.0583   66.9948 N   0  0  0  0  0
    2.5375   23.8625   65.8027 O   0  0  0  0  0
    3.5999   26.9250   64.8746 O   0  0  0  0  0
    3.9276   29.2056   63.2396 O   0  0  0  0  0
    5.1640   29.8740   61.4058 O   0  0  0  0  0
    2.1355   29.3573   60.6496 O   0  0  0  0  0
    6.5531   23.2957   66.6533 O   0  0  0  0  0
    3.4420   19.7736   67.1863 O   0  0  0  0  0
   -0.0589   27.8504   65.0003 Cl  0  0  0  0  0
  1 23  1  0  0  0
  3  2  1  0  0  0
  3 28  1  0  0  0
  4 28  1  0  0  0
  4  5  1  0  0  0
  4 12  1  0  0  0
  5 29  1  0  0  0
  6 29  1  0  0  0
  7  6  1  0  0  0
  7 31  1  0  0  0
  8 31  1  0  0  0
  9 24  1  0  0  0
  9 34  1  0  0  0
 10 25  1  0  0  0
 11  8  1  0  0  0
 12 13  1  0  0  0
 13 23  1  0  0  0
 14  1  1  0  0  0
 14 15  1  0  0  0
 15 16  1  0  0  0
 17 18  1  0  0  0
 19 18  1  0  0  0
 20 21  1  0  0  0
 22 33  1  0  0  0
 22 16  1  0  0  0
 23  2  1  0  0  0
 33 26  1  0  0  0
  1 32  2  0  0  0
  2 27  2  0  0  0
  6 30  2  0  0  0
  8 24  2  0  0  0
  9 10  2  0  0  0
 11 25  2  0  0  0
 15 26  2  0  0  0
 16 17  2  0  0  0
 18 20  2  0  0  0
 21 22  2  0  0  0
M  END
> <rmsd>
0.695839643

$$$$
LACVNCGAKCEAJU-UHFFFAOYSA-N


 34 36  0  0  0  0  0  0  0  0999 V2000
    2.3139   25.2640   63.0295 C   0  0  0  0  0
    0.5061   26.9820   62.9154 C   0  0  0  0  0
    0.0340   28.3822   63.1924 C   0  0  0  0  0
    0.3283   29.0832   60.9207 C   0  0  0  0  0
    1.4748   28.3882   60.1998 C   0  0  0  0  0
    2.9574   29.4139   58.7203 C   0  0  0  0  0
    3.7368   28.5537   60.7396 C   0  0  0  0  0
    0.1343   30.6776   62.5856 C   0  0  0  0  0
    0.3268   28.6761   64.6688 C   0  0  0  0  0
    1.8211   28.5877   64.9828 C   0  0  0  0  0
    2.4546   27.3495   64.4158 C   0  0  0  0  0
    2.9436   24.3201   63.9830 C   0  0  0  0  0
    2.3268   24.0798   65.3315 C   0  0  0  0  0
    0.9902   24.6572   65.6550 C   0  0  0  0  0
    6.0115   22.1572   63.8174 C   0  0  0  0  0
    5.6553   21.1443   62.7828 C   0  0  0  0  0
    5.6243   21.5057   61.4314 C   0  0  0  0  0
    5.2656   20.5636   60.4630 C   0  0  0  0  0
    4.9315   19.2608   60.8454 C   0  0  0  0  0
    4.9542   18.9004   62.1965 C   0  0  0  0  0
    5.3127   19.8426   63.1652 C   0  0  0  0  0
    4.0590   23.7005   63.5629 C   0  0  0  0  0
    1.7502   26.5145   63.4710 N   0  0  0  0  0
    0.6913   29.3606   62.3074 N   0  0  0  0  0
    2.6298   29.2669   60.1272 N   0  0  0  0  0
    2.8812   23.3367   66.2409 N   0  0  0  0  0
    4.8109   22.7792   64.3546 N   0  0  0  0  0
   -0.2001   26.2279   62.1930 O   0  0  0  0  0
    3.6386   27.0771   64.7491 O   0  0  0  0  0
    2.2915   24.9754   61.8009 O   0  0  0  0  0
    5.4353   23.1489   66.8957 O   0  0  0  0  0
    4.2389   21.0749   66.2870 O   0  0  0  0  0
    4.3899   22.5426   66.0030 S   0  0  0  0  0
    4.5893   18.3467   59.9068 F   0  0  0  0  0
  1 23  1  0  0  0
  1 12  1  0  0  0
  3  2  1  0  0  0
  3 24  1  0  0  0
  3  9  1  0  0  0
  4 24  1  0  0  0
  4  5  1  0  0  0
  5 25  1  0  0  0
  6 25  1  0  0  0
  7 25  1  0  0  0
  8 24  1  0  0  0
  9 10  1  0  0  0
 10 11  1  0  0  0
 11 23  1  0  0  0
 12 13  1  0  0  0
 14 13  1  0  0  0
 15 27  1  0  0  0
 15 16  1  0  0  0
 17 18  1  0  0  0
 19 34  1  0  0  0
 19 20  1  0  0  0
 21 16  1  0  0  0
 23  2  1  0  0  0
 27 22  1  0  0  0
 33 26  1  0  0  0
 33 27  1  0  0  0
  1 30  2  0  0  0
  2 28  2  0  0  0
 11 29  2  0  0  0
 13 26  2  0  0  0
 16 17  2  0  0  0
 18 19  2  0  0  0
 20 21  2  0  0  0
 22 12  2  0  0  0
 33 31  2  0  0  0
 33 32  2  0  0  0
M  END
> <rmsd>
0.526686013

$$$$
QZZOKTYIFVRQNC-UHFFFAOYSA-N


 28 31  0  0  0  0  0  0  0  0999 V2000
    1.7437   27.8118   63.2803 C   0  0  0  0  0
    2.6184   25.6940   64.3038 C   0  0  0  0  0
    2.5375   24.1812   64.4868 C   0  0  0  0  0
    4.0243   23.8506   66.3368 C   0  0  0  0  0
    4.7501   22.5121   66.2815 C   0  0  0  0  0
    6.8088   21.4718   66.7408 C   0  0  0  0  0
    5.9577   20.3292   66.2026 C   0  0  0  0  0
    6.6904   19.0055   66.1550 C   0  0  0  0  0
    4.7169   20.3010   67.0854 C   0  0  0  0  0
    5.4698   20.7986   64.8384 C   0  0  0  0  0
    1.7926   24.4922   66.7747 C   0  0  0  0  0
    1.2970   23.5698   63.8329 C   0  0  0  0  0
    1.1300   24.0979   62.4202 C   0  0  0  0  0
    0.9240   25.5723   62.4931 C   0  0  0  0  0
    1.4595   28.5134   61.9884 C   0  0  0  0  0
    0.2292   30.1048   60.9299 C   0  0  0  0  0
    1.5165   30.7293   60.3763 C   0  0  0  0  0
    2.7473   29.1351   61.4286 C   0  0  0  0  0
    1.7663   26.3699   63.3502 N   0  0  0  0  0
    2.6456   23.7158   65.8807 N   0  0  0  0  0
    3.5015   26.3413   64.9300 O   0  0  0  0  0
    6.0791   22.6994   66.7683 O   0  0  0  0  0
    4.0599   21.5688   67.1040 O   0  0  0  0  0
    4.7891   22.0505   64.9295 O   0  0  0  0  0
   -0.0230   26.0913   61.8440 O   0  0  0  0  0
    2.0020   28.5001   64.3058 O   0  0  0  0  0
    0.4878   29.5164   62.1836 O   0  0  0  0  0
    2.4836   29.7245   60.1764 O   0  0  0  0  0
  1 19  1  0  0  0
  3  2  1  0  0  0
  3 20  1  0  0  0
  3 12  1  0  0  0
  4 20  1  0  0  0
  4  5  1  0  0  0
  5 22  1  0  0  0
  5 23  1  0  0  0
  5 24  1  0  0  0
  6 22  1  0  0  0
  6  7  1  0  0  0
  7  8  1  0  0  0
  7  9  1  0  0  0
  7 10  1  0  0  0
  9 23  1  0  0  0
 10 24  1  0  0  0
 11 20  1  0  0  0
 12 13  1  0  0  0
 13 14  1  0  0  0
 14 19  1  0  0  0
 15  1  1  0  0  0
 15 27  1  0  0  0
 16 27  1  0  0  0
 16 17  1  0  0  0
 17 28  1  0  0  0
 18 28  1  0  0  0
 18 15  1  0  0  0
 19  2  1  0  0  0
  1 26  2  0  0  0
  2 21  2  0  0  0
 14 25  2  0  0  0
M  END
> <rmsd>
0.62126857

$$$$
KLCSMYZJDYNHMT-UHFFFAOYSA-N


 35 39  0  0  0  0  0  0  0  0999 V2000
    1.7323   28.0962   63.0576 C   0  0  0  0  0
    2.1902   25.8216   63.9929 C   0  0  0  0  0
    2.0821   24.3677   63.6477 C   0  0  0  0  0
    3.4970   22.7377   64.5348 C   0  0  0  0  0
    4.4061   22.7103   65.7162 C   0  0  0  0  0
    5.4647   21.4853   67.4448 C   0  0  0  0  0
    6.1015   22.6494   67.8802 C   0  0  0  0  0
    5.0471   23.8745   66.1496 C   0  0  0  0  0
    1.2011   22.6278   64.9285 C   0  0  0  0  0
   -0.1074   26.4242   63.2173 C   0  0  0  0  0
   -2.3828   25.5621   63.2799 C   0  0  0  0  0
   -2.1274   26.4658   62.2598 C   0  0  0  0  0
   -3.1336   26.8193   61.3604 C   0  0  0  0  0
   -4.4041   26.2388   61.5132 C   0  0  0  0  0
   -4.6516   25.3215   62.5534 C   0  0  0  0  0
   -3.6321   24.9731   63.4533 C   0  0  0  0  0
    3.1729   28.3592   62.7525 C   0  0  0  0  0
    3.5157   27.8358   61.4004 C   0  0  0  0  0
    4.0839   26.5929   61.1542 C   0  0  0  0  0
    4.6638   25.4905   59.0655 C   0  0  0  0  0
    4.6473   25.6379   57.6708 C   0  0  0  0  0
    4.1308   26.8186   57.1044 C   0  0  0  0  0
    3.6358   27.8432   57.9257 C   0  0  0  0  0
    3.0863   29.0915   57.3288 C   0  0  0  0  0
    3.6790   27.6427   59.3073 C   0  0  0  0  0
    1.2723   26.7795   63.4296 N   0  0  0  0  0
    2.3222   23.5453   64.8227 N   0  0  0  0  0
    4.6328   21.5408   66.3712 N   0  0  0  0  0
    5.8795   23.8184   67.2226 N   0  0  0  0  0
   -0.8623   26.9540   62.2212 N   0  0  0  0  0
    4.1770   26.5060   59.8203 N   0  0  0  0  0
    3.2492   28.5016   60.2511 N   0  0  0  0  0
    3.1456   26.2128   64.7173 O   0  0  0  0  0
    0.9129   29.0473   62.9450 O   0  0  0  0  0
   -0.9897   25.3443   64.1875 S   0  0  0  0  0
  1 26  1  0  0  0
  3  2  1  0  0  0
  3 27  1  0  0  0
  4 27  1  0  0  0
  4  5  1  0  0  0
  6 28  1  0  0  0
  7 29  1  0  0  0
  8  5  1  0  0  0
  9 27  1  0  0  0
 10 35  1  0  0  0
 11 35  1  0  0  0
 12 13  1  0  0  0
 12 30  1  0  0  0
 14 15  1  0  0  0
 16 11  1  0  0  0
 17  1  1  0  0  0
 17 18  1  0  0  0
 18 32  1  0  0  0
 19 31  1  0  0  0
 21 22  1  0  0  0
 23 25  1  0  0  0
 24 23  1  0  0  0
 25 31  1  0  0  0
 26  2  1  0  0  0
 26 10  1  0  0  0
 31 20  1  0  0  0
  1 34  2  0  0  0
  2 33  2  0  0  0
  5 28  2  0  0  0
  6  7  2  0  0  0
  8 29  2  0  0  0
 10 30  2  0  0  0
 11 12  2  0  0  0
 13 14  2  0  0  0
 15 16  2  0  0  0
 18 19  2  0  0  0
 20 21  2  0  0  0
 22 23  2  0  0  0
 25 32  2  0  0  0
M  END
> <rmsd>
0.718684494

$$$$
TTWUGPOFMJBMIN-UHFFFAOYSA-N


 27 29  0  0  0  0  0  0  0  0999 V2000
    2.0199   27.9909   60.9667 C   0  0  0  0  0
    2.1000   28.8087   63.3405 C   0  0  0  0  0
    2.7279   28.6846   64.6909 C   0  0  0  0  0
    4.3585   27.1580   64.5878 C   0  0  0  0  0
    4.9790   26.0800   65.4628 C   0  0  0  0  0
    4.6035   23.7161   66.0526 C   0  0  0  0  0
    3.7988   22.4984   65.9038 C   0  0  0  0  0
    1.9498   21.3834   64.9355 C   0  0  0  0  0
    2.2809   20.2157   65.6206 C   0  0  0  0  0
    3.3990   20.2315   66.4527 C   0  0  0  0  0
    4.4812   26.7697   63.1138 C   0  0  0  0  0
    4.1763   27.9598   62.2106 C   0  0  0  0  0
    0.6902   27.3488   60.9858 C   0  0  0  0  0
   -0.9750   26.1341   62.1766 C   0  0  0  0  0
   -1.7873   26.0873   61.0425 C   0  0  0  0  0
   -1.3412   26.6814   59.8613 C   0  0  0  0  0
   -0.0968   27.3131   59.8273 C   0  0  0  0  0
    2.7421   28.2392   62.1838 N   0  0  0  0  0
    2.7101   22.4990   65.0877 N   0  0  0  0  0
    4.1353   21.3662   66.5799 N   0  0  0  0  0
    0.2339   26.7542   62.1238 N   0  0  0  0  0
    1.0057   29.4232   63.2283 O   0  0  0  0  0
    3.0140   27.3383   64.9448 O   0  0  0  0  0
    4.2448   24.8672   65.3500 O   0  0  0  0  0
    5.6109   23.7174   66.8122 O   0  0  0  0  0
    2.5506   28.2875   59.8614 O   0  0  0  0  0
   -1.5552   25.3238   63.8001 Br  0  0  0  0  0
  1 18  1  0  0  0
  1 13  1  0  0  0
  3  2  1  0  0  0
  3 23  1  0  0  0
  4 23  1  0  0  0
  4  5  1  0  0  0
  4 11  1  0  0  0
  5 24  1  0  0  0
  6 24  1  0  0  0
  6  7  1  0  0  0
  7 20  1  0  0  0
  8 19  1  0  0  0
  9 10  1  0  0  0
 11 12  1  0  0  0
 12 18  1  0  0  0
 14 21  1  0  0  0
 14 27  1  0  0  0
 15 16  1  0  0  0
 17 13  1  0  0  0
 18  2  1  0  0  0
  1 26  2  0  0  0
  2 22  2  0  0  0
  6 25  2  0  0  0
  7 19  2  0  0  0
  8  9  2  0  0  0
 10 20  2  0  0  0
 13 21  2  0  0  0
 14 15  2  0  0  0
 16 17  2  0  0  0
M  END
> <rmsd>
0.721645832

$$$$
ASZGTXPJJOUVCA-UHFFFAOYSA-N


 34 37  0  0  0  0  0  0  0  0999 V2000
    2.7566   29.2095   60.8433 C   0  0  0  0  0
    1.7003   28.3158   62.9431 C   0  0  0  0  0
    1.8453   27.2955   64.0285 C   0  0  0  0  0
    2.9222   27.0952   66.1601 C   0  0  0  0  0
    2.6846   25.5893   66.3082 C   0  0  0  0  0
    3.8319   24.8176   65.6727 C   0  0  0  0  0
    4.3903   22.5341   66.4089 C   0  0  0  0  0
    6.3410   22.0961   67.6758 C   0  0  0  0  0
    6.0159   20.7421   67.7272 C   0  0  0  0  0
    4.8486   20.3193   67.0966 C   0  0  0  0  0
    3.9798   25.2336   64.2173 C   0  0  0  0  0
    4.1892   26.7484   64.1297 C   0  0  0  0  0
    2.4792   26.7578   61.1587 C   0  0  0  0  0
    1.5425   25.7297   61.1705 C   0  0  0  0  0
    0.1789   25.8815   61.6019 C   0  0  0  0  0
    2.0337   24.5228   60.6576 C   0  0  0  0  0
    3.3619   24.5857   60.2389 C   0  0  0  0  0
    2.9767   30.5671   61.4426 C   0  0  0  0  0
    2.1725   31.6086   60.7352 C   0  0  0  0  0
    2.8047   32.4890   59.8489 C   0  0  0  0  0
    2.0588   33.4592   59.1725 C   0  0  0  0  0
    0.6778   33.5472   59.3776 C   0  0  0  0  0
    0.0415   32.6621   60.2555 C   0  0  0  0  0
    0.7882   31.6941   60.9339 C   0  0  0  0  0
    2.2881   28.1015   61.6422 N   0  0  0  0  0
    3.0945   27.5028   64.7586 N   0  0  0  0  0
    5.5278   22.9653   67.0218 N   0  0  0  0  0
    4.0598   21.2173   66.4522 N   0  0  0  0  0
   -0.9190   26.0047   61.9489 N   0  0  0  0  0
    3.5552   23.4270   65.7381 O   0  0  0  0  0
    1.0714   29.3773   63.1940 O   0  0  0  0  0
    3.0192   29.0390   59.6210 O   0  0  0  0  0
    3.9062   26.1577   60.5113 S   0  0  0  0  0
   -0.0462   34.4848   58.7204 F   0  0  0  0  0
  1 25  1  0  0  0
  3  2  1  0  0  0
  3 26  1  0  0  0
  4 26  1  0  0  0
  4  5  1  0  0  0
  5  6  1  0  0  0
  6 30  1  0  0  0
  6 11  1  0  0  0
  7 30  1  0  0  0
  7 28  1  0  0  0
  8 27  1  0  0  0
  9 10  1  0  0  0
 11 12  1  0  0  0
 12 26  1  0  0  0
 13 33  1  0  0  0
 14 15  1  0  0  0
 14 16  1  0  0  0
 17 33  1  0  0  0
 18  1  1  0  0  0
 18 19  1  0  0  0
 20 21  1  0  0  0
 22 34  1  0  0  0
 22 23  1  0  0  0
 24 19  1  0  0  0
 25  2  1  0  0  0
 25 13  1  0  0  0
  1 32  2  0  0  0
  2 31  2  0  0  0
  7 27  2  0  0  0
  8  9  2  0  0  0
 10 28  2  0  0  0
 13 14  2  0  0  0
 16 17  2  0  0  0
 19 20  2  0  0  0
 21 22  2  0  0  0
 23 24  2  0  0  0
 15 29  3  0  0  0
M  END
> <rmsd>
0.792952418

$$$$
OBCBZGQLOBILAY-UHFFFAOYSA-N


 32 35  0  0  0  0  0  0  0  0999 V2000
    2.3771   25.2033   64.6869 C   0  0  0  0  0
    0.1695   26.1939   64.0945 C   0  0  0  0  0
   -0.9241   26.3085   63.0810 C   0  0  0  0  0
   -0.5811   27.8647   61.3659 C   0  0  0  0  0
    0.7112   28.6071   61.3299 C   0  0  0  0  0
    2.4984   29.5358   61.8608 C   0  0  0  0  0
    3.6282   30.1184   62.6482 C   0  0  0  0  0
    4.3247   29.0290   63.4434 C   0  0  0  0  0
    4.9444   29.5382   62.1612 C   0  0  0  0  0
   -1.1479   25.6660   60.8556 C   0  0  0  0  0
    0.6818   23.8194   63.4783 C   0  0  0  0  0
    1.6009   23.1218   62.6773 C   0  0  0  0  0
    1.2386   21.9169   62.0699 C   0  0  0  0  0
   -0.0446   21.3979   62.2590 C   0  0  0  0  0
   -0.9661   22.0830   63.0560 C   0  0  0  0  0
   -0.6044   23.2881   63.6642 C   0  0  0  0  0
    3.0094   24.1091   65.4540 C   0  0  0  0  0
    2.8354   22.0302   66.5758 C   0  0  0  0  0
    4.9303   23.1279   66.5158 C   0  0  0  0  0
    6.9216   22.1397   67.5733 C   0  0  0  0  0
    4.3666   24.1727   65.7853 C   0  0  0  0  0
    1.0610   25.0579   64.1130 N   0  0  0  0  0
   -0.3532   26.4823   61.7544 N   0  0  0  0  0
    2.3543   29.7029   60.5305 N   0  0  0  0  0
    1.4713   28.8567   62.4145 N   0  0  0  0  0
    2.2730   23.0410   65.8635 N   0  0  0  0  0
    4.1545   22.0760   66.8962 N   0  0  0  0  0
    1.2371   29.1072   60.2403 O   0  0  0  0  0
    0.3213   27.1324   64.9215 O   0  0  0  0  0
    2.9983   26.2909   64.5421 O   0  0  0  0  0
    6.2847   23.1775   66.8454 O   0  0  0  0  0
   -0.4981   19.8888   61.4980 Cl  0  0  0  0  0
  1 22  1  0  0  0
  1 17  1  0  0  0
  3  2  1  0  0  0
  3 23  1  0  0  0
  4 23  1  0  0  0
  4  5  1  0  0  0
  5 28  1  0  0  0
  6 25  1  0  0  0
  7  6  1  0  0  0
  7  8  1  0  0  0
  8  9  1  0  0  0
  9  7  1  0  0  0
 10 23  1  0  0  0
 12 13  1  0  0  0
 14 32  1  0  0  0
 14 15  1  0  0  0
 16 11  1  0  0  0
 18 26  1  0  0  0
 19 27  1  0  0  0
 19 31  1  0  0  0
 20 31  1  0  0  0
 21 17  1  0  0  0
 22  2  1  0  0  0
 22 11  1  0  0  0
 28 24  1  0  0  0
  1 30  2  0  0  0
  2 29  2  0  0  0
  5 25  2  0  0  0
  6 24  2  0  0  0
 11 12  2  0  0  0
 13 14  2  0  0  0
 15 16  2  0  0  0
 17 26  2  0  0  0
 18 27  2  0  0  0
 19 21  2  0  0  0
M  END
> <rmsd>
0.670440435

$$$$
ANLXMHKWPWBKGJ-UHFFFAOYSA-N


 34 38  0  0  0  0  0  0  0  0999 V2000
    3.2575   25.7788   64.6633 C   0  0  0  0  0
    0.8928   26.1720   63.9204 C   0  0  0  0  0
   -0.2960   25.7960   63.0906 C   0  0  0  0  0
   -0.8984   25.1730   60.9204 C   0  0  0  0  0
   -1.5923   25.9677   59.8329 C   0  0  0  0  0
   -1.1846   27.4017   60.0452 C   0  0  0  0  0
   -0.5093   27.4230   61.3964 C   0  0  0  0  0
    0.6433   28.3715   61.3785 C   0  0  0  0  0
    1.9372   29.9406   61.8078 C   0  0  0  0  0
    2.5497   31.1536   62.4098 C   0  0  0  0  0
    2.1607   24.1818   63.0678 C   0  0  0  0  0
    3.1609   24.3577   61.9339 C   0  0  0  0  0
    3.2556   25.0646   59.8222 C   0  0  0  0  0
    3.2423   23.5605   59.7008 C   0  0  0  0  0
    3.2308   23.0862   61.1217 C   0  0  0  0  0
    4.1615   24.7773   65.2724 C   0  0  0  0  0
    3.6834   23.6012   65.8837 C   0  0  0  0  0
    4.6050   22.6888   66.4393 C   0  0  0  0  0
    2.8178   21.2920   67.1155 C   0  0  0  0  0
    1.9014   22.2000   66.5807 C   0  0  0  0  0
    6.4175   24.0879   65.8277 C   0  0  0  0  0
    5.5412   25.0179   65.2631 C   0  0  0  0  0
    2.0986   25.3817   63.9029 N   0  0  0  0  0
   -0.0421   26.0717   61.6838 N   0  0  0  0  0
    2.5149   29.2271   60.8238 N   0  0  0  0  0
    0.7473   29.4376   62.1931 N   0  0  0  0  0
    4.1489   21.5564   67.0361 N   0  0  0  0  0
    2.3521   23.3336   65.9811 N   0  0  0  0  0
    5.9374   22.9502   66.3956 N   0  0  0  0  0
   -1.1503   25.5427   58.5950 F   0  0  0  0  0
    1.6806   28.2627   60.5849 O   0  0  0  0  0
    0.8109   27.1948   64.6517 O   0  0  0  0  0
    2.7678   25.4077   61.0905 O   0  0  0  0  0
    3.5377   27.0033   64.7789 O   0  0  0  0  0
  1 23  1  0  0  0
  1 16  1  0  0  0
  3  2  1  0  0  0
  3 24  1  0  0  0
  4 24  1  0  0  0
  4  5  1  0  0  0
  5 30  1  0  0  0
  5  6  1  0  0  0
  6  7  1  0  0  0
  7  8  1  0  0  0
  7 24  1  0  0  0
  8 31  1  0  0  0
  9 26  1  0  0  0
 10  9  1  0  0  0
 11 23  1  0  0  0
 11 12  1  0  0  0
 12 33  1  0  0  0
 13 33  1  0  0  0
 13 14  1  0  0  0
 14 15  1  0  0  0
 15 12  1  0  0  0
 16 17  1  0  0  0
 17 18  1  0  0  0
 18 29  1  0  0  0
 19 27  1  0  0  0
 20 28  1  0  0  0
 21 22  1  0  0  0
 23  2  1  0  0  0
 31 25  1  0  0  0
  1 34  2  0  0  0
  2 32  2  0  0  0
  8 26  2  0  0  0
  9 25  2  0  0  0
 17 28  2  0  0  0
 18 27  2  0  0  0
 19 20  2  0  0  0
 21 29  2  0  0  0
 22 16  2  0  0  0
M  END
> <rmsd>
0.566808343

$$$$
XWJOHPNFJSNXFF-UHFFFAOYSA-N


 31 34  0  0  0  0  0  0  0  0999 V2000
    2.6226   25.5915   64.3382 C   0  0  0  0  0
    0.5797   26.5660   63.2098 C   0  0  0  0  0
    0.5883   27.7886   64.0740 C   0  0  0  0  0
    2.0822   29.4246   63.2680 C   0  0  0  0  0
    2.7802   29.0011   62.0181 C   0  0  0  0  0
    4.1232   28.1402   60.6799 C   0  0  0  0  0
    5.3073   27.4420   60.0953 C   0  0  0  0  0
    4.8444   26.2572   59.2686 C   0  0  0  0  0
    5.4109   26.0343   60.6528 C   0  0  0  0  0
    2.0965   30.9358   63.3935 C   0  0  0  0  0
    0.6702   31.3347   63.6800 C   0  0  0  0  0
   -0.0561   30.0313   63.9209 C   0  0  0  0  0
    1.4777   24.3558   62.4866 C   0  0  0  0  0
    2.3083   24.6213   61.2457 C   0  0  0  0  0
    2.2453   23.4188   60.3292 C   0  0  0  0  0
    3.1378   24.3899   65.0303 C   0  0  0  0  0
    2.9032   22.1086   65.6251 C   0  0  0  0  0
    4.7782   23.3121   66.4200 C   0  0  0  0  0
    6.4770   22.2359   67.8407 C   0  0  0  0  0
    4.3257   24.4571   65.7658 C   0  0  0  0  0
    1.5414   25.5047   63.3857 N   0  0  0  0  0
    0.6922   28.9825   63.2468 N   0  0  0  0  0
    3.1970   28.7807   59.9397 N   0  0  0  0  0
    3.9045   28.2614   62.0062 N   0  0  0  0  0
    2.4505   23.2164   64.9823 N   0  0  0  0  0
    4.0589   22.1595   66.3364 N   0  0  0  0  0
    2.3798   29.2969   60.8058 O   0  0  0  0  0
   -0.3191   26.4601   62.3311 O   0  0  0  0  0
    3.1530   26.7091   64.5837 O   0  0  0  0  0
    5.9641   23.3669   67.1527 O   0  0  0  0  0
    0.1408   31.9492   62.5608 F   0  0  0  0  0
  1 21  1  0  0  0
  1 16  1  0  0  0
  3  2  1  0  0  0
  3 22  1  0  0  0
  4 22  1  0  0  0
  4  5  1  0  0  0
  4 10  1  0  0  0
  5 27  1  0  0  0
  6 24  1  0  0  0
  7  6  1  0  0  0
  7  8  1  0  0  0
  8  9  1  0  0  0
  9  7  1  0  0  0
 10 11  1  0  0  0
 11 31  1  0  0  0
 11 12  1  0  0  0
 12 22  1  0  0  0
 13 21  1  0  0  0
 13 14  1  0  0  0
 14 15  1  0  0  0
 17 25  1  0  0  0
 18 26  1  0  0  0
 18 30  1  0  0  0
 19 30  1  0  0  0
 20 16  1  0  0  0
 21  2  1  0  0  0
 27 23  1  0  0  0
  1 29  2  0  0  0
  2 28  2  0  0  0
  5 24  2  0  0  0
  6 23  2  0  0  0
 16 25  2  0  0  0
 17 26  2  0  0  0
 18 20  2  0  0  0
M  END
> <rmsd>
0.594661772

$$$$
CSVACNJQIUBDTA-UHFFFAOYSA-N


 31 34  0  0  0  0  0  0  0  0999 V2000
    2.8333   28.3192   61.9319 C   0  0  0  0  0
    3.4635   26.3342   63.3625 C   0  0  0  0  0
    3.2358   24.8586   63.5368 C   0  0  0  0  0
    3.6211   23.1853   65.3095 C   0  0  0  0  0
    4.4463   22.7024   66.4221 C   0  0  0  0  0
    6.3439   22.9544   67.8131 C   0  0  0  0  0
    6.0019   21.7962   68.5094 C   0  0  0  0  0
    4.8530   21.1080   68.1233 C   0  0  0  0  0
    3.6147   24.0953   62.2694 C   0  0  0  0  0
    2.9382   24.7165   61.0563 C   0  0  0  0  0
    3.4480   26.1415   60.8675 C   0  0  0  0  0
    2.2791   29.0997   63.0880 C   0  0  0  0  0
    0.7593   28.9689   63.2261 C   0  0  0  0  0
   -0.6675   30.5047   62.5119 C   0  0  0  0  0
    0.3387   27.5709   63.5566 C   0  0  0  0  0
   -0.2624   25.4594   64.5988 C   0  0  0  0  0
   -0.1469   25.4171   63.2181 C   0  0  0  0  0
   -0.3546   24.2232   62.5280 C   0  0  0  0  0
   -0.6865   23.0723   63.2633 C   0  0  0  0  0
   -0.8015   23.1276   64.6661 C   0  0  0  0  0
   -0.5867   24.3339   65.3512 C   0  0  0  0  0
    3.2280   26.9407   62.0749 N   0  0  0  0  0
    5.5646   23.3861   66.7871 N   0  0  0  0  0
    4.0987   21.5697   67.0918 N   0  0  0  0  0
    0.1886   26.5919   62.6293 N   0  0  0  0  0
    3.7851   27.0406   64.3569 O   0  0  0  0  0
    3.9772   24.3616   64.6449 O   0  0  0  0  0
    2.5936   22.5405   64.9629 O   0  0  0  0  0
    2.8954   28.8787   60.8042 O   0  0  0  0  0
    0.1065   29.4277   62.0779 O   0  0  0  0  0
    0.0602   27.0166   65.1318 S   0  0  0  0  0
  1 22  1  0  0  0
  3  2  1  0  0  0
  3 27  1  0  0  0
  3  9  1  0  0  0
  4 27  1  0  0  0
  4  5  1  0  0  0
  5 24  1  0  0  0
  6 23  1  0  0  0
  7  8  1  0  0  0
  9 10  1  0  0  0
 10 11  1  0  0  0
 11 22  1  0  0  0
 12  1  1  0  0  0
 12 13  1  0  0  0
 13 30  1  0  0  0
 13 15  1  0  0  0
 14 30  1  0  0  0
 15 31  1  0  0  0
 16 31  1  0  0  0
 17 18  1  0  0  0
 17 25  1  0  0  0
 19 20  1  0  0  0
 21 16  1  0  0  0
 22  2  1  0  0  0
  1 29  2  0  0  0
  2 26  2  0  0  0
  4 28  2  0  0  0
  5 23  2  0  0  0
  6  7  2  0  0  0
  8 24  2  0  0  0
 15 25  2  0  0  0
 16 17  2  0  0  0
 18 19  2  0  0  0
 20 21  2  0  0  0
M  END
> <rmsd>
0.667102396

$$$$
GFYPAUJWTHYNCD-UHFFFAOYSA-N


 36 40  0  0  0  0  0  0  0  0999 V2000
    2.9986   23.1710   65.7689 C   0  0  0  0  0
    2.8459   25.5735   65.0832 C   0  0  0  0  0
    1.4256   25.4427   64.6189 C   0  0  0  0  0
    1.3085   25.6658   63.1288 C   0  0  0  0  0
    0.2280   27.4604   61.9491 C   0  0  0  0  0
    1.1695   28.5563   62.4676 C   0  0  0  0  0
    1.1143   30.3968   60.8161 C   0  0  0  0  0
    2.1430   29.7819   60.0896 C   0  0  0  0  0
    2.5328   30.2980   58.8504 C   0  0  0  0  0
    1.9092   31.4454   58.3490 C   0  0  0  0  0
    0.8972   32.0730   59.0850 C   0  0  0  0  0
    0.4986   31.5488   60.3194 C   0  0  0  0  0
    2.6099   28.3077   61.9972 C   0  0  0  0  0
   -0.4629   26.8370   64.1669 C   0  0  0  0  0
    0.5521   26.4998   65.2388 C   0  0  0  0  0
    4.5721   24.8491   66.7375 C   0  0  0  0  0
    6.6725   24.2330   67.6775 C   0  0  0  0  0
    6.7236   25.4217   68.4070 C   0  0  0  0  0
    5.6758   26.3355   68.2934 C   0  0  0  0  0
    4.5948   26.0529   67.4576 C   0  0  0  0  0
    3.1014   22.2340   66.9318 C   0  0  0  0  0
    4.7448   20.9362   67.9721 C   0  0  0  0  0
    5.8346   19.8815   67.7978 C   0  0  0  0  0
    5.2190   18.6047   67.2298 C   0  0  0  0  0
    5.9022   16.5664   67.7499 C   0  0  0  0  0
    4.4494   18.9150   65.9475 C   0  0  0  0  0
    3.4332   20.0219   66.2196 C   0  0  0  0  0
    3.4648   24.5328   65.8698 N   0  0  0  0  0
    0.0386   26.3433   62.8839 N   0  0  0  0  0
    5.6105   23.9751   66.8679 N   0  0  0  0  0
    4.1211   21.2281   66.6822 N   0  0  0  0  0
    0.7050   29.8383   62.0313 O   0  0  0  0  0
    2.7659   28.6508   60.6190 O   0  0  0  0  0
    3.4924   26.6207   64.8017 O   0  0  0  0  0
    2.4840   22.7529   64.6966 O   0  0  0  0  0
    6.2239   17.6739   66.9635 O   0  0  0  0  0
  1 28  1  0  0  0
  3  2  1  0  0  0
  3  4  1  0  0  0
  4 29  1  0  0  0
  5 29  1  0  0  0
  5  6  1  0  0  0
  6 32  1  0  0  0
  7 32  1  0  0  0
  8  9  1  0  0  0
  8 33  1  0  0  0
 10 11  1  0  0  0
 12  7  1  0  0  0
 13 33  1  0  0  0
 13  6  1  0  0  0
 14 29  1  0  0  0
 14 15  1  0  0  0
 15  3  1  0  0  0
 17 30  1  0  0  0
 18 19  1  0  0  0
 20 16  1  0  0  0
 21  1  1  0  0  0
 21 31  1  0  0  0
 22 31  1  0  0  0
 22 23  1  0  0  0
 23 24  1  0  0  0
 24 36  1  0  0  0
 24 26  1  0  0  0
 25 36  1  0  0  0
 26 27  1  0  0  0
 27 31  1  0  0  0
 28  2  1  0  0  0
 28 16  1  0  0  0
  1 35  2  0  0  0
  2 34  2  0  0  0
  7  8  2  0  0  0
  9 10  2  0  0  0
 11 12  2  0  0  0
 16 30  2  0  0  0
 17 18  2  0  0  0
 19 20  2  0  0  0
M  END
> <rmsd>
0.663577676

$$$$
TZVJCPCVJGNPRG-UHFFFAOYSA-N


 31 33  0  0  0  0  0  0  0  0999 V2000
    2.3593   25.3975   64.7653 C   0  0  0  0  0
    0.1479   26.3559   64.0560 C   0  0  0  0  0
   -1.0552   26.3178   63.1653 C   0  0  0  0  0
   -1.7162   25.9757   60.9402 C   0  0  0  0  0
   -2.3025   27.0825   60.0862 C   0  0  0  0  0
   -1.3474   28.2342   60.2195 C   0  0  0  0  0
   -0.6519   27.9791   61.5351 C   0  0  0  0  0
    0.7518   28.4845   61.4926 C   0  0  0  0  0
    2.5132   29.5107   61.9151 C   0  0  0  0  0
    3.5304   30.4116   62.5337 C   0  0  0  0  0
    3.7414   30.0485   63.9920 C   0  0  0  0  0
    3.0854   31.8575   62.4295 C   0  0  0  0  0
    0.7997   24.0505   63.3285 C   0  0  0  0  0
    1.5147   24.0889   61.9916 C   0  0  0  0  0
    1.1236   22.8696   61.1847 C   0  0  0  0  0
    3.0426   24.2326   65.3700 C   0  0  0  0  0
    2.9874   21.9823   66.1117 C   0  0  0  0  0
    4.9817   23.2281   66.3778 C   0  0  0  0  0
    6.9884   22.2263   67.3966 C   0  0  0  0  0
    4.3699   24.3395   65.7991 C   0  0  0  0  0
    1.0903   25.2635   64.0889 N   0  0  0  0  0
   -0.6623   26.5395   61.7797 N   0  0  0  0  0
    2.7809   28.7002   60.8728 N   0  0  0  0  0
    1.2365   29.4060   62.3445 N   0  0  0  0  0
    2.3792   23.0567   65.5449 N   0  0  0  0  0
    4.2801   22.0694   66.5202 N   0  0  0  0  0
   -2.3757   26.6778   58.7690 F   0  0  0  0  0
    1.6632   28.0822   60.6395 O   0  0  0  0  0
    0.3279   27.3771   64.7730 O   0  0  0  0  0
    2.9044   26.5332   64.8464 O   0  0  0  0  0
    6.3073   23.3222   66.8020 O   0  0  0  0  0
  1 21  1  0  0  0
  1 16  1  0  0  0
  3  2  1  0  0  0
  3 22  1  0  0  0
  4 22  1  0  0  0
  4  5  1  0  0  0
  5 27  1  0  0  0
  5  6  1  0  0  0
  6  7  1  0  0  0
  7  8  1  0  0  0
  7 22  1  0  0  0
  8 28  1  0  0  0
  9 24  1  0  0  0
 10  9  1  0  0  0
 10 11  1  0  0  0
 10 12  1  0  0  0
 13 21  1  0  0  0
 13 14  1  0  0  0
 14 15  1  0  0  0
 17 25  1  0  0  0
 18 26  1  0  0  0
 18 31  1  0  0  0
 19 31  1  0  0  0
 20 16  1  0  0  0
 21  2  1  0  0  0
 28 23  1  0  0  0
  1 30  2  0  0  0
  2 29  2  0  0  0
  8 24  2  0  0  0
  9 23  2  0  0  0
 16 25  2  0  0  0
 17 26  2  0  0  0
 18 20  2  0  0  0
M  END
> <rmsd>
0.562815845

$$$$
MGQQOKYJPRNSNI-UHFFFAOYSA-N


 32 34  0  0  0  0  0  0  0  0999 V2000
    3.0125   25.6372   63.9249 C   0  0  0  0  0
    0.9351   26.5825   62.9040 C   0  0  0  0  0
    0.9046   27.6881   63.9160 C   0  0  0  0  0
    2.3400   29.3149   63.0052 C   0  0  0  0  0
    2.5522   29.6076   61.5281 C   0  0  0  0  0
    1.5096   28.7143   59.6314 C   0  0  0  0  0
    1.1672   27.4488   58.8416 C   0  0  0  0  0
    2.2641   26.3850   58.9448 C   0  0  0  0  0
    3.6455   27.0229   59.0699 C   0  0  0  0  0
    3.7111   28.0314   60.2294 C   0  0  0  0  0
    0.4706   29.9518   64.2309 C   0  0  0  0  0
    2.0298   24.5337   61.9258 C   0  0  0  0  0
    0.8590   23.9611   61.4016 C   0  0  0  0  0
    0.9301   22.9657   60.4221 C   0  0  0  0  0
    2.1728   22.5267   59.9603 C   0  0  0  0  0
    2.2463   21.5151   58.9471 C   0  0  0  0  0
    3.3452   23.0793   60.4818 C   0  0  0  0  0
    3.2739   24.0757   61.4593 C   0  0  0  0  0
    3.3229   24.4722   64.7775 C   0  0  0  0  0
    2.8337   22.2627   65.4730 C   0  0  0  0  0
    4.6453   23.4055   66.4772 C   0  0  0  0  0
    6.0167   22.3388   68.2219 C   0  0  0  0  0
    4.3856   24.5226   65.6845 C   0  0  0  0  0
    1.9672   25.5665   62.9354 N   0  0  0  0  0
    0.9440   28.9868   63.2586 N   0  0  0  0  0
    2.3882   28.3912   60.7510 N   0  0  0  0  0
    2.3048   20.6987   58.1286 N   0  0  0  0  0
    2.5680   23.3435   64.6952 N   0  0  0  0  0
    3.8648   22.2972   66.3564 N   0  0  0  0  0
    0.0384   26.5605   62.0172 O   0  0  0  0  0
    3.6753   26.7038   64.0566 O   0  0  0  0  0
    5.7032   23.4423   67.3863 O   0  0  0  0  0
  1 24  1  0  0  0
  1 19  1  0  0  0
  3  2  1  0  0  0
  3 25  1  0  0  0
  4 25  1  0  0  0
  4  5  1  0  0  0
  5 26  1  0  0  0
  6 26  1  0  0  0
  6  7  1  0  0  0
  7  8  1  0  0  0
  8  9  1  0  0  0
  9 10  1  0  0  0
 10 26  1  0  0  0
 11 25  1  0  0  0
 13 14  1  0  0  0
 15 16  1  0  0  0
 15 17  1  0  0  0
 18 12  1  0  0  0
 20 28  1  0  0  0
 21 29  1  0  0  0
 21 32  1  0  0  0
 22 32  1  0  0  0
 23 19  1  0  0  0
 24  2  1  0  0  0
 24 12  1  0  0  0
  1 31  2  0  0  0
  2 30  2  0  0  0
 12 13  2  0  0  0
 14 15  2  0  0  0
 17 18  2  0  0  0
 19 28  2  0  0  0
 20 29  2  0  0  0
 21 23  2  0  0  0
 16 27  3  0  0  0
M  END
> <rmsd>
0.707004309

$$$$
UBNVTNAZVLIBEB-UHFFFAOYSA-N


 36 40  0  0  0  0  0  0  0  0999 V2000
    2.9585   25.6702   64.0114 C   0  0  0  0  0
    0.9025   26.6085   62.9263 C   0  0  0  0  0
    0.8867   27.7771   63.8642 C   0  0  0  0  0
    2.4334   29.3762   63.0686 C   0  0  0  0  0
    3.0701   28.9330   61.7855 C   0  0  0  0  0
    3.3961   28.1193   59.8937 C   0  0  0  0  0
    3.2027   27.5026   58.5481 C   0  0  0  0  0
    3.9497   26.1841   58.4830 C   0  0  0  0  0
    2.4512   26.1914   58.6829 C   0  0  0  0  0
    2.5433   30.8786   63.2208 C   0  0  0  0  0
    1.2124   31.3190   63.7756 C   0  0  0  0  0
    0.3831   30.0609   63.9115 C   0  0  0  0  0
    2.0207   24.5543   61.9988 C   0  0  0  0  0
    0.8616   23.9307   61.5084 C   0  0  0  0  0
    0.9517   22.9123   60.5555 C   0  0  0  0  0
    2.2022   22.5027   60.0864 C   0  0  0  0  0
    3.3628   23.1099   60.5716 C   0  0  0  0  0
    4.6934   22.6743   60.0746 C   0  0  0  0  0
    3.2726   24.1286   61.5233 C   0  0  0  0  0
    3.3004   24.4838   64.8220 C   0  0  0  0  0
    2.8506   22.2486   65.4639 C   0  0  0  0  0
    4.6746   23.3817   66.4577 C   0  0  0  0  0
    6.1010   22.2790   68.1348 C   0  0  0  0  0
    4.3840   24.5188   65.7054 C   0  0  0  0  0
    1.9398   25.6003   62.9922 N   0  0  0  0  0
    1.0172   29.0212   63.1152 N   0  0  0  0  0
    4.3977   28.9878   61.5632 N   0  0  0  0  0
    2.3933   28.3905   60.7506 N   0  0  0  0  0
    2.5552   23.3491   64.7246 N   0  0  0  0  0
    3.9033   22.2679   66.3217 N   0  0  0  0  0
    4.5584   28.4784   60.3801 O   0  0  0  0  0
   -0.0075   26.5350   62.0568 O   0  0  0  0  0
    3.5741   26.7528   64.2086 O   0  0  0  0  0
    5.7553   23.4033   67.3398 O   0  0  0  0  0
    1.3794   31.9175   65.0098 F   0  0  0  0  0
    0.6040   32.1974   62.8990 F   0  0  0  0  0
  1 25  1  0  0  0
  1 20  1  0  0  0
  3  2  1  0  0  0
  3 26  1  0  0  0
  4 26  1  0  0  0
  4  5  1  0  0  0
  4 10  1  0  0  0
  5 28  1  0  0  0
  6 31  1  0  0  0
  7  6  1  0  0  0
  7  8  1  0  0  0
  8  9  1  0  0  0
  9  7  1  0  0  0
 10 11  1  0  0  0
 11 35  1  0  0  0
 11 36  1  0  0  0
 11 12  1  0  0  0
 12 26  1  0  0  0
 14 15  1  0  0  0
 16 17  1  0  0  0
 18 17  1  0  0  0
 19 13  1  0  0  0
 21 29  1  0  0  0
 22 30  1  0  0  0
 22 34  1  0  0  0
 23 34  1  0  0  0
 24 20  1  0  0  0
 25  2  1  0  0  0
 25 13  1  0  0  0
 27 31  1  0  0  0
  1 33  2  0  0  0
  2 32  2  0  0  0
  5 27  2  0  0  0
  6 28  2  0  0  0
 13 14  2  0  0  0
 15 16  2  0  0  0
 17 19  2  0  0  0
 20 29  2  0  0  0
 21 30  2  0  0  0
 22 24  2  0  0  0
M  END
> <rmsd>
0.644236088

$$$$
UBNVTNAZVLIBEB-UHFFFAOYSA-N


 36 40  0  0  0  0  0  0  0  0999 V2000
    2.9520   25.5127   64.1048 C   0  0  0  0  0
    0.9345   26.4958   62.9814 C   0  0  0  0  0
    0.9667   27.6953   63.8819 C   0  0  0  0  0
    2.5027   29.1363   62.7967 C   0  0  0  0  0
    2.8361   28.6116   61.4371 C   0  0  0  0  0
    3.6316   27.4618   59.8940 C   0  0  0  0  0
    4.4013   26.4456   59.1169 C   0  0  0  0  0
    5.2147   27.1379   58.0395 C   0  0  0  0  0
    5.8897   26.6702   59.3091 C   0  0  0  0  0
    2.7752   30.6237   62.8802 C   0  0  0  0  0
    1.6091   31.1942   63.6498 C   0  0  0  0  0
    0.7099   30.0195   63.9691 C   0  0  0  0  0
    1.9076   24.3192   62.1879 C   0  0  0  0  0
    3.1202   23.8129   61.6899 C   0  0  0  0  0
    3.1282   22.7315   60.8054 C   0  0  0  0  0
    1.9240   22.1432   60.4110 C   0  0  0  0  0
    0.7122   22.6361   60.9018 C   0  0  0  0  0
   -0.5688   22.0104   60.4825 C   0  0  0  0  0
    0.7040   23.7174   61.7868 C   0  0  0  0  0
    3.2899   24.3483   64.9498 C   0  0  0  0  0
    2.8022   22.1539   65.7007 C   0  0  0  0  0
    4.6952   23.2713   66.5768 C   0  0  0  0  0
    6.1504   22.1964   68.2467 C   0  0  0  0  0
    4.4075   24.3862   65.7894 C   0  0  0  0  0
    1.9086   25.4315   63.1100 N   0  0  0  0  0
    1.0900   28.9186   63.0967 N   0  0  0  0  0
    2.2412   29.0274   60.3013 N   0  0  0  0  0
    3.7221   27.6165   61.2287 N   0  0  0  0  0
    2.5100   23.2323   64.9270 N   0  0  0  0  0
    3.8871   22.1769   66.5177 N   0  0  0  0  0
    2.7620   28.2901   59.3684 O   0  0  0  0  0
    0.0420   26.4429   62.0909 O   0  0  0  0  0
    3.5949   26.5880   64.2507 O   0  0  0  0  0
    5.8115   23.2952   67.4130 O   0  0  0  0  0
    2.0482   31.7925   64.8167 F   0  0  0  0  0
    0.9312   32.1113   62.8694 F   0  0  0  0  0
  1 25  1  0  0  0
  1 20  1  0  0  0
  3  2  1  0  0  0
  3 26  1  0  0  0
  4 26  1  0  0  0
  4  5  1  0  0  0
  4 10  1  0  0  0
  5 28  1  0  0  0
  6 31  1  0  0  0
  7  6  1  0  0  0
  7  8  1  0  0  0
  8  9  1  0  0  0
  9  7  1  0  0  0
 10 11  1  0  0  0
 11 35  1  0  0  0
 11 36  1  0  0  0
 11 12  1  0  0  0
 12 26  1  0  0  0
 14 15  1  0  0  0
 16 17  1  0  0  0
 18 17  1  0  0  0
 19 13  1  0  0  0
 21 29  1  0  0  0
 22 30  1  0  0  0
 22 34  1  0  0  0
 23 34  1  0  0  0
 24 20  1  0  0  0
 25  2  1  0  0  0
 25 13  1  0  0  0
 27 31  1  0  0  0
  1 33  2  0  0  0
  2 32  2  0  0  0
  5 27  2  0  0  0
  6 28  2  0  0  0
 13 14  2  0  0  0
 15 16  2  0  0  0
 17 19  2  0  0  0
 20 29  2  0  0  0
 21 30  2  0  0  0
 22 24  2  0  0  0
M  END
> <rmsd>
0.563537598

$$$$
VXBVDXDDSRXEIO-UHFFFAOYSA-N


 32 34  0  0  0  0  0  0  0  0999 V2000
    3.3502   23.1725   65.3520 C   0  0  0  0  0
    2.0826   24.7063   63.8832 C   0  0  0  0  0
    1.7760   25.9647   63.5191 C   0  0  0  0  0
    0.4777   26.1821   62.8162 C   0  0  0  0  0
   -0.6034   25.1553   62.9042 C   0  0  0  0  0
    3.5335   29.4167   63.3210 C   0  0  0  0  0
    2.6560   27.1212   63.8509 C   0  0  0  0  0
    4.5872   24.6911   63.7834 C   0  0  0  0  0
    4.8290   23.8850   62.5475 C   0  0  0  0  0
    5.6522   22.7483   62.5795 C   0  0  0  0  0
    5.8490   21.9972   61.4165 C   0  0  0  0  0
    5.2269   22.3745   60.2232 C   0  0  0  0  0
    4.4064   23.5053   60.1896 C   0  0  0  0  0
    4.2074   24.2584   61.3499 C   0  0  0  0  0
    4.5106   22.9146   66.2397 C   0  0  0  0  0
    4.8182   21.6199   66.7083 C   0  0  0  0  0
    4.3035   19.1954   66.7383 C   0  0  0  0  0
    5.9175   21.4433   67.5617 C   0  0  0  0  0
    6.6889   22.5422   67.9358 C   0  0  0  0  0
    5.3177   23.9853   66.6490 C   0  0  0  0  0
    3.3405   24.2835   64.4360 N   0  0  0  0  0
    0.2450   27.2347   62.0928 N   0  0  0  0  0
    2.6072   28.3229   63.0754 N   0  0  0  0  0
    6.3765   23.7806   67.4753 N   0  0  0  0  0
    1.4037   28.4916   61.8564 S   0  0  0  0  0
    0.7257   29.8253   61.9948 O   0  0  0  0  0
    2.0282   28.3616   60.4962 O   0  0  0  0  0
    3.4182   27.0661   64.8550 O   0  0  0  0  0
    2.3396   22.4201   65.4234 O   0  0  0  0  0
    4.0412   20.5250   66.3100 O   0  0  0  0  0
    6.2705   22.3719   63.7261 F   0  0  0  0  0
    8.0620   22.3249   68.9986 Cl  0  0  0  0  0
  1 21  1  0  0  0
  1 15  1  0  0  0
  3  4  1  0  0  0
  5  4  1  0  0  0
  6 23  1  0  0  0
  7  3  1  0  0  0
  8 21  1  0  0  0
  8  9  1  0  0  0
 10 31  1  0  0  0
 10 11  1  0  0  0
 12 13  1  0  0  0
 14  9  1  0  0  0
 16 30  1  0  0  0
 16 18  1  0  0  0
 17 30  1  0  0  0
 19 32  1  0  0  0
 19 24  1  0  0  0
 20 15  1  0  0  0
 21  2  1  0  0  0
 23  7  1  0  0  0
 25 22  1  0  0  0
 25 23  1  0  0  0
  1 29  2  0  0  0
  2  3  2  0  0  0
  4 22  2  0  0  0
  7 28  2  0  0  0
  9 10  2  0  0  0
 11 12  2  0  0  0
 13 14  2  0  0  0
 15 16  2  0  0  0
 18 19  2  0  0  0
 20 24  2  0  0  0
 25 26  2  0  0  0
 25 27  2  0  0  0
M  END
> <rmsd>
0.795186758

$$$$
PCIHIXFVRZNRLI-UHFFFAOYSA-N


 27 29  0  0  0  0  0  0  0  0999 V2000
    1.3024   28.8047   61.7919 C   0  0  0  0  0
    1.0725   26.5161   62.7971 C   0  0  0  0  0
    1.6997   25.3271   63.4574 C   0  0  0  0  0
    1.2125   25.1721   64.9021 C   0  0  0  0  0
    1.5270   23.7820   65.4695 C   0  0  0  0  0
    2.8570   21.8500   65.3319 C   0  0  0  0  0
    4.0177   21.9840   66.2649 C   0  0  0  0  0
    5.5171   21.5599   67.6676 C   0  0  0  0  0
    2.0103   22.8041   63.3643 C   0  0  0  0  0
    1.4772   24.0533   62.6406 C   0  0  0  0  0
    3.3466   27.4153   62.2472 C   0  0  0  0  0
    3.9802   28.2010   63.3891 C   0  0  0  0  0
    3.6468   28.6689   65.6482 C   0  0  0  0  0
    4.7415   26.7113   65.0245 C   0  0  0  0  0
    1.8900   29.5744   60.6756 C   0  0  0  0  0
    1.4219   30.8735   60.3322 C   0  0  0  0  0
    1.8919   27.5713   62.2537 N   0  0  0  0  0
    2.5667   23.1189   64.6825 N   0  0  0  0  0
    5.6283   22.8633   67.3396 N   0  0  0  0  0
    4.5013   20.9686   67.0018 N   0  0  0  0  0
    3.6470   27.5979   64.6694 N   0  0  0  0  0
    2.8839   29.0690   59.8986 N   0  0  0  0  0
    2.0261   31.4693   59.2725 N   0  0  0  0  0
    4.6885   23.0875   66.4738 O   0  0  0  0  0
   -0.1846   26.5707   62.6983 O   0  0  0  0  0
    0.2601   29.2437   62.3507 O   0  0  0  0  0
    3.1114   30.3078   58.8341 S   0  0  0  0  0
  1 17  1  0  0  0
  1 15  1  0  0  0
  3  2  1  0  0  0
  3  4  1  0  0  0
  4  5  1  0  0  0
  5 18  1  0  0  0
  6 18  1  0  0  0
  6  7  1  0  0  0
  7 24  1  0  0  0
  8 20  1  0  0  0
  9 18  1  0  0  0
  9 10  1  0  0  0
 10  3  1  0  0  0
 11 17  1  0  0  0
 11 12  1  0  0  0
 12 21  1  0  0  0
 13 21  1  0  0  0
 14 21  1  0  0  0
 16 15  1  0  0  0
 17  2  1  0  0  0
 22 27  1  0  0  0
 24 19  1  0  0  0
 27 23  1  0  0  0
  1 26  2  0  0  0
  2 25  2  0  0  0
  7 20  2  0  0  0
  8 19  2  0  0  0
 15 22  2  0  0  0
 16 23  2  0  0  0
M  END
> <rmsd>
0.728227615

$$$$
IOXRKXGWEKKOJM-UHFFFAOYSA-N


 35 39  0  0  0  0  0  0  0  0999 V2000
    0.4823   27.1337   62.7313 C   0  0  0  0  0
    1.7802   28.4075   64.4597 C   0  0  0  0  0
    3.0647   27.7122   64.1400 C   0  0  0  0  0
    2.9160   25.3809   64.3151 C   0  0  0  0  0
    3.2036   24.1790   65.1568 C   0  0  0  0  0
    4.9177   22.9634   66.5571 C   0  0  0  0  0
    5.0043   20.5949   66.6303 C   0  0  0  0  0
    5.9877   20.6514   67.6142 C   0  0  0  0  0
    6.4233   21.9003   68.0491 C   0  0  0  0  0
    4.9591   25.4621   66.3936 C   0  0  0  0  0
    4.6912   26.5437   65.3461 C   0  0  0  0  0
   -0.7406   28.4234   64.4966 C   0  0  0  0  0
   -1.5814   27.2665   65.0166 C   0  0  0  0  0
   -0.8106   28.1248   65.9880 C   0  0  0  0  0
    1.2989   27.4707   61.5426 C   0  0  0  0  0
    1.6058   28.8008   61.1907 C   0  0  0  0  0
    1.4476   31.2197   61.7011 C   0  0  0  0  0
    2.8112   31.5021   62.2638 C   0  0  0  0  0
    2.5477   32.4167   63.4386 C   0  0  0  0  0
    0.5442   32.1123   62.5163 C   0  0  0  0  0
    2.8568   28.0471   59.3092 C   0  0  0  0  0
    2.5581   26.7196   59.6105 C   0  0  0  0  0
    1.7749   26.4362   60.7283 C   0  0  0  0  0
    0.5224   27.9341   63.9307 N   0  0  0  0  0
    3.2626   26.5959   65.0487 N   0  0  0  0  0
    4.3776   24.1750   65.9943 N   0  0  0  0  0
    4.4912   21.7448   66.1207 N   0  0  0  0  0
    5.8852   23.0276   67.5153 N   0  0  0  0  0
    2.3782   29.0478   60.0943 N   0  0  0  0  0
    2.4072   23.2033   65.1385 O   0  0  0  0  0
    1.8093   29.3954   65.2416 O   0  0  0  0  0
   -0.2544   26.1111   62.6938 O   0  0  0  0  0
    1.1017   29.8628   61.9481 O   0  0  0  0  0
    1.1778   32.3813   63.7371 O   0  0  0  0  0
    6.5121   19.5161   68.1343 F   0  0  0  0  0
  1 24  1  0  0  0
  1 15  1  0  0  0
  3  2  1  0  0  0
  3 25  1  0  0  0
  4 25  1  0  0  0
  4  5  1  0  0  0
  5 26  1  0  0  0
  6 28  1  0  0  0
  7 27  1  0  0  0
  8 35  1  0  0  0
  8  9  1  0  0  0
 10 26  1  0  0  0
 10 11  1  0  0  0
 11 25  1  0  0  0
 12 24  1  0  0  0
 12 13  1  0  0  0
 13 14  1  0  0  0
 14 12  1  0  0  0
 15 16  1  0  0  0
 16 33  1  0  0  0
 17 33  1  0  0  0
 17 18  1  0  0  0
 18 19  1  0  0  0
 19 34  1  0  0  0
 20 34  1  0  0  0
 20 17  1  0  0  0
 21 29  1  0  0  0
 22 23  1  0  0  0
 24  2  1  0  0  0
 26  6  1  0  0  0
  1 32  2  0  0  0
  2 31  2  0  0  0
  5 30  2  0  0  0
  6 27  2  0  0  0
  7  8  2  0  0  0
  9 28  2  0  0  0
 16 29  2  0  0  0
 21 22  2  0  0  0
 23 15  2  0  0  0
M  END
> <rmsd>
0.634797871

$$$$
PUNGIARWDUOCPR-UHFFFAOYSA-N


 32 35  0  0  0  0  0  0  0  0999 V2000
    3.0338   25.5408   64.3447 C   0  0  0  0  0
    0.6154   25.7912   63.8095 C   0  0  0  0  0
   -0.4860   25.5907   62.8168 C   0  0  0  0  0
   -0.5931   27.3067   61.2301 C   0  0  0  0  0
    0.4701   28.2081   60.6225 C   0  0  0  0  0
    1.4954   28.6124   61.6683 C   0  0  0  0  0
    1.8186   29.6462   63.6491 C   0  0  0  0  0
    3.1566   30.1968   63.1614 C   0  0  0  0  0
    3.6124   29.3118   62.0039 C   0  0  0  0  0
   -0.6660   25.0763   60.5517 C   0  0  0  0  0
    1.8663   23.7454   63.0577 C   0  0  0  0  0
    2.9913   23.3909   62.2953 C   0  0  0  0  0
    3.0390   22.1629   61.6302 C   0  0  0  0  0
    1.9639   21.2759   61.7227 C   0  0  0  0  0
    0.8412   21.6158   62.4813 C   0  0  0  0  0
    0.7932   22.8436   63.1469 C   0  0  0  0  0
    4.0070   24.6733   65.0475 C   0  0  0  0  0
    3.6110   23.5836   65.8487 C   0  0  0  0  0
    4.5983   22.7904   66.4702 C   0  0  0  0  0
    2.9103   21.4441   67.4389 C   0  0  0  0  0
    1.9294   22.2368   66.8396 C   0  0  0  0  0
    6.3164   24.1440   65.5575 C   0  0  0  0  0
    5.3734   24.9535   64.9205 C   0  0  0  0  0
    1.8271   25.0067   63.7603 N   0  0  0  0  0
   -0.0387   25.9879   61.4919 N   0  0  0  0  0
    4.2228   21.7388   67.2442 N   0  0  0  0  0
    2.2994   23.2889   66.0629 N   0  0  0  0  0
    5.9146   23.0854   66.3091 N   0  0  0  0  0
    0.9170   29.5234   62.5752 O   0  0  0  0  0
    2.5980   29.2147   61.0329 O   0  0  0  0  0
    0.4778   26.6892   64.6827 O   0  0  0  0  0
    3.2850   26.7717   64.2320 O   0  0  0  0  0
  1 24  1  0  0  0
  1 17  1  0  0  0
  3  2  1  0  0  0
  3 25  1  0  0  0
  4 25  1  0  0  0
  4  5  1  0  0  0
  5  6  1  0  0  0
  6 29  1  0  0  0
  6 30  1  0  0  0
  7 29  1  0  0  0
  7  8  1  0  0  0
  8  9  1  0  0  0
  9 30  1  0  0  0
 10 25  1  0  0  0
 12 13  1  0  0  0
 14 15  1  0  0  0
 16 11  1  0  0  0
 17 18  1  0  0  0
 18 19  1  0  0  0
 19 28  1  0  0  0
 20 26  1  0  0  0
 21 27  1  0  0  0
 22 23  1  0  0  0
 24  2  1  0  0  0
 24 11  1  0  0  0
  1 32  2  0  0  0
  2 31  2  0  0  0
 11 12  2  0  0  0
 13 14  2  0  0  0
 15 16  2  0  0  0
 18 27  2  0  0  0
 19 26  2  0  0  0
 20 21  2  0  0  0
 22 28  2  0  0  0
 23 17  2  0  0  0
M  END
> <rmsd>
0.723680675

$$$$
PLQBPJCOEKCHJI-UHFFFAOYSA-N


 33 36  0  0  0  0  0  0  0  0999 V2000
    4.1550   23.8973   65.3414 C   0  0  0  0  0
    4.4361   26.0939   64.1536 C   0  0  0  0  0
    5.3338   27.1445   63.5535 C   0  0  0  0  0
    4.2259   29.1378   62.6253 C   0  0  0  0  0
    3.4240   29.7621   61.5326 C   0  0  0  0  0
    1.4373   28.2827   61.6210 C   0  0  0  0  0
    0.0634   28.1601   63.5489 C   0  0  0  0  0
   -0.7336   27.2015   62.9216 C   0  0  0  0  0
    0.6377   27.3246   60.9942 C   0  0  0  0  0
    6.6427   26.5621   63.0359 C   0  0  0  0  0
    7.2552   25.6474   64.0805 C   0  0  0  0  0
    6.3413   24.4458   64.2711 C   0  0  0  0  0
    4.6938   23.0500   66.4232 C   0  0  0  0  0
    4.3977   21.2723   67.9565 C   0  0  0  0  0
    5.6735   21.4891   68.4723 C   0  0  0  0  0
    6.4517   22.5189   67.9309 C   0  0  0  0  0
    8.6076   23.7948   67.7769 C   0  0  0  0  0
    9.5739   24.4000   68.7949 C   0  0  0  0  0
    9.3721   22.7234   70.2811 C   0  0  0  0  0
    8.3817   21.9171   69.4410 C   0  0  0  0  0
    4.9857   24.8536   64.6540 N   0  0  0  0  0
    1.1292   28.6811   62.8868 N   0  0  0  0  0
   -0.4295   26.8056   61.6573 N   0  0  0  0  0
    3.9314   22.0528   66.9480 N   0  0  0  0  0
    7.7713   22.7884   68.4336 N   0  0  0  0  0
    5.9385   23.2769   66.9233 N   0  0  0  0  0
    3.2129   26.3592   64.3103 O   0  0  0  0  0
    4.6656   27.8192   62.4966 O   0  0  0  0  0
    4.5095   29.8153   63.6494 O   0  0  0  0  0
    2.5419   28.8096   60.9459 O   0  0  0  0  0
    2.9413   23.7751   65.0207 O   0  0  0  0  0
   10.2895   23.3770   69.4405 O   0  0  0  0  0
   -0.3018   28.6842   65.1779 Cl  0  0  0  0  0
  1 21  1  0  0  0
  1 13  1  0  0  0
  3  2  1  0  0  0
  3 28  1  0  0  0
  3 10  1  0  0  0
  4 28  1  0  0  0
  5  4  1  0  0  0
  5 30  1  0  0  0
  6 30  1  0  0  0
  7 22  1  0  0  0
  7 33  1  0  0  0
  8 23  1  0  0  0
  9  6  1  0  0  0
 10 11  1  0  0  0
 11 12  1  0  0  0
 12 21  1  0  0  0
 13 26  1  0  0  0
 14 24  1  0  0  0
 15 16  1  0  0  0
 16 25  1  0  0  0
 17 25  1  0  0  0
 17 18  1  0  0  0
 18 32  1  0  0  0
 19 32  1  0  0  0
 19 20  1  0  0  0
 20 25  1  0  0  0
 21  2  1  0  0  0
  1 31  2  0  0  0
  2 27  2  0  0  0
  4 29  2  0  0  0
  6 22  2  0  0  0
  7  8  2  0  0  0
  9 23  2  0  0  0
 13 24  2  0  0  0
 14 15  2  0  0  0
 16 26  2  0  0  0
M  END
> <rmsd>
0.640775084

$$$$
XELZBDVANSMXQR-UHFFFAOYSA-N


 34 37  0  0  0  0  0  0  0  0999 V2000
    2.6331   25.4098   64.3563 C   0  0  0  0  0
    0.4063   26.2298   63.5750 C   0  0  0  0  0
    0.2596   27.1144   64.7774 C   0  0  0  0  0
    1.2329   29.1880   64.2127 C   0  0  0  0  0
    1.6527   29.1572   62.7816 C   0  0  0  0  0
    1.7099   29.3787   60.7103 C   0  0  0  0  0
    1.3667   29.7209   59.3213 C   0  0  0  0  0
    0.1709   30.3926   59.0321 C   0  0  0  0  0
   -0.1588   30.7072   57.7103 C   0  0  0  0  0
    0.7048   30.3516   56.6700 C   0  0  0  0  0
    1.8984   29.6818   56.9510 C   0  0  0  0  0
    2.2281   29.3674   58.2725 C   0  0  0  0  0
   -0.7051   29.1075   65.5037 C   0  0  0  0  0
    1.4922   24.2591   62.4603 C   0  0  0  0  0
    0.3006   23.6033   62.1096 C   0  0  0  0  0
    0.3033   22.5971   61.1394 C   0  0  0  0  0
    1.4983   22.2328   60.5126 C   0  0  0  0  0
    2.6907   22.8746   60.8558 C   0  0  0  0  0
    2.6881   23.8812   61.8254 C   0  0  0  0  0
    3.1920   24.2303   65.0490 C   0  0  0  0  0
    3.0347   21.9425   65.6450 C   0  0  0  0  0
    4.8681   23.2098   66.4390 C   0  0  0  0  0
    6.6069   22.1904   67.8548 C   0  0  0  0  0
    4.3776   24.3385   65.7828 C   0  0  0  0  0
    1.4974   25.2875   63.4753 N   0  0  0  0  0
   -0.0323   28.4852   64.3785 N   0  0  0  0  0
    2.8369   28.7280   61.0642 N   0  0  0  0  0
    0.9280   29.6741   61.7714 N   0  0  0  0  0
    2.5445   23.0341   65.0007 N   0  0  0  0  0
    4.1879   22.0335   66.3571 N   0  0  0  0  0
    2.7628   28.6108   62.3544 O   0  0  0  0  0
   -0.4620   26.2990   62.6627 O   0  0  0  0  0
    3.1502   26.5438   64.5512 O   0  0  0  0  0
    6.0528   23.3048   67.1702 O   0  0  0  0  0
  1 25  1  0  0  0
  1 20  1  0  0  0
  3  2  1  0  0  0
  3 26  1  0  0  0
  4 26  1  0  0  0
  4  5  1  0  0  0
  5 31  1  0  0  0
  6  7  1  0  0  0
  6 28  1  0  0  0
  8  9  1  0  0  0
 10 11  1  0  0  0
 12  7  1  0  0  0
 13 26  1  0  0  0
 15 16  1  0  0  0
 17 18  1  0  0  0
 19 14  1  0  0  0
 21 29  1  0  0  0
 22 30  1  0  0  0
 22 34  1  0  0  0
 23 34  1  0  0  0
 24 20  1  0  0  0
 25  2  1  0  0  0
 25 14  1  0  0  0
 31 27  1  0  0  0
  1 33  2  0  0  0
  2 32  2  0  0  0
  5 28  2  0  0  0
  6 27  2  0  0  0
  7  8  2  0  0  0
  9 10  2  0  0  0
 11 12  2  0  0  0
 14 15  2  0  0  0
 16 17  2  0  0  0
 18 19  2  0  0  0
 20 29  2  0  0  0
 21 30  2  0  0  0
 22 24  2  0  0  0
M  END
> <rmsd>
0.615286469

$$$$
UOBWRMYPOQCIBB-UHFFFAOYSA-N


 29 31  0  0  0  0  0  0  0  0999 V2000
    4.6315   22.7603   66.0614 C   0  0  0  0  0
    2.7171   24.1474   65.2068 C   0  0  0  0  0
    2.2721   25.2495   64.2895 C   0  0  0  0  0
    4.4134   25.8608   63.8943 C   0  0  0  0  0
    5.3190   27.0283   63.5498 C   0  0  0  0  0
    4.3679   29.0328   62.4878 C   0  0  0  0  0
    3.5927   29.6160   61.3546 C   0  0  0  0  0
    1.5317   28.2570   61.5722 C   0  0  0  0  0
    0.1636   28.3810   63.5051 C   0  0  0  0  0
   -0.6782   27.4036   62.9734 C   0  0  0  0  0
    0.6872   27.2810   61.0404 C   0  0  0  0  0
    5.0578   25.0012   64.9828 C   0  0  0  0  0
    5.8825   22.7711   66.8542 C   0  0  0  0  0
    6.5495   21.6828   67.3765 C   0  0  0  0  0
    6.1794   20.2428   67.2641 C   0  0  0  0  0
    5.3636   19.8280   68.4702 C   0  0  0  0  0
    7.5867   23.4387   67.9488 C   0  0  0  0  0
    4.1290   23.9549   65.4301 N   0  0  0  0  0
    1.2480   28.7870   62.7951 N   0  0  0  0  0
   -0.3981   26.8753   61.7521 N   0  0  0  0  0
    6.5401   23.8884   67.2218 N   0  0  0  0  0
    1.8607   23.3859   65.7324 O   0  0  0  0  0
    3.1685   26.3354   64.3507 O   0  0  0  0  0
    4.7908   27.7059   62.4203 O   0  0  0  0  0
    4.6244   29.7433   63.4977 O   0  0  0  0  0
    2.6587   28.6649   60.8500 O   0  0  0  0  0
    3.9960   21.6767   65.9341 O   0  0  0  0  0
    7.5865   22.1262   68.0397 O   0  0  0  0  0
   -0.1705   29.0774   65.0769 Cl  0  0  0  0  0
  1 18  1  0  0  0
  1 13  1  0  0  0
  3  2  1  0  0  0
  3 23  1  0  0  0
  4 23  1  0  0  0
  4  5  1  0  0  0
  4 12  1  0  0  0
  5 24  1  0  0  0
  6 24  1  0  0  0
  7  6  1  0  0  0
  7 26  1  0  0  0
  8 26  1  0  0  0
  9 19  1  0  0  0
  9 29  1  0  0  0
 10 20  1  0  0  0
 11  8  1  0  0  0
 12 18  1  0  0  0
 13 21  1  0  0  0
 14 28  1  0  0  0
 15 14  1  0  0  0
 15 16  1  0  0  0
 17 28  1  0  0  0
 18  2  1  0  0  0
  1 27  2  0  0  0
  2 22  2  0  0  0
  6 25  2  0  0  0
  8 19  2  0  0  0
  9 10  2  0  0  0
 11 20  2  0  0  0
 13 14  2  0  0  0
 17 21  2  0  0  0
M  END
> <rmsd>
0.702640176

$$$$
XZVSYYABUADCQJ-UHFFFAOYSA-N


 34 37  0  0  0  0  0  0  0  0999 V2000
    0.5100   27.5756   61.7297 C   0  0  0  0  0
    2.0517   26.1556   63.1194 C   0  0  0  0  0
    3.4418   25.8560   63.6455 C   0  0  0  0  0
    3.0326   25.5438   65.9831 C   0  0  0  0  0
    3.8202   24.3029   66.2651 C   0  0  0  0  0
    5.8763   25.2744   67.3806 C   0  0  0  0  0
    5.3855   26.5728   67.5891 C   0  0  0  0  0
    6.2116   27.5702   68.1175 C   0  0  0  0  0
    7.5371   27.2763   68.4486 C   0  0  0  0  0
    8.0340   25.9848   68.2566 C   0  0  0  0  0
    7.2065   24.9888   67.7273 C   0  0  0  0  0
    3.2272   27.7399   65.1711 C   0  0  0  0  0
    4.5366   26.2677   62.6600 C   0  0  0  0  0
    4.3381   27.7028   62.1990 C   0  0  0  0  0
    2.9997   27.8325   61.5495 C   0  0  0  0  0
    0.2068   28.9727   61.2972 C   0  0  0  0  0
    1.0407   30.8227   62.1764 C   0  0  0  0  0
    1.8300   31.0970   63.4092 C   0  0  0  0  0
    1.1987   31.5887   64.5588 C   0  0  0  0  0
    1.9476   31.8506   65.7111 C   0  0  0  0  0
    3.3285   31.6236   65.7159 C   0  0  0  0  0
    3.9606   31.1364   64.5670 C   0  0  0  0  0
    3.2120   30.8754   63.4142 C   0  0  0  0  0
    1.8438   27.1953   62.1350 N   0  0  0  0  0
    3.7155   26.3748   64.9993 N   0  0  0  0  0
    5.0386   24.2330   66.8444 N   0  0  0  0  0
    5.3585   22.9500   66.8516 N   0  0  0  0  0
    4.3724   22.2559   66.3033 N   0  0  0  0  0
    3.3975   23.0717   65.9277 N   0  0  0  0  0
    1.0774   25.5051   63.5852 O   0  0  0  0  0
    2.9084   28.4686   60.4651 O   0  0  0  0  0
    0.1208   29.8010   62.4168 O   0  0  0  0  0
   -0.4374   26.7458   61.7821 O   0  0  0  0  0
    8.3402   28.2425   68.9560 F   0  0  0  0  0
  1 24  1  0  0  0
  3  2  1  0  0  0
  3 25  1  0  0  0
  3 13  1  0  0  0
  4 25  1  0  0  0
  4  5  1  0  0  0
  5 26  1  0  0  0
  7  8  1  0  0  0
  9 34  1  0  0  0
  9 10  1  0  0  0
 11  6  1  0  0  0
 12 25  1  0  0  0
 13 14  1  0  0  0
 14 15  1  0  0  0
 15 24  1  0  0  0
 16  1  1  0  0  0
 16 32  1  0  0  0
 17 32  1  0  0  0
 17 18  1  0  0  0
 19 20  1  0  0  0
 21 22  1  0  0  0
 23 18  1  0  0  0
 24  2  1  0  0  0
 26  6  1  0  0  0
 26 27  1  0  0  0
 28 29  1  0  0  0
  1 33  2  0  0  0
  2 30  2  0  0  0
  5 29  2  0  0  0
  6  7  2  0  0  0
  8  9  2  0  0  0
 10 11  2  0  0  0
 15 31  2  0  0  0
 18 19  2  0  0  0
 20 21  2  0  0  0
 22 23  2  0  0  0
 27 28  2  0  0  0
M  END
> <rmsd>
0.756717026

$$$$
ATLLCECWCICFPT-UHFFFAOYSA-N


 36 41  0  0  0  0  0  0  0  0999 V2000
    2.8883   25.8466   65.4211 C   0  0  0  0  0
    0.6729   26.5914   64.4276 C   0  0  0  0  0
   -0.4861   26.0514   63.6675 C   0  0  0  0  0
   -0.5547   27.8434   62.0764 C   0  0  0  0  0
    0.6889   28.4391   61.5059 C   0  0  0  0  0
    2.4128   29.5774   61.2363 C   0  0  0  0  0
    3.5125   30.5316   61.4314 C   0  0  0  0  0
    5.5175   31.5259   60.6250 C   0  0  0  0  0
    5.6096   32.3231   61.7676 C   0  0  0  0  0
    4.6290   32.2143   62.7545 C   0  0  0  0  0
    3.5739   31.3156   62.5900 C   0  0  0  0  0
   -1.7275   28.1076   61.1581 C   0  0  0  0  0
   -2.5323   26.8462   61.2193 C   0  0  0  0  0
   -1.5173   25.7749   61.5362 C   0  0  0  0  0
   -0.3036   24.5363   63.8624 C   0  0  0  0  0
    1.1205   24.3019   64.3774 C   0  0  0  0  0
    3.7697   24.7517   65.8656 C   0  0  0  0  0
    4.5762   22.8818   66.3246 C   0  0  0  0  0
    4.7578   21.4330   66.4831 C   0  0  0  0  0
    3.9184   19.2295   66.2292 C   0  0  0  0  0
    5.0945   18.7165   66.7782 C   0  0  0  0  0
    5.9358   20.9153   67.0331 C   0  0  0  0  0
    1.6087   25.5979   64.8079 N   0  0  0  0  0
   -0.3900   26.3942   62.2389 N   0  0  0  0  0
    2.2967   28.7867   60.1510 N   0  0  0  0  0
    4.4817   30.6556   60.4820 N   0  0  0  0  0
    1.4124   29.3909   62.1238 N   0  0  0  0  0
    5.4962   23.7991   66.6830 N   0  0  0  0  0
    3.7761   20.5744   66.0939 N   0  0  0  0  0
    6.0773   19.5703   67.1681 N   0  0  0  0  0
    3.4648   23.4407   65.8023 N   0  0  0  0  0
    0.7880   27.8041   64.7500 O   0  0  0  0  0
    1.2168   28.0970   60.3563 O   0  0  0  0  0
    3.2799   27.0327   65.5893 O   0  0  0  0  0
    4.9591   24.9421   66.3835 O   0  0  0  0  0
   -3.1188   26.5970   59.9937 F   0  0  0  0  0
  1 23  1  0  0  0
  1 17  1  0  0  0
  3  2  1  0  0  0
  3 24  1  0  0  0
  3 15  1  0  0  0
  4 24  1  0  0  0
  4  5  1  0  0  0
  4 12  1  0  0  0
  5 33  1  0  0  0
  6  7  1  0  0  0
  6 27  1  0  0  0
  8 26  1  0  0  0
  9 10  1  0  0  0
 11  7  1  0  0  0
 12 13  1  0  0  0
 13 36  1  0  0  0
 13 14  1  0  0  0
 14 24  1  0  0  0
 15 16  1  0  0  0
 16 23  1  0  0  0
 17 35  1  0  0  0
 18 19  1  0  0  0
 18 31  1  0  0  0
 20 29  1  0  0  0
 21 30  1  0  0  0
 22 19  1  0  0  0
 23  2  1  0  0  0
 33 25  1  0  0  0
 35 28  1  0  0  0
  1 34  2  0  0  0
  2 32  2  0  0  0
  5 27  2  0  0  0
  6 25  2  0  0  0
  7 26  2  0  0  0
  8  9  2  0  0  0
 10 11  2  0  0  0
 17 31  2  0  0  0
 18 28  2  0  0  0
 19 29  2  0  0  0
 20 21  2  0  0  0
 22 30  2  0  0  0
M  END
> <rmsd>
0.74831903

$$$$
CWQCJLSYSDTMKU-UHFFFAOYSA-N


 33 36  0  0  0  0  0  0  0  0999 V2000
    0.2972   27.2998   62.8267 C   0  0  0  0  0
    1.4552   28.2703   64.8162 C   0  0  0  0  0
    2.7970   27.7249   64.4442 C   0  0  0  0  0
    2.6863   25.3828   64.5834 C   0  0  0  0  0
    3.0753   24.1713   65.3704 C   0  0  0  0  0
    4.9440   22.9434   66.5480 C   0  0  0  0  0
    6.6318   21.8740   67.8260 C   0  0  0  0  0
    6.1120   20.6278   67.4885 C   0  0  0  0  0
    4.9910   20.5741   66.6650 C   0  0  0  0  0
    4.9817   25.4406   66.3797 C   0  0  0  0  0
    4.5737   26.5383   65.3950 C   0  0  0  0  0
   -0.9719   27.6592   64.9334 C   0  0  0  0  0
   -2.7818   27.4579   66.6047 C   0  0  0  0  0
   -3.1786   27.3777   65.2695 C   0  0  0  0  0
    0.9908   28.0635   61.7687 C   0  0  0  0  0
    2.0302   30.0596   61.0324 C   0  0  0  0  0
    1.8403   28.2441   59.5268 C   0  0  0  0  0
    2.7154   28.3938   57.2311 C   0  0  0  0  0
    1.2000   27.4918   60.5102 C   0  0  0  0  0
    0.2579   27.7708   64.1887 N   0  0  0  0  0
    3.1188   26.5868   65.2892 N   0  0  0  0  0
    4.3490   24.1576   66.0478 N   0  0  0  0  0
    6.0427   23.0029   67.3521 N   0  0  0  0  0
    4.4322   21.7258   66.2091 N   0  0  0  0  0
   -2.1788   27.4866   64.3524 N   0  0  0  0  0
    1.4077   29.3380   62.0002 N   0  0  0  0  0
    2.2427   29.5142   59.8066 N   0  0  0  0  0
    2.2771   23.1997   65.4510 O   0  0  0  0  0
    1.3850   29.1489   65.7164 O   0  0  0  0  0
   -0.2875   26.2222   62.5268 O   0  0  0  0  0
    2.0576   27.6816   58.2690 O   0  0  0  0  0
    6.6818   19.4898   67.9527 F   0  0  0  0  0
   -1.1110   27.6732   66.6076 S   0  0  0  0  0
  1 20  1  0  0  0
  1 15  1  0  0  0
  3  2  1  0  0  0
  3 21  1  0  0  0
  4 21  1  0  0  0
  4  5  1  0  0  0
  5 22  1  0  0  0
  6 24  1  0  0  0
  7 23  1  0  0  0
  8 32  1  0  0  0
  8  9  1  0  0  0
 10 22  1  0  0  0
 10 11  1  0  0  0
 11 21  1  0  0  0
 12 33  1  0  0  0
 13 33  1  0  0  0
 14 25  1  0  0  0
 16 26  1  0  0  0
 17 27  1  0  0  0
 17 31  1  0  0  0
 18 31  1  0  0  0
 19 15  1  0  0  0
 20  2  1  0  0  0
 20 12  1  0  0  0
 22  6  1  0  0  0
  1 30  2  0  0  0
  2 29  2  0  0  0
  5 28  2  0  0  0
  6 23  2  0  0  0
  7  8  2  0  0  0
  9 24  2  0  0  0
 12 25  2  0  0  0
 13 14  2  0  0  0
 15 26  2  0  0  0
 16 27  2  0  0  0
 17 19  2  0  0  0
M  END
> <rmsd>
0.659981012

$$$$
HHKSWKHDWFQMNA-UHFFFAOYSA-N


 37 41  0  0  0  0  0  0  0  0999 V2000
    3.0123   26.0632   64.8111 C   0  0  0  0  0
    1.0554   26.5039   63.2492 C   0  0  0  0  0
    0.7797   27.8825   63.7948 C   0  0  0  0  0
    0.4404   28.9795   61.6870 C   0  0  0  0  0
    0.8005   30.2056   60.8504 C   0  0  0  0  0
    2.2939   30.2131   60.5242 C   0  0  0  0  0
    3.1527   29.4987   58.3293 C   0  0  0  0  0
    4.0282   31.0722   56.7934 C   0  0  0  0  0
    4.2565   30.0566   55.8667 C   0  0  0  0  0
    3.9142   28.7525   56.2180 C   0  0  0  0  0
    3.1350   30.0239   61.7881 C   0  0  0  0  0
    2.6495   28.8158   62.5846 C   0  0  0  0  0
    2.6584   24.6679   62.7577 C   0  0  0  0  0
    3.6276   25.1960   61.7559 C   0  0  0  0  0
    4.9972   25.2089   62.0443 C   0  0  0  0  0
    5.9022   25.7349   61.1177 C   0  0  0  0  0
    5.4386   26.2460   59.9026 C   0  0  0  0  0
    6.3962   26.8149   58.9192 C   0  0  0  0  0
    4.0706   26.2349   59.6163 C   0  0  0  0  0
    3.1646   25.7139   60.5426 C   0  0  0  0  0
    3.9298   25.0737   65.4172 C   0  0  0  0  0
    3.5429   23.7453   65.6794 C   0  0  0  0  0
    4.4768   22.8564   66.2514 C   0  0  0  0  0
    2.8524   21.1362   66.2316 C   0  0  0  0  0
    1.9204   22.0171   65.6795 C   0  0  0  0  0
    6.1144   24.5677   66.3340 C   0  0  0  0  0
    5.2233   25.4808   65.7662 C   0  0  0  0  0
    2.2149   25.7404   63.6472 N   0  0  0  0  0
    1.2311   28.9720   62.9184 N   0  0  0  0  0
    3.4831   30.7782   58.0023 N   0  0  0  0  0
    3.3711   28.4979   57.4367 N   0  0  0  0  0
    4.1089   21.5745   66.5081 N   0  0  0  0  0
    2.2827   23.3007   65.4193 N   0  0  0  0  0
    5.7289   23.2840   66.5593 N   0  0  0  0  0
    2.5939   29.2000   59.5723 O   0  0  0  0  0
    0.2572   26.0290   62.3959 O   0  0  0  0  0
    2.9727   27.2196   65.3118 O   0  0  0  0  0
  1 28  1  0  0  0
  1 21  1  0  0  0
  3  2  1  0  0  0
  3 29  1  0  0  0
  4 29  1  0  0  0
  4  5  1  0  0  0
  5  6  1  0  0  0
  6 35  1  0  0  0
  6 11  1  0  0  0
  7 35  1  0  0  0
  7 31  1  0  0  0
  8 30  1  0  0  0
  9 10  1  0  0  0
 11 12  1  0  0  0
 12 29  1  0  0  0
 13 28  1  0  0  0
 13 14  1  0  0  0
 15 16  1  0  0  0
 17 19  1  0  0  0
 18 17  1  0  0  0
 20 14  1  0  0  0
 21 22  1  0  0  0
 22 23  1  0  0  0
 23 34  1  0  0  0
 24 32  1  0  0  0
 25 33  1  0  0  0
 26 27  1  0  0  0
 28  2  1  0  0  0
  1 37  2  0  0  0
  2 36  2  0  0  0
  7 30  2  0  0  0
  8  9  2  0  0  0
 10 31  2  0  0  0
 14 15  2  0  0  0
 16 17  2  0  0  0
 19 20  2  0  0  0
 22 33  2  0  0  0
 23 32  2  0  0  0
 24 25  2  0  0  0
 26 34  2  0  0  0
 27 21  2  0  0  0
M  END
> <rmsd>
0.682984591

$$$$
FULWPZHELKFTLS-UHFFFAOYSA-N


 29 32  0  0  0  0  0  0  0  0999 V2000
    3.0136   25.5389   64.1467 C   0  0  0  0  0
    0.9932   26.5383   63.0378 C   0  0  0  0  0
    1.1463   27.8320   63.7792 C   0  0  0  0  0
   -0.1482   29.8364   63.7662 C   0  0  0  0  0
    0.6293   30.5095   64.9067 C   0  0  0  0  0
    1.8131   31.2904   64.3492 C   0  0  0  0  0
    2.6914   30.3764   63.5060 C   0  0  0  0  0
    1.8352   29.7376   62.4105 C   0  0  0  0  0
    2.6584   28.9602   61.4317 C   0  0  0  0  0
    3.5204   28.2540   59.6756 C   0  0  0  0  0
    3.8745   28.0563   58.2456 C   0  0  0  0  0
    1.8683   24.3170   62.2648 C   0  0  0  0  0
    2.0376   24.7119   60.8055 C   0  0  0  0  0
    3.1790   24.0506   61.5390 C   0  0  0  0  0
    3.3315   24.3482   64.9632 C   0  0  0  0  0
    2.7949   22.1558   65.6830 C   0  0  0  0  0
    4.7171   23.2135   66.5679 C   0  0  0  0  0
    6.1578   22.0765   68.2093 C   0  0  0  0  0
    4.4525   24.3464   65.7997 C   0  0  0  0  0
    1.9911   25.4982   63.1275 N   0  0  0  0  0
    0.7038   28.9586   62.9517 N   0  0  0  0  0
    4.0532   27.5336   60.6796 N   0  0  0  0  0
    2.6319   29.1738   60.1029 N   0  0  0  0  0
    2.5249   23.2528   64.9287 N   0  0  0  0  0
    3.8840   22.1395   66.4942 N   0  0  0  0  0
    3.4935   28.0025   61.7522 O   0  0  0  0  0
   -0.0549   26.3471   62.3622 O   0  0  0  0  0
    3.6542   26.6073   64.3448 O   0  0  0  0  0
    5.8348   23.1994   67.4029 O   0  0  0  0  0
  1 20  1  0  0  0
  1 15  1  0  0  0
  3  2  1  0  0  0
  3 21  1  0  0  0
  4 21  1  0  0  0
  4  5  1  0  0  0
  5  6  1  0  0  0
  6  7  1  0  0  0
  7  8  1  0  0  0
  8  9  1  0  0  0
  8 21  1  0  0  0
  9 26  1  0  0  0
 10 23  1  0  0  0
 11 10  1  0  0  0
 12 20  1  0  0  0
 12 13  1  0  0  0
 13 14  1  0  0  0
 14 12  1  0  0  0
 16 24  1  0  0  0
 17 25  1  0  0  0
 17 29  1  0  0  0
 18 29  1  0  0  0
 19 15  1  0  0  0
 20  2  1  0  0  0
 26 22  1  0  0  0
  1 28  2  0  0  0
  2 27  2  0  0  0
  9 23  2  0  0  0
 10 22  2  0  0  0
 15 24  2  0  0  0
 16 25  2  0  0  0
 17 19  2  0  0  0
M  END
> <rmsd>
0.506882846

$$$$
PBYKKTROUMUEBU-UHFFFAOYSA-N


 32 34  0  0  0  0  0  0  0  0999 V2000
    3.6670   25.7413   64.1283 C   0  0  0  0  0
    1.8946   24.6493   62.7370 C   0  0  0  0  0
    0.7825   25.2487   63.5432 C   0  0  0  0  0
    0.2838   27.4662   62.9828 C   0  0  0  0  0
    0.5684   28.2119   61.6896 C   0  0  0  0  0
    0.8861   30.2502   60.7321 C   0  0  0  0  0
    2.2108   29.7594   60.1185 C   0  0  0  0  0
    1.8925   27.7188   61.0684 C   0  0  0  0  0
   -1.4247   25.8918   63.1637 C   0  0  0  0  0
    4.2554   23.8194   62.6407 C   0  0  0  0  0
    5.5646   24.2644   62.3897 C   0  0  0  0  0
    6.5264   23.3893   61.8779 C   0  0  0  0  0
    6.1901   22.0598   61.6117 C   0  0  0  0  0
    4.8921   21.6051   61.8571 C   0  0  0  0  0
    3.9302   22.4799   62.3694 C   0  0  0  0  0
    4.7064   25.4872   65.1531 C   0  0  0  0  0
    4.8017   24.2631   65.8666 C   0  0  0  0  0
    5.8789   24.0630   66.7574 C   0  0  0  0  0
    7.0296   22.5893   68.3856 C   0  0  0  0  0
    6.8249   25.0817   66.9457 C   0  0  0  0  0
    6.7112   26.2907   66.2646 C   0  0  0  0  0
    5.6589   26.4899   65.3749 C   0  0  0  0  0
    3.2662   24.7199   63.1879 N   0  0  0  0  0
   -0.0617   26.0817   62.7008 N   0  0  0  0  0
    3.7879   23.2519   65.7429 N   0  0  0  0  0
    0.6260   29.5958   61.9536 O   0  0  0  0  0
    2.8114   28.7798   60.9356 O   0  0  0  0  0
    1.6071   24.0417   61.6696 O   0  0  0  0  0
    3.1669   26.8959   64.0451 O   0  0  0  0  0
    4.1333   21.9202   65.7106 O   0  0  0  0  0
    2.5805   23.5630   65.7958 O   0  0  0  0  0
    5.9804   22.8591   67.4654 O   0  0  0  0  0
  1 23  1  0  0  0
  1 16  1  0  0  0
  3  2  1  0  0  0
  3 24  1  0  0  0
  4 24  1  0  0  0
  4  5  1  0  0  0
  5 26  1  0  0  0
  6 26  1  0  0  0
  6  7  1  0  0  0
  7 27  1  0  0  0
  8 27  1  0  0  0
  8  5  1  0  0  0
  9 24  1  0  0  0
 11 12  1  0  0  0
 13 14  1  0  0  0
 15 10  1  0  0  0
 17 25  1  0  0  0
 17 18  1  0  0  0
 18 32  1  0  0  0
 19 32  1  0  0  0
 20 21  1  0  0  0
 22 16  1  0  0  0
 23  2  1  0  0  0
 23 10  1  0  0  0
 25 30  1  0  0  0
  1 29  2  0  0  0
  2 28  2  0  0  0
 10 11  2  0  0  0
 12 13  2  0  0  0
 14 15  2  0  0  0
 16 17  2  0  0  0
 18 20  2  0  0  0
 21 22  2  0  0  0
 25 31  2  0  0  0
M  CHG  2  25   1  30  -1
M  END
> <rmsd>
0.727652788

$$$$
RPODITSYGWRKAX-UHFFFAOYSA-N


 33 36  0  0  0  0  0  0  0  0999 V2000
    0.3052   27.4907   62.7972 C   0  0  0  0  0
    1.2605   28.2581   64.9755 C   0  0  0  0  0
    2.6474   27.8101   64.6388 C   0  0  0  0  0
    2.6621   25.4616   64.6064 C   0  0  0  0  0
    3.0936   24.2156   65.3117 C   0  0  0  0  0
    4.9580   23.0145   66.5197 C   0  0  0  0  0
    5.1980   20.6580   66.4073 C   0  0  0  0  0
    6.2141   20.7056   67.3580 C   0  0  0  0  0
    6.5867   21.9448   67.8717 C   0  0  0  0  0
    4.8513   25.5140   66.5340 C   0  0  0  0  0
    4.4360   26.6555   65.6063 C   0  0  0  0  0
   -1.1545   27.6223   64.8114 C   0  0  0  0  0
   -2.3372   27.8170   64.0807 C   0  0  0  0  0
   -3.5827   27.6046   64.6776 C   0  0  0  0  0
   -3.6591   27.1971   66.0112 C   0  0  0  0  0
   -2.4932   26.9958   66.7553 C   0  0  0  0  0
   -1.4698   26.3737   68.9190 C   0  0  0  0  0
   -1.2448   27.2076   66.1497 C   0  0  0  0  0
    1.0770   28.3624   61.8906 C   0  0  0  0  0
    1.4239   27.9585   60.5717 C   0  0  0  0  0
    0.1313   27.8251   64.1885 N   0  0  0  0  0
    2.9887   26.6324   65.4199 N   0  0  0  0  0
    4.3188   24.2266   66.0730 N   0  0  0  0  0
    4.5932   21.8067   66.0056 N   0  0  0  0  0
    5.9566   23.0704   67.4459 N   0  0  0  0  0
    1.4780   29.6056   62.2659 N   0  0  0  0  0
    2.1246   28.8576   59.8345 N   0  0  0  0  0
    2.3698   23.1866   65.2478 O   0  0  0  0  0
    1.0863   28.9742   65.9984 O   0  0  0  0  0
   -2.6013   26.5798   68.0844 O   0  0  0  0  0
   -0.2297   26.4440   62.3388 O   0  0  0  0  0
    6.8302   19.5715   67.7709 F   0  0  0  0  0
    2.2539   30.1091   60.9010 S   0  0  0  0  0
  1 21  1  0  0  0
  1 19  1  0  0  0
  3  2  1  0  0  0
  3 22  1  0  0  0
  4 22  1  0  0  0
  4  5  1  0  0  0
  5 23  1  0  0  0
  6 25  1  0  0  0
  7 24  1  0  0  0
  8 32  1  0  0  0
  8  9  1  0  0  0
 10 23  1  0  0  0
 10 11  1  0  0  0
 11 22  1  0  0  0
 13 14  1  0  0  0
 15 16  1  0  0  0
 16 30  1  0  0  0
 17 30  1  0  0  0
 18 12  1  0  0  0
 20 19  1  0  0  0
 21  2  1  0  0  0
 21 12  1  0  0  0
 23  6  1  0  0  0
 26 33  1  0  0  0
 33 27  1  0  0  0
  1 31  2  0  0  0
  2 29  2  0  0  0
  5 28  2  0  0  0
  6 24  2  0  0  0
  7  8  2  0  0  0
  9 25  2  0  0  0
 12 13  2  0  0  0
 14 15  2  0  0  0
 16 18  2  0  0  0
 19 26  2  0  0  0
 20 27  2  0  0  0
M  END
> <rmsd>
0.69986093

$$$$
DFAZSXKDXLGVAE-UHFFFAOYSA-N


 36 39  0  0  0  0  0  0  0  0999 V2000
    2.5354   27.9995   61.5962 C   0  0  0  0  0
    0.9936   26.0326   61.6578 C   0  0  0  0  0
    2.1007   25.0333   61.5147 C   0  0  0  0  0
    2.0380   23.5756   63.3628 C   0  0  0  0  0
    2.6705   23.2246   64.6725 C   0  0  0  0  0
    4.8091   22.8142   65.9482 C   0  0  0  0  0
    4.8961   21.3128   67.7824 C   0  0  0  0  0
    6.1933   21.7264   68.0723 C   0  0  0  0  0
    6.7782   22.6983   67.2651 C   0  0  0  0  0
    4.8225   24.2602   63.9072 C   0  0  0  0  0
    4.0956   24.4012   62.5686 C   0  0  0  0  0
    0.1559   28.2618   60.9051 C   0  0  0  0  0
   -0.0625   29.5728   61.3858 C   0  0  0  0  0
    0.5808   31.3915   62.9437 C   0  0  0  0  0
   -1.1004   30.3463   60.8370 C   0  0  0  0  0
   -1.9162   29.8291   59.8292 C   0  0  0  0  0
   -1.7056   28.5330   59.3592 C   0  0  0  0  0
   -0.6772   27.7561   59.8938 C   0  0  0  0  0
    3.2622   27.8489   62.8702 C   0  0  0  0  0
    4.5764   27.4885   65.2681 C   0  0  0  0  0
    4.5614   26.7920   67.6281 C   0  0  0  0  0
    5.2945   27.9288   64.1583 C   0  0  0  0  0
    4.6318   28.1118   62.9470 C   0  0  0  0  0
    1.2197   27.4395   61.4298 N   0  0  0  0  0
    2.6996   24.7527   62.8083 N   0  0  0  0  0
    4.0975   23.3742   64.8269 N   0  0  0  0  0
    4.2317   21.8592   66.7300 N   0  0  0  0  0
    6.0810   23.2208   66.2222 N   0  0  0  0  0
    2.6035   27.4425   63.9897 N   0  0  0  0  0
    3.2391   27.2648   65.1494 N   0  0  0  0  0
    1.9437   22.8445   65.6290 O   0  0  0  0  0
   -0.1558   25.6213   61.9711 O   0  0  0  0  0
    0.7405   30.0821   62.4144 O   0  0  0  0  0
    3.0556   28.6533   60.6516 O   0  0  0  0  0
    5.2363   27.2798   66.4787 O   0  0  0  0  0
    6.8720   21.1928   69.1160 F   0  0  0  0  0
  1 24  1  0  0  0
  1 19  1  0  0  0
  3  2  1  0  0  0
  3 25  1  0  0  0
  4 25  1  0  0  0
  4  5  1  0  0  0
  5 26  1  0  0  0
  6 28  1  0  0  0
  7 27  1  0  0  0
  8 36  1  0  0  0
  8  9  1  0  0  0
 10 26  1  0  0  0
 10 11  1  0  0  0
 11 25  1  0  0  0
 13 33  1  0  0  0
 13 15  1  0  0  0
 14 33  1  0  0  0
 16 17  1  0  0  0
 18 12  1  0  0  0
 20 35  1  0  0  0
 20 22  1  0  0  0
 21 35  1  0  0  0
 23 19  1  0  0  0
 24  2  1  0  0  0
 24 12  1  0  0  0
 26  6  1  0  0  0
 29 30  1  0  0  0
  1 34  2  0  0  0
  2 32  2  0  0  0
  5 31  2  0  0  0
  6 27  2  0  0  0
  7  8  2  0  0  0
  9 28  2  0  0  0
 12 13  2  0  0  0
 15 16  2  0  0  0
 17 18  2  0  0  0
 19 29  2  0  0  0
 20 30  2  0  0  0
 22 23  2  0  0  0
M  END
> <rmsd>
0.781654894

$$$$
PNVUYFMHIANRQP-UHFFFAOYSA-N


 33 36  0  0  0  0  0  0  0  0999 V2000
    2.7427   25.4352   64.1378 C   0  0  0  0  0
    0.7111   26.4375   63.0312 C   0  0  0  0  0
    0.8431   27.7188   63.7935 C   0  0  0  0  0
    0.0953   29.8985   63.3668 C   0  0  0  0  0
    0.9489   31.0841   63.7664 C   0  0  0  0  0
    2.2744   30.8390   63.1064 C   0  0  0  0  0
    2.3356   29.3373   62.9681 C   0  0  0  0  0
    3.1199   28.9536   61.7566 C   0  0  0  0  0
    3.7409   28.7098   59.7654 C   0  0  0  0  0
    3.8092   28.7499   58.2750 C   0  0  0  0  0
    3.8534   30.1845   57.7862 C   0  0  0  0  0
    2.6133   28.0388   57.6720 C   0  0  0  0  0
    4.6791   28.1158   60.5829 C   0  0  0  0  0
    1.3363   24.0638   62.5672 C   0  0  0  0  0
    2.2309   23.8856   61.3406 C   0  0  0  0  0
    4.2923   24.6062   60.7488 C   0  0  0  0  0
    3.3471   25.0602   59.6619 C   0  0  0  0  0
    2.0122   24.9690   60.3150 C   0  0  0  0  0
    3.1677   24.3088   64.9966 C   0  0  0  0  0
    2.7333   22.1883   65.9597 C   0  0  0  0  0
    4.7624   23.2880   66.4793 C   0  0  0  0  0
    6.4165   22.2675   67.9909 C   0  0  0  0  0
    4.3948   24.3590   65.6660 C   0  0  0  0  0
    1.5996   25.3255   63.2640 N   0  0  0  0  0
    0.9677   28.8374   62.8708 N   0  0  0  0  0
    2.7450   29.2471   60.4963 N   0  0  0  0  0
    2.3622   23.2250   65.1642 N   0  0  0  0  0
    3.9252   22.2226   66.6098 N   0  0  0  0  0
    4.2510   28.2902   61.8104 O   0  0  0  0  0
   -0.2358   26.3247   62.2058 O   0  0  0  0  0
    3.5900   23.8434   61.7014 O   0  0  0  0  0
    3.4068   26.5070   64.1632 O   0  0  0  0  0
    5.9860   23.3260   67.1485 O   0  0  0  0  0
  1 24  1  0  0  0
  1 19  1  0  0  0
  3  2  1  0  0  0
  3 25  1  0  0  0
  4 25  1  0  0  0
  4  5  1  0  0  0
  5  6  1  0  0  0
  6  7  1  0  0  0
  7  8  1  0  0  0
  7 25  1  0  0  0
  8 29  1  0  0  0
  9 26  1  0  0  0
 10  9  1  0  0  0
 10 11  1  0  0  0
 10 12  1  0  0  0
 13 29  1  0  0  0
 14 24  1  0  0  0
 14 15  1  0  0  0
 15 31  1  0  0  0
 16 31  1  0  0  0
 16 17  1  0  0  0
 17 18  1  0  0  0
 18 15  1  0  0  0
 20 27  1  0  0  0
 21 28  1  0  0  0
 21 33  1  0  0  0
 22 33  1  0  0  0
 23 19  1  0  0  0
 24  2  1  0  0  0
  1 32  2  0  0  0
  2 30  2  0  0  0
  8 26  2  0  0  0
  9 13  2  0  0  0
 19 27  2  0  0  0
 20 28  2  0  0  0
 21 23  2  0  0  0
M  END
> <rmsd>
0.510554433

$$$$
IJQGMEHFUHLPIF-UHFFFAOYSA-N


 31 33  0  0  0  0  0  0  0  0999 V2000
    2.8570   25.4584   64.1545 C   0  0  0  0  0
    0.8627   26.4820   62.9998 C   0  0  0  0  0
    0.9240   27.7216   63.8398 C   0  0  0  0  0
    0.5087   30.0203   63.7558 C   0  0  0  0  0
    1.3594   31.2288   63.4473 C   0  0  0  0  0
    2.6851   30.6789   62.9891 C   0  0  0  0  0
    2.4670   29.1868   62.8193 C   0  0  0  0  0
    2.9188   28.7428   61.4665 C   0  0  0  0  0
    3.0992   28.4877   59.4076 C   0  0  0  0  0
    2.8930   28.5736   57.9317 C   0  0  0  0  0
    1.5952   24.1691   62.4257 C   0  0  0  0  0
    3.2379   24.3053   64.9984 C   0  0  0  0  0
    2.7635   22.1474   65.8540 C   0  0  0  0  0
    4.7354   23.2496   66.5561 C   0  0  0  0  0
    6.2912   22.1933   68.1458 C   0  0  0  0  0
    4.4130   24.3450   65.7561 C   0  0  0  0  0
    1.7586   25.3766   63.2260 N   0  0  0  0  0
    1.0448   28.9020   62.9951 N   0  0  0  0  0
    3.8879   27.8285   61.2758 N   0  0  0  0  0
    2.3834   29.1864   60.3095 N   0  0  0  0  0
    2.4367   23.2075   65.0700 N   0  0  0  0  0
    3.9050   22.1714   66.5892 N   0  0  0  0  0
    1.5204   32.0083   64.5764 F   0  0  0  0  0
    0.7806   31.9692   62.4338 F   0  0  0  0  0
    1.8284   27.7701   57.5702 F   0  0  0  0  0
    2.6229   29.8807   57.5711 F   0  0  0  0  0
    4.0310   28.1483   57.2715 F   0  0  0  0  0
    3.9688   27.6968   59.9872 O   0  0  0  0  0
   -0.0258   26.4004   62.1084 O   0  0  0  0  0
    3.5137   26.5313   64.2500 O   0  0  0  0  0
    5.9071   23.2771   67.3129 O   0  0  0  0  0
  1 17  1  0  0  0
  1 12  1  0  0  0
  3  2  1  0  0  0
  3 18  1  0  0  0
  4 18  1  0  0  0
  4  5  1  0  0  0
  5 23  1  0  0  0
  5 24  1  0  0  0
  5  6  1  0  0  0
  6  7  1  0  0  0
  7  8  1  0  0  0
  7 18  1  0  0  0
  8 20  1  0  0  0
  9 28  1  0  0  0
 10  9  1  0  0  0
 10 25  1  0  0  0
 10 26  1  0  0  0
 10 27  1  0  0  0
 11 17  1  0  0  0
 13 21  1  0  0  0
 14 22  1  0  0  0
 14 31  1  0  0  0
 15 31  1  0  0  0
 16 12  1  0  0  0
 17  2  1  0  0  0
 19 28  1  0  0  0
  1 30  2  0  0  0
  2 29  2  0  0  0
  8 19  2  0  0  0
  9 20  2  0  0  0
 12 21  2  0  0  0
 13 22  2  0  0  0
 14 16  2  0  0  0
M  END
> <rmsd>
0.513192296

$$$$
PEJHUVPWUQOVNW-UHFFFAOYSA-N


 32 35  0  0  0  0  0  0  0  0999 V2000
    2.8075   25.9844   64.8058 C   0  0  0  0  0
    0.5383   26.9946   64.8064 C   0  0  0  0  0
    0.9273   28.1060   65.7288 C   0  0  0  0  0
    0.5602   30.3828   66.1330 C   0  0  0  0  0
    1.4371   31.5784   65.8135 C   0  0  0  0  0
    2.1353   31.2381   64.5244 C   0  0  0  0  0
    1.9359   29.7507   64.3638 C   0  0  0  0  0
    1.8278   29.3882   62.9182 C   0  0  0  0  0
    1.1867   29.1957   60.9501 C   0  0  0  0  0
    0.4019   29.3089   59.6934 C   0  0  0  0  0
    1.3025   25.6120   62.8600 C   0  0  0  0  0
    0.2403   25.2211   60.9232 C   0  0  0  0  0
   -0.8835   25.3061   59.9579 C   0  0  0  0  0
    1.4310   24.5649   60.6162 C   0  0  0  0  0
    3.1944   24.6503   65.2997 C   0  0  0  0  0
    2.6584   22.3713   65.6499 C   0  0  0  0  0
    4.7791   23.1688   66.3340 C   0  0  0  0  0
    6.4114   21.6811   67.4207 C   0  0  0  0  0
    4.4511   24.4442   65.8770 C   0  0  0  0  0
    1.5377   26.1803   64.1641 N   0  0  0  0  0
    0.7151   29.3912   65.0756 N   0  0  0  0  0
    2.3088   28.4597   61.0619 N   0  0  0  0  0
    0.8396   29.8048   62.1010 N   0  0  0  0  0
    0.1718   25.8061   62.1487 N   0  0  0  0  0
    2.3233   23.6095   65.2043 N   0  0  0  0  0
    3.8772   22.1567   66.2105 N   0  0  0  0  0
    2.3753   31.7375   66.8134 F   0  0  0  0  0
    2.6750   28.6066   62.2973 O   0  0  0  0  0
   -0.6846   26.8026   64.5756 O   0  0  0  0  0
    3.5902   26.9622   64.9495 O   0  0  0  0  0
    6.0292   22.9497   66.9140 O   0  0  0  0  0
    2.4238   24.7348   61.9653 S   0  0  0  0  0
  1 20  1  0  0  0
  1 15  1  0  0  0
  3  2  1  0  0  0
  3 21  1  0  0  0
  4 21  1  0  0  0
  4  5  1  0  0  0
  5 27  1  0  0  0
  5  6  1  0  0  0
  6  7  1  0  0  0
  7  8  1  0  0  0
  7 21  1  0  0  0
  8 28  1  0  0  0
  9 23  1  0  0  0
 10  9  1  0  0  0
 11 32  1  0  0  0
 12 24  1  0  0  0
 13 12  1  0  0  0
 14 32  1  0  0  0
 16 25  1  0  0  0
 17 26  1  0  0  0
 17 31  1  0  0  0
 18 31  1  0  0  0
 19 15  1  0  0  0
 20  2  1  0  0  0
 20 11  1  0  0  0
 28 22  1  0  0  0
  1 30  2  0  0  0
  2 29  2  0  0  0
  8 23  2  0  0  0
  9 22  2  0  0  0
 11 24  2  0  0  0
 12 14  2  0  0  0
 15 25  2  0  0  0
 16 26  2  0  0  0
 17 19  2  0  0  0
M  END
> <rmsd>
0.662943184

$$$$
PEJHUVPWUQOVNW-UHFFFAOYSA-N


 32 35  0  0  0  0  0  0  0  0999 V2000
    3.2074   25.7124   64.0320 C   0  0  0  0  0
    1.0637   26.5217   63.0731 C   0  0  0  0  0
    1.0584   27.7740   63.8910 C   0  0  0  0  0
    0.5024   30.0459   63.7839 C   0  0  0  0  0
    1.3996   31.2572   63.6161 C   0  0  0  0  0
    2.5277   30.8082   62.7268 C   0  0  0  0  0
    2.4443   29.3012   62.7366 C   0  0  0  0  0
    2.8788   28.7424   61.4206 C   0  0  0  0  0
    3.0014   28.2380   59.4076 C   0  0  0  0  0
    2.7230   28.1179   57.9530 C   0  0  0  0  0
    2.5225   24.9614   61.7611 C   0  0  0  0  0
    2.2475   24.2302   59.6583 C   0  0  0  0  0
    1.5484   24.0927   58.3567 C   0  0  0  0  0
    3.4872   23.6403   59.8980 C   0  0  0  0  0
    3.4281   24.4924   64.8297 C   0  0  0  0  0
    2.8693   22.2434   65.3131 C   0  0  0  0  0
    4.5727   23.2980   66.5731 C   0  0  0  0  0
    5.7428   22.1084   68.3826 C   0  0  0  0  0
    4.3952   24.4698   65.8393 C   0  0  0  0  0
    2.2517   25.7153   62.9601 N   0  0  0  0  0
    1.0597   28.9391   63.0158 N   0  0  0  0  0
    4.0278   27.6191   60.0215 N   0  0  0  0  0
    2.2425   28.9634   60.2526 N   0  0  0  0  0
    1.7217   24.9648   60.6745 N   0  0  0  0  0
    2.6822   23.3794   64.5930 N   0  0  0  0  0
    3.8074   22.2070   66.2951 N   0  0  0  0  0
    1.9060   31.6250   64.8465 F   0  0  0  0  0
    3.9163   27.9585   61.2683 O   0  0  0  0  0
    0.0141   26.1999   62.4564 O   0  0  0  0  0
    3.8552   26.7622   64.2917 O   0  0  0  0  0
    5.5331   23.2624   67.5848 O   0  0  0  0  0
    3.9175   24.0695   61.4681 S   0  0  0  0  0
  1 20  1  0  0  0
  1 15  1  0  0  0
  3  2  1  0  0  0
  3 21  1  0  0  0
  4 21  1  0  0  0
  4  5  1  0  0  0
  5 27  1  0  0  0
  5  6  1  0  0  0
  6  7  1  0  0  0
  7  8  1  0  0  0
  7 21  1  0  0  0
  8 28  1  0  0  0
  9 23  1  0  0  0
 10  9  1  0  0  0
 11 32  1  0  0  0
 12 24  1  0  0  0
 13 12  1  0  0  0
 14 32  1  0  0  0
 16 25  1  0  0  0
 17 26  1  0  0  0
 17 31  1  0  0  0
 18 31  1  0  0  0
 19 15  1  0  0  0
 20  2  1  0  0  0
 20 11  1  0  0  0
 28 22  1  0  0  0
  1 30  2  0  0  0
  2 29  2  0  0  0
  8 23  2  0  0  0
  9 22  2  0  0  0
 11 24  2  0  0  0
 12 14  2  0  0  0
 15 25  2  0  0  0
 16 26  2  0  0  0
 17 19  2  0  0  0
M  END
> <rmsd>
0.675832868

$$$$
IJRYOZJBDNUEIS-UHFFFAOYSA-N


 36 40  0  0  0  0  0  0  0  0999 V2000
    2.5938   25.3866   64.6294 C   0  0  0  0  0
    0.4262   26.3193   63.7822 C   0  0  0  0  0
   -0.7086   26.3040   62.8039 C   0  0  0  0  0
   -0.3375   28.1703   61.3908 C   0  0  0  0  0
    1.0183   28.7815   61.5614 C   0  0  0  0  0
    2.6391   29.8162   62.3618 C   0  0  0  0  0
    3.4990   30.7009   63.2060 C   0  0  0  0  0
    4.7145   29.9246   63.6891 C   0  0  0  0  0
    3.5412   30.1596   64.6228 C   0  0  0  0  0
   -0.9218   28.5233   60.0360 C   0  0  0  0  0
   -1.3081   27.2080   59.4102 C   0  0  0  0  0
   -1.1998   26.1925   60.5214 C   0  0  0  0  0
    1.2495   24.1057   62.9280 C   0  0  0  0  0
    2.2846   24.0801   61.8501 C   0  0  0  0  0
    3.3897   23.2259   61.9637 C   0  0  0  0  0
    4.3663   23.2012   60.9619 C   0  0  0  0  0
    4.2386   24.0322   59.8434 C   0  0  0  0  0
    3.1381   24.8910   59.7303 C   0  0  0  0  0
    2.1644   24.9171   60.7345 C   0  0  0  0  0
    3.1826   24.2052   65.2938 C   0  0  0  0  0
    3.0085   21.9442   65.9803 C   0  0  0  0  0
    4.9595   23.1646   66.5349 C   0  0  0  0  0
    6.7602   22.1445   67.8633 C   0  0  0  0  0
    4.4417   24.2913   65.8964 C   0  0  0  0  0
    1.4227   25.2727   63.7954 N   0  0  0  0  0
   -0.2442   26.7125   61.4857 N   0  0  0  0  0
    2.0837   28.4865   60.7849 N   0  0  0  0  0
    1.3218   29.6184   62.5776 N   0  0  0  0  0
    2.4915   23.0344   65.3575 N   0  0  0  0  0
    4.2325   22.0127   66.5633 N   0  0  0  0  0
    3.0669   29.1550   61.3091 O   0  0  0  0  0
    0.4786   27.2628   64.6179 O   0  0  0  0  0
    3.1363   26.5153   64.7839 O   0  0  0  0  0
    6.2168   23.2336   67.1323 O   0  0  0  0  0
   -2.6012   27.2591   58.9255 F   0  0  0  0  0
   -0.4259   26.8924   58.3928 F   0  0  0  0  0
  1 25  1  0  0  0
  1 20  1  0  0  0
  3  2  1  0  0  0
  3 26  1  0  0  0
  4 26  1  0  0  0
  4  5  1  0  0  0
  4 10  1  0  0  0
  5 28  1  0  0  0
  6 31  1  0  0  0
  7  6  1  0  0  0
  7  8  1  0  0  0
  8  9  1  0  0  0
  9  7  1  0  0  0
 10 11  1  0  0  0
 11 35  1  0  0  0
 11 36  1  0  0  0
 11 12  1  0  0  0
 12 26  1  0  0  0
 13 25  1  0  0  0
 13 14  1  0  0  0
 15 16  1  0  0  0
 17 18  1  0  0  0
 19 14  1  0  0  0
 21 29  1  0  0  0
 22 30  1  0  0  0
 22 34  1  0  0  0
 23 34  1  0  0  0
 24 20  1  0  0  0
 25  2  1  0  0  0
 27 31  1  0  0  0
  1 33  2  0  0  0
  2 32  2  0  0  0
  5 27  2  0  0  0
  6 28  2  0  0  0
 14 15  2  0  0  0
 16 17  2  0  0  0
 18 19  2  0  0  0
 20 29  2  0  0  0
 21 30  2  0  0  0
 22 24  2  0  0  0
M  END
> <rmsd>
0.592250824

$$$$
YPJKHOHSUYDMIS-UHFFFAOYSA-N


 35 39  0  0  0  0  0  0  0  0999 V2000
    2.9989   25.8124   64.2089 C   0  0  0  0  0
    0.8767   26.6281   63.2103 C   0  0  0  0  0
    0.9140   27.9997   63.8026 C   0  0  0  0  0
    0.4093   30.2066   63.2057 C   0  0  0  0  0
    1.4300   31.3223   63.3003 C   0  0  0  0  0
    2.6368   30.8033   62.5695 C   0  0  0  0  0
    2.4972   29.3027   62.6422 C   0  0  0  0  0
    3.0867   28.6647   61.4263 C   0  0  0  0  0
    3.4669   28.0613   59.4714 C   0  0  0  0  0
    3.3871   27.8862   57.9944 C   0  0  0  0  0
    2.3814   25.1056   61.9041 C   0  0  0  0  0
    2.5639   24.1928   59.6518 C   0  0  0  0  0
    3.6214   23.8894   60.4939 C   0  0  0  0  0
    4.6903   23.1199   60.0361 C   0  0  0  0  0
    4.6674   22.6620   58.7081 C   0  0  0  0  0
    3.5874   22.9777   57.8610 C   0  0  0  0  0
    2.5173   23.7550   58.3316 C   0  0  0  0  0
    3.3515   24.5412   64.8696 C   0  0  0  0  0
    2.9980   22.2146   65.1458 C   0  0  0  0  0
    4.6248   23.2938   66.4829 C   0  0  0  0  0
    5.9288   22.0457   68.1587 C   0  0  0  0  0
    4.3328   24.5098   65.8651 C   0  0  0  0  0
    2.0725   25.8335   63.1095 N   0  0  0  0  0
    1.0745   28.9901   62.7477 N   0  0  0  0  0
    4.3976   27.4688   60.2427 N   0  0  0  0  0
    2.6126   28.8313   60.1756 N   0  0  0  0  0
    3.5307   24.4011   61.7449 N   0  0  0  0  0
    2.7021   23.3929   64.5356 N   0  0  0  0  0
    3.9528   22.1688   66.1105 N   0  0  0  0  0
    1.7547   31.5258   64.6284 F   0  0  0  0  0
    4.1266   27.8685   61.4486 O   0  0  0  0  0
   -0.2186   26.1857   62.7713 O   0  0  0  0  0
    3.4981   26.8929   64.6267 O   0  0  0  0  0
    5.6035   23.2491   67.4736 O   0  0  0  0  0
    1.4545   25.1353   60.4805 S   0  0  0  0  0
  1 23  1  0  0  0
  1 18  1  0  0  0
  3  2  1  0  0  0
  3 24  1  0  0  0
  4 24  1  0  0  0
  4  5  1  0  0  0
  5 30  1  0  0  0
  5  6  1  0  0  0
  6  7  1  0  0  0
  7  8  1  0  0  0
  7 24  1  0  0  0
  8 31  1  0  0  0
  9 26  1  0  0  0
 10  9  1  0  0  0
 11 35  1  0  0  0
 12 35  1  0  0  0
 13 14  1  0  0  0
 13 27  1  0  0  0
 15 16  1  0  0  0
 17 12  1  0  0  0
 19 28  1  0  0  0
 20 29  1  0  0  0
 20 34  1  0  0  0
 21 34  1  0  0  0
 22 18  1  0  0  0
 23  2  1  0  0  0
 23 11  1  0  0  0
 31 25  1  0  0  0
  1 33  2  0  0  0
  2 32  2  0  0  0
  8 26  2  0  0  0
  9 25  2  0  0  0
 11 27  2  0  0  0
 12 13  2  0  0  0
 14 15  2  0  0  0
 16 17  2  0  0  0
 18 28  2  0  0  0
 19 29  2  0  0  0
 20 22  2  0  0  0
M  END
> <rmsd>
0.634291649

$$$$
DXKVJBJDSPXDLQ-UHFFFAOYSA-N


 30 31  0  0  0  0  0  0  0  0999 V2000
    3.2942   23.1556   65.3233 C   0  0  0  0  0
    2.0415   24.6765   63.8237 C   0  0  0  0  0
    1.7188   25.9353   63.4750 C   0  0  0  0  0
    0.4458   26.1388   62.7244 C   0  0  0  0  0
   -0.6211   25.0943   62.7608 C   0  0  0  0  0
    3.4153   29.4210   63.3963 C   0  0  0  0  0
    2.5548   27.1055   63.8645 C   0  0  0  0  0
    4.5563   24.7554   63.8615 C   0  0  0  0  0
    4.8343   24.1346   62.5338 C   0  0  0  0  0
    4.4342   24.7864   61.3619 C   0  0  0  0  0
    4.6718   24.1967   60.1171 C   0  0  0  0  0
    5.3064   22.9530   60.0428 C   0  0  0  0  0
    5.7019   22.2981   61.2132 C   0  0  0  0  0
    5.4642   22.8878   62.4582 C   0  0  0  0  0
    4.5853   22.6395   65.8947 C   0  0  0  0  0
    4.9596   23.3812   67.1812 C   0  0  0  0  0
    4.0415   23.0147   68.3386 C   0  0  0  0  0
    6.9570   24.3138   67.3738 C   0  0  0  0  0
    5.4985   20.7252   65.2491 C   0  0  0  0  0
    3.2895   24.2652   64.4087 N   0  0  0  0  0
    0.2261   27.1943   62.0010 N   0  0  0  0  0
    2.5230   28.3126   63.0966 N   0  0  0  0  0
    1.3762   28.4690   61.8226 S   0  0  0  0  0
    2.0658   28.3528   60.4929 O   0  0  0  0  0
    0.6730   29.7924   61.9329 O   0  0  0  0  0
    3.2597   27.0572   64.9099 O   0  0  0  0  0
    2.2043   22.6399   65.6963 O   0  0  0  0  0
    6.2834   23.1007   67.5253 O   0  0  0  0  0
    4.5279   21.2558   66.1004 O   0  0  0  0  0
    5.6034   22.2144   58.4843 Cl  0  0  0  0  0
  1 20  1  0  0  0
  3  4  1  0  0  0
  5  4  1  0  0  0
  6 22  1  0  0  0
  7  3  1  0  0  0
  8 20  1  0  0  0
  8  9  1  0  0  0
 10 11  1  0  0  0
 12 30  1  0  0  0
 12 13  1  0  0  0
 14  9  1  0  0  0
 15  1  1  0  0  0
 15 16  1  0  0  0
 15 29  1  0  0  0
 16 17  1  0  0  0
 16 28  1  0  0  0
 18 28  1  0  0  0
 19 29  1  0  0  0
 20  2  1  0  0  0
 22  7  1  0  0  0
 23 21  1  0  0  0
 23 22  1  0  0  0
  1 27  2  0  0  0
  2  3  2  0  0  0
  4 21  2  0  0  0
  7 26  2  0  0  0
  9 10  2  0  0  0
 11 12  2  0  0  0
 13 14  2  0  0  0
 23 24  2  0  0  0
 23 25  2  0  0  0
M  END
> <rmsd>
0.7504071

$$$$
IJFMUHIOXZICOH-UHFFFAOYSA-N


 34 37  0  0  0  0  0  0  0  0999 V2000
    3.4951   26.3270   64.5263 C   0  0  0  0  0
    1.0173   26.1476   64.3074 C   0  0  0  0  0
   -0.1779   25.5957   63.5793 C   0  0  0  0  0
   -0.4799   27.6421   62.3619 C   0  0  0  0  0
    0.7735   28.3370   61.9369 C   0  0  0  0  0
    2.2048   29.7996   61.5376 C   0  0  0  0  0
    2.9001   31.0895   61.4087 C   0  0  0  0  0
    4.2137   31.1397   60.9210 C   0  0  0  0  0
    4.8748   32.3655   60.7999 C   0  0  0  0  0
    4.2267   33.5484   61.1660 C   0  0  0  0  0
    2.9174   33.5058   61.6533 C   0  0  0  0  0
    2.2561   32.2800   61.7744 C   0  0  0  0  0
   -1.5902   25.7275   61.6786 C   0  0  0  0  0
    0.0088   24.0774   63.4845 C   0  0  0  0  0
    1.2747   23.7064   62.7096 C   0  0  0  0  0
    2.4738   24.4923   63.1589 C   0  0  0  0  0
    4.6344   25.5947   65.1232 C   0  0  0  0  0
    4.4707   24.4819   65.9799 C   0  0  0  0  0
    3.1159   23.9968   66.3969 C   0  0  0  0  0
    6.8314   24.2809   66.2189 C   0  0  0  0  0
    7.0364   25.3828   65.3913 C   0  0  0  0  0
    5.9331   26.0400   64.8497 C   0  0  0  0  0
    2.3340   25.6371   64.0271 N   0  0  0  0  0
   -0.3310   26.1946   62.2410 N   0  0  0  0  0
    2.7578   28.6147   61.2084 N   0  0  0  0  0
    0.9438   29.6700   62.0042 N   0  0  0  0  0
    2.8211   22.7064   65.7933 N   0  0  0  0  0
    3.3730   21.6828   66.1969 N   0  0  0  0  0
    3.9244   20.6597   66.5997 N   0  0  0  0  0
    5.5684   23.8634   66.4967 N   0  0  0  0  0
    0.8504   27.0630   65.1580 O   0  0  0  0  0
    1.8405   27.7354   61.4698 O   0  0  0  0  0
    3.6083   24.1534   62.7281 O   0  0  0  0  0
    3.5571   27.5831   64.4299 O   0  0  0  0  0
  1 23  1  0  0  0
  1 17  1  0  0  0
  3  2  1  0  0  0
  3 24  1  0  0  0
  3 14  1  0  0  0
  4 24  1  0  0  0
  4  5  1  0  0  0
  5 32  1  0  0  0
  6  7  1  0  0  0
  6 26  1  0  0  0
  8  9  1  0  0  0
 10 11  1  0  0  0
 12  7  1  0  0  0
 13 24  1  0  0  0
 14 15  1  0  0  0
 15 16  1  0  0  0
 16 23  1  0  0  0
 18 30  1  0  0  0
 19 18  1  0  0  0
 19 27  1  0  0  0
 20 21  1  0  0  0
 22 17  1  0  0  0
 23  2  1  0  0  0
 32 25  1  0  0  0
  1 34  2  0  0  0
  2 31  2  0  0  0
  5 26  2  0  0  0
  6 25  2  0  0  0
  7  8  2  0  0  0
  9 10  2  0  0  0
 11 12  2  0  0  0
 16 33  2  0  0  0
 17 18  2  0  0  0
 20 30  2  0  0  0
 21 22  2  0  0  0
 27 28  2  0  0  0
 28 29  2  0  0  0
M  CHG  2  28   1  29  -1
M  END
> <rmsd>
0.759697676

$$$$
BGUBAHGSBBVYCE-UHFFFAOYSA-N


 37 41  0  0  0  0  0  0  0  0999 V2000
    4.4943   24.7853   64.7971 C   0  0  0  0  0
    2.8536   24.4111   63.0204 C   0  0  0  0  0
    1.6837   24.7961   62.3318 C   0  0  0  0  0
    1.2156   24.0262   61.2550 C   0  0  0  0  0
    1.9050   22.8800   60.8541 C   0  0  0  0  0
    3.0684   22.4962   61.5228 C   0  0  0  0  0
    3.5403   23.2564   62.5961 C   0  0  0  0  0
    1.0192   25.9584   62.7329 C   0  0  0  0  0
    0.8651   27.9678   64.1250 C   0  0  0  0  0
    1.3897   29.0531   63.2497 C   0  0  0  0  0
    3.4189   29.9632   62.1896 C   0  0  0  0  0
    3.6221   28.9407   61.1209 C   0  0  0  0  0
    4.5505   27.9217   61.1635 C   0  0  0  0  0
    5.0584   25.9910   59.6785 C   0  0  0  0  0
    3.2923   27.7288   59.4001 C   0  0  0  0  0
    2.6428   26.3113   64.4348 C   0  0  0  0  0
    4.5014   23.5754   65.6337 C   0  0  0  0  0
    5.9157   21.2241   67.8000 C   0  0  0  0  0
    5.3660   20.0674   68.3728 C   0  0  0  0  0
    6.1394   19.2590   69.2121 C   0  0  0  0  0
    7.4672   19.6008   69.4842 C   0  0  0  0  0
    8.2851   18.7394   70.3762 C   0  0  0  0  0
    8.0225   20.7519   68.9179 C   0  0  0  0  0
    7.2493   21.5606   68.0782 C   0  0  0  0  0
    3.3080   25.1679   64.0714 N   0  0  0  0  0
    1.5112   26.7014   63.7687 N   0  0  0  0  0
    4.3293   27.1851   60.0629 N   0  0  0  0  0
    2.8248   28.8222   60.0390 N   0  0  0  0  0
    3.4330   22.7733   65.8167 N   0  0  0  0  0
    3.8562   21.8246   66.6359 N   0  0  0  0  0
    5.1250   22.0505   66.9352 N   0  0  0  0  0
    5.5692   23.1395   66.3293 N   0  0  0  0  0
   -0.0298   26.3247   62.1308 O   0  0  0  0  0
    2.7494   29.3670   63.2923 O   0  0  0  0  0
    0.6174   29.6299   62.4381 O   0  0  0  0  0
    3.0748   27.0124   65.3963 O   0  0  0  0  0
    5.5269   25.5054   64.7307 O   0  0  0  0  0
  1 25  1  0  0  0
  1 17  1  0  0  0
  2  3  1  0  0  0
  3  8  1  0  0  0
  4  5  1  0  0  0
  6  7  1  0  0  0
  8 26  1  0  0  0
  9 26  1  0  0  0
  9 10  1  0  0  0
 10 34  1  0  0  0
 11 34  1  0  0  0
 11 12  1  0  0  0
 12 28  1  0  0  0
 13 27  1  0  0  0
 14 27  1  0  0  0
 16 25  1  0  0  0
 17 29  1  0  0  0
 19 20  1  0  0  0
 21 23  1  0  0  0
 22 21  1  0  0  0
 24 18  1  0  0  0
 25  2  1  0  0  0
 26 16  1  0  0  0
 27 15  1  0  0  0
 31 30  1  0  0  0
 31 18  1  0  0  0
 31 32  1  0  0  0
  1 37  2  0  0  0
  3  4  2  0  0  0
  5  6  2  0  0  0
  7  2  2  0  0  0
  8 33  2  0  0  0
 10 35  2  0  0  0
 12 13  2  0  0  0
 15 28  2  0  0  0
 16 36  2  0  0  0
 17 32  2  0  0  0
 18 19  2  0  0  0
 20 21  2  0  0  0
 23 24  2  0  0  0
 29 30  2  0  0  0
M  END
> <rmsd>
0.655590355

$$$$
ZAXOUTUIQKORGV-UHFFFAOYSA-N


 33 37  0  0  0  0  0  0  0  0999 V2000
    3.8059   27.5807   64.9362 N   0  0  0  0  0
    1.1779   26.8414   61.9675 N   0  0  0  0  0
    0.9075   24.6435   61.9695 N   0  0  0  0  0
   -0.0269   26.6187   62.4758 N   0  0  0  0  0
    3.1101   24.6241   65.8035 N   0  0  0  0  0
    6.1148   23.4336   67.5709 N   0  0  0  0  0
    4.0666   21.0523   66.1156 N   0  0  0  0  0
    2.1024   22.5884   65.0097 N   0  0  0  0  0
    2.8571   28.4468   64.2519 C   0  0  0  0  0
    3.2704   28.6168   62.8028 C   0  0  0  0  0
    1.7512   25.6550   61.6637 C   0  0  0  0  0
   -0.1724   25.2797   62.4689 C   0  0  0  0  0
   -1.2950   24.5811   62.9058 C   0  0  0  0  0
   -1.2720   23.1828   62.8019 C   0  0  0  0  0
   -0.1484   22.5255   62.2719 C   0  0  0  0  0
    0.9727   23.2841   61.8483 C   0  0  0  0  0
    2.0902   22.6231   61.3190 C   0  0  0  0  0
    2.0950   21.2294   61.2093 C   0  0  0  0  0
    0.9851   20.4869   61.6258 C   0  0  0  0  0
   -0.1352   21.1333   62.1570 C   0  0  0  0  0
    3.0673   26.8309   65.9500 C   0  0  0  0  0
    2.2766   25.7316   65.3174 C   0  0  0  0  0
    3.1110   23.1983   65.6888 C   0  0  0  0  0
    4.1241   22.4032   66.2606 C   0  0  0  0  0
    5.2266   22.9759   66.9871 C   0  0  0  0  0
    3.0551   20.4531   65.4355 C   0  0  0  0  0
    2.0515   21.2380   64.8718 C   0  0  0  0  0
    3.8928   25.6903   66.4457 C   0  0  0  0  0
    4.7286   28.4642   65.6349 C   0  0  0  0  0
    1.8495   28.4253   61.7518 S   0  0  0  0  0
    3.2600   25.4864   61.0329 S   0  0  0  0  0
    0.8198   29.4595   62.1112 O   0  0  0  0  0
    2.2489   28.6122   60.3151 O   0  0  0  0  0
  2 11  1  0  0  0
  2  4  1  0  0  0
  3 12  1  0  0  0
  5 23  1  0  0  0
  9  1  1  0  0  0
  9 10  1  0  0  0
 10 30  1  0  0  0
 11  3  1  0  0  0
 12 13  1  0  0  0
 14 15  1  0  0  0
 16 17  1  0  0  0
 16  3  1  0  0  0
 18 19  1  0  0  0
 20 15  1  0  0  0
 21  1  1  0  0  0
 21 22  1  0  0  0
 22  5  1  0  0  0
 23  8  1  0  0  0
 24 25  1  0  0  0
 24  7  1  0  0  0
 26 27  1  0  0  0
 28  5  1  0  0  0
 28 21  1  0  0  0
 29  1  1  0  0  0
 30  2  1  0  0  0
 11 31  2  0  0  0
 12  4  2  0  0  0
 13 14  2  0  0  0
 15 16  2  0  0  0
 17 18  2  0  0  0
 19 20  2  0  0  0
 23 24  2  0  0  0
 26  7  2  0  0  0
 27  8  2  0  0  0
 30 32  2  0  0  0
 30 33  2  0  0  0
 25  6  3  0  0  0
M  END
> <rmsd>
0.65609175

$$$$
RNJYWPZRAYFUQA-UHFFFAOYSA-N


 34 36  0  0  0  0  0  0  0  0999 V2000
    3.8084   28.6358   61.2010 C   0  0  0  0  0
    2.3641   28.7505   63.2660 C   0  0  0  0  0
    2.1833   28.4036   64.7174 C   0  0  0  0  0
    4.1985   27.3861   64.7886 C   0  0  0  0  0
    5.0169   26.3015   65.4714 C   0  0  0  0  0
    5.1856   23.8447   65.5040 C   0  0  0  0  0
    4.6505   22.5282   65.0542 C   0  0  0  0  0
    1.0205   22.9147   65.5056 C   0  0  0  0  0
   -0.0570   23.6952   64.8616 C   0  0  0  0  0
    0.2327   24.5071   63.7555 C   0  0  0  0  0
   -0.7727   25.2610   63.1283 C   0  0  0  0  0
    0.8086   26.1623   61.4493 C   0  0  0  0  0
   -2.0882   25.2033   63.6152 C   0  0  0  0  0
   -4.4384   25.9552   63.4102 C   0  0  0  0  0
   -2.3810   24.3924   64.7243 C   0  0  0  0  0
   -1.3739   23.6452   65.3415 C   0  0  0  0  0
    0.7626   22.0883   66.6037 C   0  0  0  0  0
    1.8108   21.3826   67.1870 C   0  0  0  0  0
    3.0979   21.5169   66.6679 C   0  0  0  0  0
    4.4649   27.3887   63.2800 C   0  0  0  0  0
    5.1798   28.6776   60.6510 C   0  0  0  0  0
    5.4041   28.7587   59.1796 C   0  0  0  0  0
    3.5636   28.3183   62.5875 N   0  0  0  0  0
    3.3092   22.3332   65.5925 N   0  0  0  0  0
    2.2960   23.0045   65.0372 N   0  0  0  0  0
    1.5132   29.4820   62.6902 O   0  0  0  0  0
    2.8258   27.1892   65.0246 O   0  0  0  0  0
    4.6131   25.0184   65.0147 O   0  0  0  0  0
    6.1299   23.8814   66.3387 O   0  0  0  0  0
   -0.4883   26.0698   62.0227 O   0  0  0  0  0
   -3.0855   25.9564   62.9812 O   0  0  0  0  0
    4.0530   20.8845   67.1985 O   0  0  0  0  0
    2.8382   28.8791   60.4319 O   0  0  0  0  0
    6.1794   28.6743   61.4165 O   0  0  0  0  0
  1 23  1  0  0  0
  1 21  1  0  0  0
  3  2  1  0  0  0
  3 27  1  0  0  0
  4 27  1  0  0  0
  4  5  1  0  0  0
  4 20  1  0  0  0
  5 28  1  0  0  0
  6 28  1  0  0  0
  7  6  1  0  0  0
  7 24  1  0  0  0
  8  9  1  0  0  0
  8 17  1  0  0  0
 10 11  1  0  0  0
 11 30  1  0  0  0
 12 30  1  0  0  0
 13 31  1  0  0  0
 13 15  1  0  0  0
 14 31  1  0  0  0
 16  9  1  0  0  0
 18 19  1  0  0  0
 19 24  1  0  0  0
 20 23  1  0  0  0
 22 21  1  0  0  0
 23  2  1  0  0  0
 24 25  1  0  0  0
  1 33  2  0  0  0
  2 26  2  0  0  0
  6 29  2  0  0  0
  8 25  2  0  0  0
  9 10  2  0  0  0
 11 13  2  0  0  0
 15 16  2  0  0  0
 17 18  2  0  0  0
 19 32  2  0  0  0
 21 34  2  0  0  0
M  END
> <rmsd>
0.734249771

$$$$
ONJCHLJVXGJVFT-UHFFFAOYSA-N


 31 33  0  0  0  0  0  0  0  0999 V2000
    2.0414   27.9631   60.9959 C   0  0  0  0  0
    2.1205   28.8458   63.3424 C   0  0  0  0  0
    2.7587   28.7388   64.6884 C   0  0  0  0  0
    4.3958   27.2127   64.5917 C   0  0  0  0  0
    5.0006   26.1136   65.4511 C   0  0  0  0  0
    4.5700   23.7503   66.0125 C   0  0  0  0  0
    3.7275   22.5595   65.8558 C   0  0  0  0  0
    3.2611   20.2996   66.3821 C   0  0  0  0  0
    2.1372   20.3322   65.5594 C   0  0  0  0  0
    1.8354   21.5159   64.8899 C   0  0  0  0  0
    4.5240   26.8393   63.1128 C   0  0  0  0  0
    4.2109   28.0317   62.2146 C   0  0  0  0  0
    0.7851   27.1924   61.0694 C   0  0  0  0  0
   -0.0256   27.0409   59.9445 C   0  0  0  0  0
   -1.1878   26.2839   60.0420 C   0  0  0  0  0
   -1.5157   25.6870   61.2571 C   0  0  0  0  0
   -0.9658   25.2461   63.6442 C   0  0  0  0  0
   -2.2675   25.7612   64.2344 C   0  0  0  0  0
   -0.9655   23.7289   63.5642 C   0  0  0  0  0
    2.7739   28.2924   62.1857 N   0  0  0  0  0
    4.0339   21.4091   66.5160 N   0  0  0  0  0
    2.6322   22.6046   65.0490 N   0  0  0  0  0
   -0.6890   25.8527   62.3401 N   0  0  0  0  0
    0.4235   26.5837   62.2311 N   0  0  0  0  0
    1.0011   29.4140   63.2353 O   0  0  0  0  0
    3.0507   27.3950   64.9485 O   0  0  0  0  0
    4.2395   24.9187   65.3256 O   0  0  0  0  0
    5.5824   23.7134   66.7644 O   0  0  0  0  0
    2.5058   28.2955   59.8713 O   0  0  0  0  0
   -2.5694   25.0003   61.3410 O   0  0  0  0  0
    1.1257   18.9165   65.3709 Cl  0  0  0  0  0
  1 20  1  0  0  0
  1 13  1  0  0  0
  3  2  1  0  0  0
  3 26  1  0  0  0
  4 26  1  0  0  0
  4  5  1  0  0  0
  4 11  1  0  0  0
  5 27  1  0  0  0
  6 27  1  0  0  0
  6  7  1  0  0  0
  7 22  1  0  0  0
  8 21  1  0  0  0
  9 31  1  0  0  0
  9 10  1  0  0  0
 11 12  1  0  0  0
 12 20  1  0  0  0
 13 14  1  0  0  0
 15 16  1  0  0  0
 16 23  1  0  0  0
 17 23  1  0  0  0
 17 18  1  0  0  0
 17 19  1  0  0  0
 20  2  1  0  0  0
 23 24  1  0  0  0
  1 29  2  0  0  0
  2 25  2  0  0  0
  6 28  2  0  0  0
  7 21  2  0  0  0
  8  9  2  0  0  0
 10 22  2  0  0  0
 13 24  2  0  0  0
 14 15  2  0  0  0
 16 30  2  0  0  0
M  END
> <rmsd>
0.728538871

$$$$
SXRJEKSHWWDHCC-UHFFFAOYSA-N


 34 37  0  0  0  0  0  0  0  0999 V2000
    3.5975   23.1841   65.4996 C   0  0  0  0  0
    2.3047   24.6563   63.9896 C   0  0  0  0  0
    1.9500   25.9004   63.6202 C   0  0  0  0  0
    0.6645   26.0597   62.8795 C   0  0  0  0  0
   -0.3688   24.9823   62.9312 C   0  0  0  0  0
    3.5472   29.4326   63.4866 C   0  0  0  0  0
    2.7639   27.0957   63.9823 C   0  0  0  0  0
    4.8088   24.7605   63.9650 C   0  0  0  0  0
    5.1347   23.9620   62.7435 C   0  0  0  0  0
    6.0389   22.8898   62.8053 C   0  0  0  0  0
    6.3162   22.1446   61.6551 C   0  0  0  0  0
    5.6943   22.4636   60.4446 C   0  0  0  0  0
    4.7939   23.5304   60.3814 C   0  0  0  0  0
    4.5143   24.2776   61.5288 C   0  0  0  0  0
    4.7645   22.9605   66.3869 C   0  0  0  0  0
    5.0573   21.6695   66.9264 C   0  0  0  0  0
    4.4935   19.2626   67.0986 C   0  0  0  0  0
    6.1762   21.5122   67.7759 C   0  0  0  0  0
    6.9413   22.6375   68.0423 C   0  0  0  0  0
    6.6341   23.8393   67.5135 C   0  0  0  0  0
    8.3571   24.0587   68.7003 C   0  0  0  0  0
    3.5641   24.2905   64.5787 N   0  0  0  0  0
    0.4037   27.1036   62.1532 N   0  0  0  0  0
    2.6814   28.2974   63.2096 N   0  0  0  0  0
    7.5101   24.7708   67.9077 N   0  0  0  0  0
    8.0364   22.7395   68.8058 N   0  0  0  0  0
    5.5691   24.0250   66.6989 N   0  0  0  0  0
    1.5077   28.4153   61.9562 S   0  0  0  0  0
    0.7632   29.7146   62.0794 O   0  0  0  0  0
    2.1775   28.3221   60.6146 O   0  0  0  0  0
    3.4975   27.0721   65.0087 O   0  0  0  0  0
    2.6021   22.4124   65.5771 O   0  0  0  0  0
    4.2509   20.5719   66.6020 O   0  0  0  0  0
    6.6589   22.5714   63.9685 F   0  0  0  0  0
  1 22  1  0  0  0
  1 15  1  0  0  0
  3  4  1  0  0  0
  5  4  1  0  0  0
  6 24  1  0  0  0
  7  3  1  0  0  0
  8 22  1  0  0  0
  8  9  1  0  0  0
 10 34  1  0  0  0
 10 11  1  0  0  0
 12 13  1  0  0  0
 14  9  1  0  0  0
 15 27  1  0  0  0
 16 33  1  0  0  0
 16 18  1  0  0  0
 17 33  1  0  0  0
 19 20  1  0  0  0
 19 26  1  0  0  0
 20 25  1  0  0  0
 22  2  1  0  0  0
 24  7  1  0  0  0
 25 21  1  0  0  0
 28 23  1  0  0  0
 28 24  1  0  0  0
  1 32  2  0  0  0
  2  3  2  0  0  0
  4 23  2  0  0  0
  7 31  2  0  0  0
  9 10  2  0  0  0
 11 12  2  0  0  0
 13 14  2  0  0  0
 15 16  2  0  0  0
 18 19  2  0  0  0
 20 27  2  0  0  0
 21 26  2  0  0  0
 28 29  2  0  0  0
 28 30  2  0  0  0
M  END
> <rmsd>
0.800552487

$$$$
ZYGUPAPWKKGDBV-UHFFFAOYSA-N


 34 36  0  0  0  0  0  0  0  0999 V2000
    2.8947   25.4489   64.1651 C   0  0  0  0  0
    0.9309   26.4855   62.9740 C   0  0  0  0  0
    0.9379   27.6941   63.8593 C   0  0  0  0  0
    2.5042   29.2757   63.1036 C   0  0  0  0  0
    2.7513   30.5586   62.2975 C   0  0  0  0  0
    2.5869   30.3632   60.8168 C   0  0  0  0  0
    2.5621   30.7360   58.7706 C   0  0  0  0  0
    2.6510   31.4324   57.4532 C   0  0  0  0  0
    1.8519   31.6862   62.8125 C   0  0  0  0  0
    0.3952   31.2373   62.9155 C   0  0  0  0  0
    0.3152   29.9471   63.7253 C   0  0  0  0  0
    1.6576   24.1665   62.4138 C   0  0  0  0  0
    3.2564   24.2941   65.0148 C   0  0  0  0  0
    2.7549   22.1407   65.8661 C   0  0  0  0  0
    4.7280   23.2271   66.5892 C   0  0  0  0  0
    6.3035   22.1381   68.1531 C   0  0  0  0  0
    7.1791   21.1911   67.3453 C   0  0  0  0  0
    4.4228   24.3250   65.7862 C   0  0  0  0  0
    1.8119   25.3723   63.2185 N   0  0  0  0  0
    1.0891   28.9009   63.0624 N   0  0  0  0  0
    2.1827   29.4532   58.9235 N   0  0  0  0  0
    2.2022   29.2141   60.2254 N   0  0  0  0  0
    2.4459   23.2027   65.0773 N   0  0  0  0  0
    3.8879   22.1564   66.6146 N   0  0  0  0  0
    2.8078   31.3017   59.9280 O   0  0  0  0  0
    0.0946   26.4317   62.0313 O   0  0  0  0  0
    3.5545   26.5189   64.2704 O   0  0  0  0  0
    5.8909   23.2472   67.3620 O   0  0  0  0  0
    3.4454   32.5582   57.5680 F   0  0  0  0  0
    3.2020   30.5836   56.5111 F   0  0  0  0  0
    1.3847   31.8074   57.0461 F   0  0  0  0  0
    8.2839   21.8700   66.8657 F   0  0  0  0  0
    7.6002   20.1586   68.1606 F   0  0  0  0  0
    6.4646   20.6671   66.2841 F   0  0  0  0  0
  1 19  1  0  0  0
  1 13  1  0  0  0
  3  2  1  0  0  0
  3 20  1  0  0  0
  4 20  1  0  0  0
  4  5  1  0  0  0
  5  6  1  0  0  0
  5  9  1  0  0  0
  6 25  1  0  0  0
  7 25  1  0  0  0
  8  7  1  0  0  0
  8 29  1  0  0  0
  8 30  1  0  0  0
  8 31  1  0  0  0
  9 10  1  0  0  0
 10 11  1  0  0  0
 11 20  1  0  0  0
 12 19  1  0  0  0
 14 23  1  0  0  0
 15 24  1  0  0  0
 15 28  1  0  0  0
 16 28  1  0  0  0
 16 17  1  0  0  0
 17 32  1  0  0  0
 17 33  1  0  0  0
 17 34  1  0  0  0
 18 13  1  0  0  0
 19  2  1  0  0  0
 21 22  1  0  0  0
  1 27  2  0  0  0
  2 26  2  0  0  0
  6 22  2  0  0  0
  7 21  2  0  0  0
 13 23  2  0  0  0
 14 24  2  0  0  0
 15 18  2  0  0  0
M  END
> <rmsd>
0.556239128

$$$$
SRHCSHVATIVVCC-UHFFFAOYSA-N


 31 34  0  0  0  0  0  0  0  0999 V2000
    3.1451   25.7738   64.5523 C   0  0  0  0  0
    0.7644   25.8033   63.7894 C   0  0  0  0  0
   -0.2929   25.3750   62.8088 C   0  0  0  0  0
   -0.4913   27.5517   61.8453 C   0  0  0  0  0
    0.7407   28.3641   61.6391 C   0  0  0  0  0
    2.3659   29.6270   61.9316 C   0  0  0  0  0
    3.3794   30.5205   62.5553 C   0  0  0  0  0
    4.5483   29.7003   63.0613 C   0  0  0  0  0
   -1.3022   25.7240   60.6845 C   0  0  0  0  0
   -0.1040   23.8743   62.5553 C   0  0  0  0  0
    1.2723   23.5661   61.9660 C   0  0  0  0  0
    2.3796   24.2413   62.7223 C   0  0  0  0  0
    4.1170   24.8532   65.1924 C   0  0  0  0  0
    3.6729   23.6657   65.8097 C   0  0  0  0  0
    4.6110   22.8035   66.4126 C   0  0  0  0  0
    2.8638   21.3384   67.0464 C   0  0  0  0  0
    1.9295   22.1931   66.4584 C   0  0  0  0  0
    6.3859   24.2512   65.8124 C   0  0  0  0  0
    5.4991   25.1423   65.2025 C   0  0  0  0  0
    2.1009   25.2718   63.6946 N   0  0  0  0  0
   -0.2158   26.1490   61.5573 N   0  0  0  0  0
    2.4074   29.2401   60.6424 N   0  0  0  0  0
    1.3292   29.0908   62.6073 N   0  0  0  0  0
    4.1833   21.6620   67.0126 N   0  0  0  0  0
    2.3523   23.3360   65.8569 N   0  0  0  0  0
    5.9317   23.1145   66.4001 N   0  0  0  0  0
    0.4611   26.6243   64.6966 O   0  0  0  0  0
    1.3797   28.4604   60.4998 O   0  0  0  0  0
    3.5685   23.9183   62.4581 O   0  0  0  0  0
    3.2152   27.0103   64.7892 O   0  0  0  0  0
    6.2489   26.6817   64.3437 Br  0  0  0  0  0
  1 20  1  0  0  0
  1 13  1  0  0  0
  3  2  1  0  0  0
  3 21  1  0  0  0
  3 10  1  0  0  0
  4 21  1  0  0  0
  4  5  1  0  0  0
  5 28  1  0  0  0
  6 23  1  0  0  0
  7  6  1  0  0  0
  7  8  1  0  0  0
  9 21  1  0  0  0
 10 11  1  0  0  0
 11 12  1  0  0  0
 12 20  1  0  0  0
 13 14  1  0  0  0
 14 15  1  0  0  0
 15 26  1  0  0  0
 16 24  1  0  0  0
 17 25  1  0  0  0
 18 19  1  0  0  0
 19 31  1  0  0  0
 20  2  1  0  0  0
 28 22  1  0  0  0
  1 30  2  0  0  0
  2 27  2  0  0  0
  5 23  2  0  0  0
  6 22  2  0  0  0
 12 29  2  0  0  0
 14 25  2  0  0  0
 15 24  2  0  0  0
 16 17  2  0  0  0
 18 26  2  0  0  0
 19 13  2  0  0  0
M  END
> <rmsd>
0.580941141

$$$$
VYYZTFZXZWLWDZ-UHFFFAOYSA-N


 32 34  0  0  0  0  0  0  0  0999 V2000
    2.8687   25.5630   63.8914 C   0  0  0  0  0
    0.8148   26.5402   62.8545 C   0  0  0  0  0
    0.7618   27.6375   63.8755 C   0  0  0  0  0
    2.1874   29.3749   63.1952 C   0  0  0  0  0
    2.6217   29.6352   61.7604 C   0  0  0  0  0
    4.0633   27.9776   60.9286 C   0  0  0  0  0
    4.1912   26.6177   60.2298 C   0  0  0  0  0
    2.9551   26.2746   59.3935 C   0  0  0  0  0
    2.4070   27.5141   58.6883 C   0  0  0  0  0
    2.1799   28.6831   59.6630 C   0  0  0  0  0
    0.0982   29.8593   64.1061 C   0  0  0  0  0
    1.6473   24.2814   62.1362 C   0  0  0  0  0
    0.3900   23.7601   61.7914 C   0  0  0  0  0
    0.2893   22.6216   60.9879 C   0  0  0  0  0
    1.4440   21.9880   60.5220 C   0  0  0  0  0
    2.7039   22.4946   60.8635 C   0  0  0  0  0
    2.8017   23.6330   61.6673 C   0  0  0  0  0
    3.2269   24.4491   64.7931 C   0  0  0  0  0
    2.7123   22.3406   65.7415 C   0  0  0  0  0
    4.7092   23.4321   66.3890 C   0  0  0  0  0
    6.2492   22.4139   68.0182 C   0  0  0  0  0
    4.4061   24.4981   65.5432 C   0  0  0  0  0
    1.7586   25.4514   62.9768 N   0  0  0  0  0
    0.7987   28.9409   63.2270 N   0  0  0  0  0
    2.6630   28.3882   61.0145 N   0  0  0  0  0
    2.4039   23.3722   64.9135 N   0  0  0  0  0
    3.8571   22.3735   66.4714 N   0  0  0  0  0
   -0.0007   26.5726   61.8929 O   0  0  0  0  0
    3.5439   26.6278   63.9243 O   0  0  0  0  0
    5.8844   23.4680   67.1399 O   0  0  0  0  0
    1.3329   20.8839   59.7429 F   0  0  0  0  0
    4.1678   21.7166   60.2941 Cl  0  0  0  0  0
  1 23  1  0  0  0
  1 18  1  0  0  0
  3  2  1  0  0  0
  3 24  1  0  0  0
  4 24  1  0  0  0
  4  5  1  0  0  0
  5 25  1  0  0  0
  6 25  1  0  0  0
  6  7  1  0  0  0
  7  8  1  0  0  0
  8  9  1  0  0  0
  9 10  1  0  0  0
 10 25  1  0  0  0
 11 24  1  0  0  0
 13 14  1  0  0  0
 15 31  1  0  0  0
 15 16  1  0  0  0
 16 32  1  0  0  0
 17 12  1  0  0  0
 19 26  1  0  0  0
 20 27  1  0  0  0
 20 30  1  0  0  0
 21 30  1  0  0  0
 22 18  1  0  0  0
 23  2  1  0  0  0
 23 12  1  0  0  0
  1 29  2  0  0  0
  2 28  2  0  0  0
 12 13  2  0  0  0
 14 15  2  0  0  0
 16 17  2  0  0  0
 18 26  2  0  0  0
 19 27  2  0  0  0
 20 22  2  0  0  0
M  END
> <rmsd>
0.717347503

$$$$
CVNFHBOEFNVFLQ-UHFFFAOYSA-N


 36 40  0  0  0  0  0  0  0  0999 V2000
    3.4066   25.3493   64.1071 C   0  0  0  0  0
    1.5716   24.9070   62.4767 C   0  0  0  0  0
    0.5331   25.4803   63.3928 C   0  0  0  0  0
    0.3685   27.8164   63.3066 C   0  0  0  0  0
    1.1217   28.5636   62.2596 C   0  0  0  0  0
    1.7425   30.0174   60.9050 C   0  0  0  0  0
    1.8296   31.2451   60.1064 C   0  0  0  0  0
    0.9652   33.3730   59.5356 C   0  0  0  0  0
    1.9805   33.5464   58.5963 C   0  0  0  0  0
    2.9188   32.5272   58.4415 C   0  0  0  0  0
   -1.5480   26.5023   63.1738 C   0  0  0  0  0
    3.7781   23.7222   62.2481 C   0  0  0  0  0
    3.2477   22.5998   61.5897 C   0  0  0  0  0
    4.0896   21.6931   60.9397 C   0  0  0  0  0
    5.4718   21.8954   60.9446 C   0  0  0  0  0
    6.0123   23.0051   61.5975 C   0  0  0  0  0
    5.1706   23.9126   62.2462 C   0  0  0  0  0
    4.1521   24.6499   65.1794 C   0  0  0  0  0
    3.8718   23.3207   65.5575 C   0  0  0  0  0
    4.6420   22.7159   66.5732 C   0  0  0  0  0
    3.3733   20.7294   66.3571 C   0  0  0  0  0
    2.5978   21.3293   65.3623 C   0  0  0  0  0
    5.9053   24.7019   66.8518 C   0  0  0  0  0
    5.1708   25.3392   65.8499 C   0  0  0  0  0
    2.9114   24.6446   62.9486 N   0  0  0  0  0
   -0.1626   26.5837   62.7482 N   0  0  0  0  0
    2.6222   29.0008   60.8126 N   0  0  0  0  0
    0.9063   32.2312   60.2703 N   0  0  0  0  0
    2.8289   31.3997   59.1955 N   0  0  0  0  0
    0.7721   29.7841   61.8139 N   0  0  0  0  0
    4.3766   21.4355   66.9426 N   0  0  0  0  0
    2.8606   22.6093   64.9875 N   0  0  0  0  0
    5.6324   23.4133   67.1878 N   0  0  0  0  0
    2.2022   28.1199   61.6680 O   0  0  0  0  0
    1.2436   24.6144   61.2950 O   0  0  0  0  0
    3.2347   26.5953   64.1932 O   0  0  0  0  0
  1 25  1  0  0  0
  1 18  1  0  0  0
  3  2  1  0  0  0
  3 26  1  0  0  0
  4 26  1  0  0  0
  4  5  1  0  0  0
  5 34  1  0  0  0
  6  7  1  0  0  0
  6 30  1  0  0  0
  7 29  1  0  0  0
  8 28  1  0  0  0
  9 10  1  0  0  0
 11 26  1  0  0  0
 13 14  1  0  0  0
 15 16  1  0  0  0
 17 12  1  0  0  0
 18 19  1  0  0  0
 19 20  1  0  0  0
 20 33  1  0  0  0
 21 31  1  0  0  0
 22 32  1  0  0  0
 23 24  1  0  0  0
 25  2  1  0  0  0
 25 12  1  0  0  0
 34 27  1  0  0  0
  1 36  2  0  0  0
  2 35  2  0  0  0
  5 30  2  0  0  0
  6 27  2  0  0  0
  7 28  2  0  0  0
  8  9  2  0  0  0
 10 29  2  0  0  0
 12 13  2  0  0  0
 14 15  2  0  0  0
 16 17  2  0  0  0
 19 32  2  0  0  0
 20 31  2  0  0  0
 21 22  2  0  0  0
 23 33  2  0  0  0
 24 18  2  0  0  0
M  END
> <rmsd>
0.667293906

$$$$
YDCMLUYYAKNJDJ-UHFFFAOYSA-N


 34 38  0  0  0  0  0  0  0  0999 V2000
    3.9311   26.7863   63.7053 C   0  0  0  0  0
    1.9361   25.4487   64.3943 C   0  0  0  0  0
    1.2871   24.1059   64.2725 C   0  0  0  0  0
    1.2230   22.0327   65.3748 C   0  0  0  0  0
    1.9240   20.6850   65.6266 C   0  0  0  0  0
    3.2282   20.7835   66.4352 C   0  0  0  0  0
    5.4523   21.5996   66.5594 C   0  0  0  0  0
    5.4641   21.9466   68.0297 C   0  0  0  0  0
    6.3226   22.8295   66.4560 C   0  0  0  0  0
    4.2450   21.8683   64.5305 C   0  0  0  0  0
    3.0472   22.5833   63.8815 C   0  0  0  0  0
    2.6010   25.5358   61.9947 C   0  0  0  0  0
    2.7677   24.7457   59.6700 C   0  0  0  0  0
    1.5144   25.0936   60.0077 C   0  0  0  0  0
    0.5729   24.9682   58.8792 C   0  0  0  0  0
    1.4746   24.4387   57.7398 C   0  0  0  0  0
    2.9222   24.3321   58.2690 C   0  0  0  0  0
    1.3696   25.5448   61.3182 C   0  0  0  0  0
    0.1247   26.0149   61.8682 C   0  0  0  0  0
    4.6342   27.6056   62.6703 C   0  0  0  0  0
    4.1118   29.0336   62.6674 C   0  0  0  0  0
    1.2280   29.0599   60.6155 C   0  0  0  0  0
    1.6580   29.4602   62.6586 C   0  0  0  0  0
    2.8110   25.9414   63.3618 N   0  0  0  0  0
    2.1219   23.0938   64.8998 N   0  0  0  0  0
    4.1295   21.8626   65.9946 N   0  0  0  0  0
   -0.8758   26.3929   62.3109 N   0  0  0  0  0
    2.7960   29.0975   62.0509 N   0  0  0  0  0
    2.5487   28.8499   60.7787 N   0  0  0  0  0
    0.6418   29.4425   61.7734 N   0  0  0  0  0
    6.2593   23.0856   67.8341 O   0  0  0  0  0
    1.7402   26.1239   65.4395 O   0  0  0  0  0
    4.3246   26.8663   64.8993 O   0  0  0  0  0
    3.8267   24.9711   60.9524 S   0  0  0  0  0
  1 24  1  0  0  0
  3  2  1  0  0  0
  3 25  1  0  0  0
  4 25  1  0  0  0
  4  5  1  0  0  0
  5  6  1  0  0  0
  6 26  1  0  0  0
  7 26  1  0  0  0
  7  8  1  0  0  0
  8 31  1  0  0  0
  9 31  1  0  0  0
  9  7  1  0  0  0
 10 26  1  0  0  0
 10 11  1  0  0  0
 11 25  1  0  0  0
 12 34  1  0  0  0
 13 34  1  0  0  0
 14 18  1  0  0  0
 15 14  1  0  0  0
 15 16  1  0  0  0
 16 17  1  0  0  0
 17 13  1  0  0  0
 18 19  1  0  0  0
 20  1  1  0  0  0
 20 21  1  0  0  0
 21 28  1  0  0  0
 22 30  1  0  0  0
 23 28  1  0  0  0
 24  2  1  0  0  0
 24 12  1  0  0  0
 28 29  1  0  0  0
  1 33  2  0  0  0
  2 32  2  0  0  0
 13 14  2  0  0  0
 18 12  2  0  0  0
 22 29  2  0  0  0
 23 30  2  0  0  0
 19 27  3  0  0  0
M  END
> <rmsd>
0.717972577

$$$$
RCWSJMQKWNOWIH-UHFFFAOYSA-N


 28 29  0  0  0  0  0  0  0  0999 V2000
    3.4827   25.6966   64.4826 C   0  0  0  0  0
    1.3118   25.2314   63.2976 C   0  0  0  0  0
   -0.1887   25.3410   63.2203 C   0  0  0  0  0
   -0.5040   27.5369   62.2142 C   0  0  0  0  0
    0.7451   28.0605   61.5827 C   0  0  0  0  0
    2.5472   28.1767   60.5249 C   0  0  0  0  0
   -2.0228   25.7953   61.7801 C   0  0  0  0  0
   -0.8383   25.7861   64.5465 C   0  0  0  0  0
   -0.0945   26.9606   65.1653 C   0  0  0  0  0
    1.3324   26.5865   65.3846 C   0  0  0  0  0
    4.1619   24.4314   64.0707 C   0  0  0  0  0
    5.7229   22.9913   65.0565 C   0  0  0  0  0
    6.7845   23.8066   65.7749 C   0  0  0  0  0
    7.3541   24.7765   67.6721 C   0  0  0  0  0
    3.2200   21.4484   63.7061 C   0  0  0  0  0
    2.0516   25.8450   64.3787 N   0  0  0  0  0
   -0.6208   26.0923   62.0274 N   0  0  0  0  0
    2.2754   29.4138   60.9884 N   0  0  0  0  0
    1.1357   29.3421   61.6570 N   0  0  0  0  0
    4.4136   23.6005   65.2400 N   0  0  0  0  0
    1.9132   24.6150   62.3773 O   0  0  0  0  0
    1.5998   27.3454   60.8929 O   0  0  0  0  0
    1.8833   26.8974   66.4746 O   0  0  0  0  0
    4.1812   26.6232   64.9743 O   0  0  0  0  0
    6.5842   23.7365   67.1537 O   0  0  0  0  0
    3.5679   21.3543   66.3603 O   0  0  0  0  0
    1.8729   22.8986   65.5123 O   0  0  0  0  0
    3.2373   22.3221   65.2586 S   0  0  0  0  0
  1 16  1  0  0  0
  3  2  1  0  0  0
  3 17  1  0  0  0
  3  8  1  0  0  0
  4 17  1  0  0  0
  4  5  1  0  0  0
  5 22  1  0  0  0
  6 22  1  0  0  0
  7 17  1  0  0  0
  8  9  1  0  0  0
  9 10  1  0  0  0
 10 16  1  0  0  0
 11  1  1  0  0  0
 11 20  1  0  0  0
 12 20  1  0  0  0
 12 13  1  0  0  0
 13 25  1  0  0  0
 14 25  1  0  0  0
 16  2  1  0  0  0
 18 19  1  0  0  0
 28 20  1  0  0  0
 28 15  1  0  0  0
  1 24  2  0  0  0
  2 21  2  0  0  0
  5 19  2  0  0  0
  6 18  2  0  0  0
 10 23  2  0  0  0
 28 26  2  0  0  0
 28 27  2  0  0  0
M  END
> <rmsd>
0.704883575

$$$$
VKJVAEPZGXFJGU-UHFFFAOYSA-N


 33 37  0  0  0  0  0  0  0  0999 V2000
    3.5083   22.3174   66.6516 C   0  0  0  0  0
    3.0515   24.6587   67.3675 C   0  0  0  0  0
    3.4713   26.0388   66.8824 C   0  0  0  0  0
    3.3657   26.1317   65.3638 C   0  0  0  0  0
    1.8758   27.8933   64.9616 C   0  0  0  0  0
    1.7052   29.3374   64.4926 C   0  0  0  0  0
    2.2479   29.4976   63.0736 C   0  0  0  0  0
    1.5093   28.9580   60.7708 C   0  0  0  0  0
    0.9159   28.4809   58.5427 C   0  0  0  0  0
    0.6904   28.2194   59.8923 C   0  0  0  0  0
    3.6834   28.9672   62.9980 C   0  0  0  0  0
    3.7520   27.5446   63.5510 C   0  0  0  0  0
    4.8785   26.3500   67.3869 C   0  0  0  0  0
    5.9200   25.3324   66.9151 C   0  0  0  0  0
    5.4204   23.9164   66.9419 C   0  0  0  0  0
    2.3390   22.1485   65.7696 C   0  0  0  0  0
    0.7967   22.8182   64.2756 C   0  0  0  0  0
    0.0786   23.7343   63.3798 C   0  0  0  0  0
   -1.6691   24.1258   61.8256 C   0  0  0  0  0
   -1.2613   25.4547   61.6986 C   0  0  0  0  0
    0.4845   25.0676   63.2504 C   0  0  0  0  0
    1.6884   20.9236   65.6016 C   0  0  0  0  0
    4.0074   23.6299   66.9555 N   0  0  0  0  0
    3.2910   27.5193   64.9383 N   0  0  0  0  0
    2.3938   29.8149   60.2015 N   0  0  0  0  0
    1.8488   23.1843   65.0344 N   0  0  0  0  0
   -0.9910   23.2957   62.6617 N   0  0  0  0  0
   -0.1934   25.8967   62.4137 N   0  0  0  0  0
    1.4037   28.8078   62.1552 O   0  0  0  0  0
    6.2609   22.9815   66.8617 O   0  0  0  0  0
    4.0815   21.3005   67.1292 O   0  0  0  0  0
    2.1313   29.6260   58.5773 S   0  0  0  0  0
    0.4484   21.1917   64.4923 S   0  0  0  0  0
  1 23  1  0  0  0
  1 16  1  0  0  0
  2 23  1  0  0  0
  2  3  1  0  0  0
  3  4  1  0  0  0
  3 13  1  0  0  0
  4 24  1  0  0  0
  5 24  1  0  0  0
  5  6  1  0  0  0
  6  7  1  0  0  0
  7 29  1  0  0  0
  7 11  1  0  0  0
  8 29  1  0  0  0
  9 32  1  0  0  0
 10  8  1  0  0  0
 11 12  1  0  0  0
 12 24  1  0  0  0
 13 14  1  0  0  0
 14 15  1  0  0  0
 15 23  1  0  0  0
 16 26  1  0  0  0
 17 18  1  0  0  0
 17 33  1  0  0  0
 19 27  1  0  0  0
 20 28  1  0  0  0
 21 18  1  0  0  0
 22 33  1  0  0  0
 25 32  1  0  0  0
  1 31  2  0  0  0
  8 25  2  0  0  0
  9 10  2  0  0  0
 15 30  2  0  0  0
 17 26  2  0  0  0
 18 27  2  0  0  0
 19 20  2  0  0  0
 21 28  2  0  0  0
 22 16  2  0  0  0
M  END
> <rmsd>
0.765237868

$$$$
IIYLPHITGFTTFB-UHFFFAOYSA-N


 34 37  0  0  0  0  0  0  0  0999 V2000
    3.2934   25.8051   64.6578 C   0  0  0  0  0
    0.9819   26.1483   63.7510 C   0  0  0  0  0
   -0.0729   25.8445   62.7333 C   0  0  0  0  0
   -0.3704   25.5418   60.4355 C   0  0  0  0  0
   -0.7341   26.4565   59.2904 C   0  0  0  0  0
   -0.7511   27.8449   59.8757 C   0  0  0  0  0
   -0.1862   27.6982   61.2764 C   0  0  0  0  0
    0.9009   28.6959   61.5134 C   0  0  0  0  0
    2.0346   30.2414   62.3264 C   0  0  0  0  0
    2.5176   31.3605   63.1900 C   0  0  0  0  0
    2.3975   24.2483   62.9159 C   0  0  0  0  0
    3.1607   24.6736   61.6739 C   0  0  0  0  0
    4.1750   24.8194   65.3248 C   0  0  0  0  0
    3.6957   23.5980   65.8392 C   0  0  0  0  0
    4.5999   22.7065   66.4544 C   0  0  0  0  0
    2.8282   21.1959   66.8763 C   0  0  0  0  0
    1.9266   22.0837   66.2851 C   0  0  0  0  0
    6.3927   24.2127   66.0936 C   0  0  0  0  0
    5.5344   25.1228   65.4719 C   0  0  0  0  0
    2.2059   25.3901   63.8087 N   0  0  0  0  0
    0.3324   26.3408   61.4258 N   0  0  0  0  0
    2.0569   28.7313   60.8202 N   0  0  0  0  0
    0.8445   29.6299   62.4839 N   0  0  0  0  0
    4.1435   21.5285   66.9539 N   0  0  0  0  0
    2.3765   23.2651   65.7867 N   0  0  0  0  0
    5.9140   23.0322   66.5650 N   0  0  0  0  0
   -1.9746   26.1242   58.7824 F   0  0  0  0  0
    0.2250   26.3759   58.2980 F   0  0  0  0  0
    1.4711   32.2194   63.4722 F   0  0  0  0  0
    3.0175   30.8450   64.3707 F   0  0  0  0  0
    3.5164   32.0604   62.5398 F   0  0  0  0  0
    2.7312   29.7031   61.3553 O   0  0  0  0  0
    0.7786   27.0928   64.5608 O   0  0  0  0  0
    3.5332   27.0350   64.8044 O   0  0  0  0  0
  1 20  1  0  0  0
  1 13  1  0  0  0
  3  2  1  0  0  0
  3 21  1  0  0  0
  4 21  1  0  0  0
  4  5  1  0  0  0
  5 27  1  0  0  0
  5 28  1  0  0  0
  5  6  1  0  0  0
  6  7  1  0  0  0
  7  8  1  0  0  0
  7 21  1  0  0  0
  8 23  1  0  0  0
  9 32  1  0  0  0
 10  9  1  0  0  0
 10 29  1  0  0  0
 10 30  1  0  0  0
 10 31  1  0  0  0
 11 20  1  0  0  0
 11 12  1  0  0  0
 13 14  1  0  0  0
 14 15  1  0  0  0
 15 26  1  0  0  0
 16 24  1  0  0  0
 17 25  1  0  0  0
 18 19  1  0  0  0
 20  2  1  0  0  0
 22 32  1  0  0  0
  1 34  2  0  0  0
  2 33  2  0  0  0
  8 22  2  0  0  0
  9 23  2  0  0  0
 14 25  2  0  0  0
 15 24  2  0  0  0
 16 17  2  0  0  0
 18 26  2  0  0  0
 19 13  2  0  0  0
M  END
> <rmsd>
0.600794256

$$$$
KFENOSDUOIJVSY-UHFFFAOYSA-N


 33 35  0  0  0  0  0  0  0  0999 V2000
    2.2845   25.2376   63.0185 C   0  0  0  0  0
    0.4962   26.9761   62.8967 C   0  0  0  0  0
    0.0355   28.3799   63.1757 C   0  0  0  0  0
    0.3704   29.0773   60.9066 C   0  0  0  0  0
    1.5419   28.4062   60.2061 C   0  0  0  0  0
    3.7261   28.4530   60.5095 C   0  0  0  0  0
    0.1437   30.6731   62.5665 C   0  0  0  0  0
    0.3245   28.6667   64.6540 C   0  0  0  0  0
    1.8170   28.5656   64.9727 C   0  0  0  0  0
    2.4423   27.3237   64.4043 C   0  0  0  0  0
    2.9134   24.2927   63.9719 C   0  0  0  0  0
    2.3110   24.0713   65.3304 C   0  0  0  0  0
    0.9786   24.6545   65.6604 C   0  0  0  0  0
    5.9431   22.0792   63.7848 C   0  0  0  0  0
    5.5447   21.0417   62.7908 C   0  0  0  0  0
    5.5107   21.3551   61.4275 C   0  0  0  0  0
    5.1131   20.3900   60.4973 C   0  0  0  0  0
    4.7450   19.1121   60.9296 C   0  0  0  0  0
    4.7716   18.8000   62.2924 C   0  0  0  0  0
    5.1692   19.7648   63.2229 C   0  0  0  0  0
    4.0144   23.6536   63.5430 C   0  0  0  0  0
    1.7328   26.4948   63.4580 N   0  0  0  0  0
    0.7069   29.3567   62.2994 N   0  0  0  0  0
    2.8748   23.3400   66.2435 N   0  0  0  0  0
    4.7658   22.7328   64.3353 N   0  0  0  0  0
   -0.2138   26.2306   62.1692 O   0  0  0  0  0
    2.6412   29.2648   60.1801 O   0  0  0  0  0
    3.6240   27.0420   64.7394 O   0  0  0  0  0
    2.2515   24.9433   61.7915 O   0  0  0  0  0
    5.4422   23.1752   66.8511 O   0  0  0  0  0
    4.2384   21.0827   66.3266 O   0  0  0  0  0
    4.3801   22.5419   65.9981 S   0  0  0  0  0
    4.3600   18.1774   60.0283 F   0  0  0  0  0
  1 22  1  0  0  0
  1 11  1  0  0  0
  3  2  1  0  0  0
  3 23  1  0  0  0
  3  8  1  0  0  0
  4 23  1  0  0  0
  4  5  1  0  0  0
  5 27  1  0  0  0
  6 27  1  0  0  0
  7 23  1  0  0  0
  8  9  1  0  0  0
  9 10  1  0  0  0
 10 22  1  0  0  0
 11 12  1  0  0  0
 13 12  1  0  0  0
 14 25  1  0  0  0
 14 15  1  0  0  0
 16 17  1  0  0  0
 18 33  1  0  0  0
 18 19  1  0  0  0
 20 15  1  0  0  0
 22  2  1  0  0  0
 25 21  1  0  0  0
 32 24  1  0  0  0
 32 25  1  0  0  0
  1 29  2  0  0  0
  2 26  2  0  0  0
 10 28  2  0  0  0
 12 24  2  0  0  0
 15 16  2  0  0  0
 17 18  2  0  0  0
 19 20  2  0  0  0
 21 11  2  0  0  0
 32 30  2  0  0  0
 32 31  2  0  0  0
M  END
> <rmsd>
0.515690148

$$$$
FDTMRZSCMUQFSN-UHFFFAOYSA-N


 34 37  0  0  0  0  0  0  0  0999 V2000
    3.0968   25.5750   64.2274 C   0  0  0  0  0
    1.0529   26.4699   63.0980 C   0  0  0  0  0
    0.7420   27.3644   64.2597 C   0  0  0  0  0
    1.4673   28.6998   64.1390 C   0  0  0  0  0
    2.1877   29.9159   62.2702 C   0  0  0  0  0
    2.6447   28.9103   61.2665 C   0  0  0  0  0
    2.2456   27.6496   59.3013 C   0  0  0  0  0
    3.4939   27.0400   59.4394 C   0  0  0  0  0
    3.8942   28.3024   61.4030 C   0  0  0  0  0
    0.3085   30.6080   63.4632 C   0  0  0  0  0
    2.3926   24.6151   62.0435 C   0  0  0  0  0
    3.7038   24.2453   61.6914 C   0  0  0  0  0
    3.9381   23.3515   60.6426 C   0  0  0  0  0
    2.8605   22.8147   59.9371 C   0  0  0  0  0
    1.5489   23.1469   60.2991 C   0  0  0  0  0
    0.6962   21.4422   58.7468 C   0  0  0  0  0
    2.0053   21.6096   57.9717 C   0  0  0  0  0
    1.3163   24.0486   61.3393 C   0  0  0  0  0
    3.4180   24.3465   64.9803 C   0  0  0  0  0
    3.0069   22.0565   65.4230 C   0  0  0  0  0
    4.6920   23.1767   66.6494 C   0  0  0  0  0
    6.0154   22.0044   68.3630 C   0  0  0  0  0
    4.4203   24.3549   65.9552 C   0  0  0  0  0
    2.1642   25.5428   63.1290 N   0  0  0  0  0
    1.0052   29.4340   62.9693 N   0  0  0  0  0
    1.8485   28.5728   60.2166 N   0  0  0  0  0
    4.2913   27.3806   60.4864 N   0  0  0  0  0
    2.7310   23.1970   64.7387 N   0  0  0  0  0
    3.9807   22.0500   66.3697 N   0  0  0  0  0
    0.3271   26.5635   62.0717 O   0  0  0  0  0
    0.4841   22.5643   59.6064 O   0  0  0  0  0
    3.0702   21.9423   58.8655 O   0  0  0  0  0
    3.6523   26.6624   64.5425 O   0  0  0  0  0
    5.6915   23.1717   67.6227 O   0  0  0  0  0
  1 24  1  0  0  0
  1 19  1  0  0  0
  3  2  1  0  0  0
  3  4  1  0  0  0
  4 25  1  0  0  0
  5 25  1  0  0  0
  5  6  1  0  0  0
  7 26  1  0  0  0
  8 27  1  0  0  0
  9  6  1  0  0  0
 10 25  1  0  0  0
 12 13  1  0  0  0
 14 15  1  0  0  0
 14 32  1  0  0  0
 15 31  1  0  0  0
 16 31  1  0  0  0
 16 17  1  0  0  0
 17 32  1  0  0  0
 18 11  1  0  0  0
 20 28  1  0  0  0
 21 29  1  0  0  0
 21 34  1  0  0  0
 22 34  1  0  0  0
 23 19  1  0  0  0
 24  2  1  0  0  0
 24 11  1  0  0  0
  1 33  2  0  0  0
  2 30  2  0  0  0
  6 26  2  0  0  0
  7  8  2  0  0  0
  9 27  2  0  0  0
 11 12  2  0  0  0
 13 14  2  0  0  0
 15 18  2  0  0  0
 19 28  2  0  0  0
 20 29  2  0  0  0
 21 23  2  0  0  0
M  END
> <rmsd>
0.652976513

$$$$
VZNQJWRDVXPFMW-UHFFFAOYSA-N


 37 41  0  0  0  0  0  0  0  0999 V2000
    5.0783   23.8746   67.2015 C   0  0  0  0  0
    4.3713   26.2680   66.8017 C   0  0  0  0  0
    4.5275   27.5107   65.9873 C   0  0  0  0  0
    4.3888   28.2890   63.7791 C   0  0  0  0  0
    3.2175   29.2477   63.8092 C   0  0  0  0  0
    2.4284   29.1831   62.5384 C   0  0  0  0  0
    0.9048   29.3583   61.1296 C   0  0  0  0  0
   -0.3882   29.6827   60.4598 C   0  0  0  0  0
   -0.4617   31.1392   60.1494 C   0  0  0  0  0
   -1.0267   32.0241   61.0755 C   0  0  0  0  0
   -1.0754   33.3933   60.7959 C   0  0  0  0  0
   -0.5541   33.8804   59.5928 C   0  0  0  0  0
    0.0166   32.9985   58.6690 C   0  0  0  0  0
    0.0641   31.6287   58.9472 C   0  0  0  0  0
    2.6430   28.2863   64.8250 C   0  0  0  0  0
    6.6526   25.4898   66.1469 C   0  0  0  0  0
    3.6826   23.3666   67.3849 C   0  0  0  0  0
    3.3859   21.5825   65.7207 C   0  0  0  0  0
    2.8945   21.1438   64.4942 C   0  0  0  0  0
    2.1787   22.0268   63.6929 C   0  0  0  0  0
    1.9634   23.3356   64.1336 C   0  0  0  0  0
    1.1984   24.2981   63.3134 C   0  0  0  0  0
    0.7967   23.9746   62.0088 C   0  0  0  0  0
    0.0742   24.9027   61.2562 C   0  0  0  0  0
    0.1311   26.4522   63.0509 C   0  0  0  0  0
    0.8576   25.5527   63.8336 C   0  0  0  0  0
    5.3414   25.2058   66.7183 N   0  0  0  0  0
    3.7828   27.3809   64.7439 N   0  0  0  0  0
    1.9604   28.8228   60.4877 N   0  0  0  0  0
    1.1562   29.6129   62.4300 N   0  0  0  0  0
    3.1580   22.8714   66.1176 N   0  0  0  0  0
   -0.2424   26.1128   61.7886 N   0  0  0  0  0
    2.4673   23.7123   65.3415 N   0  0  0  0  0
    2.8838   28.7280   61.3952 O   0  0  0  0  0
    3.3700   26.1676   67.5595 O   0  0  0  0  0
    6.0351   23.0833   67.4159 O   0  0  0  0  0
    4.0358   20.7845   66.4503 O   0  0  0  0  0
  1 27  1  0  0  0
  3  2  1  0  0  0
  3 28  1  0  0  0
  4 28  1  0  0  0
  4  5  1  0  0  0
  5  6  1  0  0  0
  5 15  1  0  0  0
  6 34  1  0  0  0
  7 30  1  0  0  0
  8  7  1  0  0  0
  8  9  1  0  0  0
 10 11  1  0  0  0
 12 13  1  0  0  0
 14  9  1  0  0  0
 15 28  1  0  0  0
 16 27  1  0  0  0
 17  1  1  0  0  0
 17 31  1  0  0  0
 18 19  1  0  0  0
 20 21  1  0  0  0
 21 22  1  0  0  0
 23 24  1  0  0  0
 25 32  1  0  0  0
 26 22  1  0  0  0
 27  2  1  0  0  0
 31 18  1  0  0  0
 31 33  1  0  0  0
 34 29  1  0  0  0
  1 36  2  0  0  0
  2 35  2  0  0  0
  6 30  2  0  0  0
  7 29  2  0  0  0
  9 10  2  0  0  0
 11 12  2  0  0  0
 13 14  2  0  0  0
 18 37  2  0  0  0
 19 20  2  0  0  0
 21 33  2  0  0  0
 22 23  2  0  0  0
 24 32  2  0  0  0
 25 26  2  0  0  0
M  END
> <rmsd>
0.589996517

$$$$
RCZCRCRXFVIOEU-UHFFFAOYSA-N


 34 38  0  0  0  0  0  0  0  0999 V2000
    2.8718   26.0218   64.6913 C   0  0  0  0  0
    0.8158   26.4283   63.2680 C   0  0  0  0  0
    0.7678   27.9241   63.4648 C   0  0  0  0  0
    0.6554   28.3513   61.1020 C   0  0  0  0  0
    0.5577   29.5590   60.1668 C   0  0  0  0  0
    1.8417   30.3896   60.0857 C   0  0  0  0  0
    4.0522   30.2316   59.2882 C   0  0  0  0  0
    3.7937   30.0600   57.8124 C   0  0  0  0  0
    5.2103   29.3088   59.0014 C   0  0  0  0  0
    3.4969   29.4647   61.4456 C   0  0  0  0  0
    2.7595   28.3675   62.2060 C   0  0  0  0  0
    2.3111   24.5085   62.7661 C   0  0  0  0  0
    3.0459   24.9699   61.5531 C   0  0  0  0  0
    2.3423   25.2468   60.3758 C   0  0  0  0  0
    3.0199   25.7276   59.2515 C   0  0  0  0  0
    4.4008   25.9376   59.3052 C   0  0  0  0  0
    5.1042   25.6691   60.4834 C   0  0  0  0  0
    4.4269   25.1886   61.6080 C   0  0  0  0  0
    3.8579   25.0657   65.2383 C   0  0  0  0  0
    3.4984   23.7660   65.6426 C   0  0  0  0  0
    4.4894   22.9084   66.1650 C   0  0  0  0  0
    2.8627   21.2180   66.4775 C   0  0  0  0  0
    1.8761   22.0693   65.9735 C   0  0  0  0  0
    6.1363   24.5957   65.9130 C   0  0  0  0  0
    5.1870   25.4781   65.3907 C   0  0  0  0  0
    1.9774   25.6499   63.6179 N   0  0  0  0  0
    1.3399   28.6926   62.3488 N   0  0  0  0  0
    3.0274   29.5365   60.0637 N   0  0  0  0  0
    4.1473   21.6556   66.5640 N   0  0  0  0  0
    2.2128   23.3233   65.5711 N   0  0  0  0  0
    5.7730   23.3389   66.2840 N   0  0  0  0  0
    4.8886   29.2005   57.6412 O   0  0  0  0  0
   -0.1694   25.8647   62.7191 O   0  0  0  0  0
    2.8397   27.1865   65.1738 O   0  0  0  0  0
  1 26  1  0  0  0
  1 19  1  0  0  0
  3  2  1  0  0  0
  3 27  1  0  0  0
  4 27  1  0  0  0
  4  5  1  0  0  0
  5  6  1  0  0  0
  6 28  1  0  0  0
  7 28  1  0  0  0
  7  8  1  0  0  0
  8 32  1  0  0  0
  9 32  1  0  0  0
  9  7  1  0  0  0
 10 28  1  0  0  0
 10 11  1  0  0  0
 11 27  1  0  0  0
 12 26  1  0  0  0
 12 13  1  0  0  0
 14 15  1  0  0  0
 16 17  1  0  0  0
 18 13  1  0  0  0
 19 20  1  0  0  0
 20 21  1  0  0  0
 21 31  1  0  0  0
 22 29  1  0  0  0
 23 30  1  0  0  0
 24 25  1  0  0  0
 26  2  1  0  0  0
  1 34  2  0  0  0
  2 33  2  0  0  0
 13 14  2  0  0  0
 15 16  2  0  0  0
 17 18  2  0  0  0
 20 30  2  0  0  0
 21 29  2  0  0  0
 22 23  2  0  0  0
 24 31  2  0  0  0
 25 19  2  0  0  0
M  END
> <rmsd>
0.746406078

$$$$
CUYXCBDAGBFHGD-UHFFFAOYSA-N


 33 36  0  0  0  0  0  0  0  0999 V2000
    1.2253   28.7328   61.6939 C   0  0  0  0  0
    0.8119   26.5441   62.8530 C   0  0  0  0  0
    1.2880   25.4678   63.7796 C   0  0  0  0  0
    1.1277   24.0792   63.1548 C   0  0  0  0  0
    1.3956   22.9534   64.1658 C   0  0  0  0  0
    2.0513   22.3424   66.3391 C   0  0  0  0  0
    3.4824   21.9116   66.3722 C   0  0  0  0  0
    4.5315   22.8003   66.9056 C   0  0  0  0  0
    5.1581   24.8536   67.9174 C   0  0  0  0  0
    6.4959   24.4589   67.8973 C   0  0  0  0  0
    5.8755   22.4082   66.8888 C   0  0  0  0  0
    0.8523   24.3299   66.0151 C   0  0  0  0  0
    0.5987   25.5685   65.1433 C   0  0  0  0  0
    3.1269   27.5064   62.7730 C   0  0  0  0  0
    3.3330   28.1152   64.1186 C   0  0  0  0  0
    3.7179   28.3887   66.1424 C   0  0  0  0  0
    4.0471   28.1494   67.5713 C   0  0  0  0  0
    2.0452   29.4264   60.6802 C   0  0  0  0  0
    3.9242   29.4693   59.2397 C   0  0  0  0  0
    3.5351   30.7139   58.7486 C   0  0  0  0  0
    2.3708   31.2890   59.2541 C   0  0  0  0  0
    1.7150   27.5729   62.3979 N   0  0  0  0  0
    1.8908   23.4747   65.4417 N   0  0  0  0  0
    4.2076   24.0179   67.4222 N   0  0  0  0  0
    6.8256   23.2447   67.3838 N   0  0  0  0  0
    3.4069   29.6002   65.6441 N   0  0  0  0  0
    3.6835   27.4130   65.2125 N   0  0  0  0  0
    3.1750   28.8495   60.1886 N   0  0  0  0  0
    1.6485   30.6378   60.2026 N   0  0  0  0  0
    3.7811   20.7659   65.9414 O   0  0  0  0  0
   -0.3895   26.5334   62.4662 O   0  0  0  0  0
    3.1752   29.3880   64.3851 O   0  0  0  0  0
    0.0729   29.1775   61.9493 O   0  0  0  0  0
  1 22  1  0  0  0
  1 18  1  0  0  0
  3  2  1  0  0  0
  3  4  1  0  0  0
  4  5  1  0  0  0
  5 23  1  0  0  0
  6 23  1  0  0  0
  6  7  1  0  0  0
  7  8  1  0  0  0
  9 24  1  0  0  0
 10 25  1  0  0  0
 11  8  1  0  0  0
 12 23  1  0  0  0
 12 13  1  0  0  0
 13  3  1  0  0  0
 14 22  1  0  0  0
 14 15  1  0  0  0
 15 32  1  0  0  0
 16 27  1  0  0  0
 17 16  1  0  0  0
 18 29  1  0  0  0
 19 28  1  0  0  0
 20 21  1  0  0  0
 22  2  1  0  0  0
 32 26  1  0  0  0
  1 33  2  0  0  0
  2 31  2  0  0  0
  7 30  2  0  0  0
  8 24  2  0  0  0
  9 10  2  0  0  0
 11 25  2  0  0  0
 15 27  2  0  0  0
 16 26  2  0  0  0
 18 28  2  0  0  0
 19 20  2  0  0  0
 21 29  2  0  0  0
M  END
> <rmsd>
0.762683988

$$$$
FEOZVONSBQRYET-UHFFFAOYSA-N


 28 30  0  0  0  0  0  0  0  0999 V2000
    3.3957   25.7391   64.3201 C   0  0  0  0  0
    1.2962   26.2880   63.0367 C   0  0  0  0  0
    1.0289   27.5088   63.8630 C   0  0  0  0  0
    2.1691   29.3972   63.0360 C   0  0  0  0  0
    3.0906   28.9030   61.9292 C   0  0  0  0  0
    2.6538   27.9877   59.8245 C   0  0  0  0  0
    2.9520   28.4181   58.4061 C   0  0  0  0  0
    3.4530   29.8362   58.5172 C   0  0  0  0  0
    3.3654   30.1825   59.9882 C   0  0  0  0  0
   -0.0756   29.5470   63.6379 C   0  0  0  0  0
    2.6334   24.2546   62.4649 C   0  0  0  0  0
    3.5227   24.6215   61.2915 C   0  0  0  0  0
    3.9880   24.6870   65.1774 C   0  0  0  0  0
    5.3138   24.8338   65.6281 C   0  0  0  0  0
    5.1724   22.7997   66.7786 C   0  0  0  0  0
    4.1846   20.7890   67.6011 C   0  0  0  0  0
    3.8169   19.4957   68.2332 C   0  0  0  0  0
    3.2679   23.5454   65.5952 C   0  0  0  0  0
    2.4152   25.4228   63.3135 N   0  0  0  0  0
    0.9016   28.6800   63.0061 N   0  0  0  0  0
    2.5122   29.1920   60.6274 N   0  0  0  0  0
    5.8915   23.8893   66.4204 N   0  0  0  0  0
    3.8948   22.6293   66.3808 N   0  0  0  0  0
    3.3328   21.5113   66.8349 N   0  0  0  0  0
    0.4932   26.0004   62.1075 O   0  0  0  0  0
    3.7955   26.9282   64.4500 O   0  0  0  0  0
    2.0595   23.3810   65.2729 O   0  0  0  0  0
    5.7015   21.5331   67.7478 S   0  0  0  0  0
  1 19  1  0  0  0
  1 13  1  0  0  0
  3  2  1  0  0  0
  3 20  1  0  0  0
  4 20  1  0  0  0
  4  5  1  0  0  0
  5 21  1  0  0  0
  6 21  1  0  0  0
  6  7  1  0  0  0
  7  8  1  0  0  0
  8  9  1  0  0  0
  9 21  1  0  0  0
 10 20  1  0  0  0
 11 19  1  0  0  0
 11 12  1  0  0  0
 14 22  1  0  0  0
 15 23  1  0  0  0
 15 28  1  0  0  0
 16 28  1  0  0  0
 17 16  1  0  0  0
 18 13  1  0  0  0
 19  2  1  0  0  0
 23 24  1  0  0  0
 23 18  1  0  0  0
  1 26  2  0  0  0
  2 25  2  0  0  0
 13 14  2  0  0  0
 15 22  2  0  0  0
 16 24  2  0  0  0
 18 27  2  0  0  0
M  END
> <rmsd>
0.681138456

$$$$
ZBRASZJPNMNPHS-UHFFFAOYSA-N


 35 38  0  0  0  0  0  0  0  0999 V2000
    2.0294   27.9503   60.9382 C   0  0  0  0  0
    2.1059   28.7568   63.3157 C   0  0  0  0  0
    2.7211   28.6305   64.6726 C   0  0  0  0  0
    4.3474   27.1016   64.5822 C   0  0  0  0  0
    4.9734   26.0437   65.4778 C   0  0  0  0  0
    4.6333   23.6823   66.0942 C   0  0  0  0  0
    3.8616   22.4434   65.9438 C   0  0  0  0  0
    2.0640   21.2699   64.9484 C   0  0  0  0  0
    2.4085   20.1195   65.6557 C   0  0  0  0  0
    3.5065   20.1739   66.5125 C   0  0  0  0  0
    4.4722   26.6911   63.1154 C   0  0  0  0  0
    4.1727   27.8701   62.1964 C   0  0  0  0  0
    0.7022   27.2907   60.9324 C   0  0  0  0  0
   -0.1194   26.9822   59.8506 C   0  0  0  0  0
    0.2044   27.1241   58.3803 C   0  0  0  0  0
   -2.4783   26.0996   59.7270 C   0  0  0  0  0
   -3.0478   26.9388   58.7570 C   0  0  0  0  0
   -4.2721   26.6088   58.1688 C   0  0  0  0  0
   -4.9435   25.4466   58.5580 C   0  0  0  0  0
   -4.3942   24.6183   59.5405 C   0  0  0  0  0
   -3.1697   24.9481   60.1286 C   0  0  0  0  0
    2.7406   28.1613   62.1680 N   0  0  0  0  0
    2.7922   22.4064   65.1034 N   0  0  0  0  0
    4.2109   21.3285   66.6416 N   0  0  0  0  0
   -1.2520   26.4586   60.3796 N   0  0  0  0  0
   -1.1052   26.4031   61.6935 N   0  0  0  0  0
    0.0684   26.8964   62.0551 N   0  0  0  0  0
    1.0354   29.4091   63.1887 O   0  0  0  0  0
    3.0022   27.2842   64.9328 O   0  0  0  0  0
    4.2609   24.8173   65.3726 O   0  0  0  0  0
    5.6260   23.7154   66.8720 O   0  0  0  0  0
    2.5567   28.3228   59.8568 O   0  0  0  0  0
    0.0658   28.4464   58.0036 F   0  0  0  0  0
   -0.6229   26.3394   57.6010 F   0  0  0  0  0
    1.5003   26.7102   58.1365 F   0  0  0  0  0
  1 22  1  0  0  0
  1 13  1  0  0  0
  3  2  1  0  0  0
  3 29  1  0  0  0
  4 29  1  0  0  0
  4  5  1  0  0  0
  4 11  1  0  0  0
  5 30  1  0  0  0
  6 30  1  0  0  0
  6  7  1  0  0  0
  7 24  1  0  0  0
  8 23  1  0  0  0
  9 10  1  0  0  0
 11 12  1  0  0  0
 12 22  1  0  0  0
 13 27  1  0  0  0
 14 25  1  0  0  0
 15 14  1  0  0  0
 15 33  1  0  0  0
 15 34  1  0  0  0
 15 35  1  0  0  0
 17 18  1  0  0  0
 19 20  1  0  0  0
 21 16  1  0  0  0
 22  2  1  0  0  0
 25 16  1  0  0  0
 25 26  1  0  0  0
  1 32  2  0  0  0
  2 28  2  0  0  0
  6 31  2  0  0  0
  7 23  2  0  0  0
  8  9  2  0  0  0
 10 24  2  0  0  0
 13 14  2  0  0  0
 16 17  2  0  0  0
 18 19  2  0  0  0
 20 21  2  0  0  0
 26 27  2  0  0  0
M  END
> <rmsd>
0.72120893

$$$$
HUFOMUUIHMSVCE-UHFFFAOYSA-N


 33 37  0  0  0  0  0  0  0  0999 V2000
    2.8915   25.6740   64.2226 C   0  0  0  0  0
    0.9247   26.6651   62.9990 C   0  0  0  0  0
    1.0062   27.9567   63.7534 C   0  0  0  0  0
    2.2364   29.6863   62.6754 C   0  0  0  0  0
    3.0500   28.8719   61.7115 C   0  0  0  0  0
    3.3071   27.9025   59.5554 C   0  0  0  0  0
    2.7616   27.6505   58.1961 C   0  0  0  0  0
    4.5638   27.4041   59.9059 C   0  0  0  0  0
    5.0618   27.6501   61.1873 C   0  0  0  0  0
    4.3062   28.3934   62.0953 C   0  0  0  0  0
    2.1711   31.1220   62.2034 C   0  0  0  0  0
    0.9801   31.8170   62.1910 C   0  0  0  0  0
    2.9350   33.2032   61.4553 C   0  0  0  0  0
    3.2737   31.8965   61.8123 C   0  0  0  0  0
   -0.3232   31.2159   62.5813 C   0  0  0  0  0
   -0.0388   30.0208   63.4898 C   0  0  0  0  0
    1.8826   24.4704   62.2494 C   0  0  0  0  0
    3.2334   24.2537   61.5817 C   0  0  0  0  0
    2.1077   24.8925   60.8050 C   0  0  0  0  0
    3.2825   24.4465   64.9485 C   0  0  0  0  0
    2.8632   22.1876   65.5296 C   0  0  0  0  0
    4.7526   23.2752   66.4481 C   0  0  0  0  0
    6.2753   22.1044   67.9891 C   0  0  0  0  0
    4.4185   24.4434   65.7648 C   0  0  0  0  0
    1.9332   25.6383   63.1388 N   0  0  0  0  0
    0.8901   29.0874   62.8406 N   0  0  0  0  0
    2.5818   28.6178   60.4573 N   0  0  0  0  0
    2.5256   23.3188   64.8570 N   0  0  0  0  0
    3.9698   22.1693   66.3161 N   0  0  0  0  0
    1.2649   33.3732   61.6489 S   0  0  0  0  0
   -0.0719   26.4707   62.2502 O   0  0  0  0  0
    3.4128   26.7700   64.5620 O   0  0  0  0  0
    5.8863   23.2589   67.2602 O   0  0  0  0  0
  1 25  1  0  0  0
  1 20  1  0  0  0
  3  2  1  0  0  0
  3 26  1  0  0  0
  4 26  1  0  0  0
  4  5  1  0  0  0
  4 11  1  0  0  0
  6 27  1  0  0  0
  7  6  1  0  0  0
  8  9  1  0  0  0
 10  5  1  0  0  0
 12 30  1  0  0  0
 13 30  1  0  0  0
 14 11  1  0  0  0
 15 12  1  0  0  0
 15 16  1  0  0  0
 16 26  1  0  0  0
 17 25  1  0  0  0
 17 18  1  0  0  0
 18 19  1  0  0  0
 19 17  1  0  0  0
 21 28  1  0  0  0
 22 29  1  0  0  0
 22 33  1  0  0  0
 23 33  1  0  0  0
 24 20  1  0  0  0
 25  2  1  0  0  0
  1 32  2  0  0  0
  2 31  2  0  0  0
  5 27  2  0  0  0
  6  8  2  0  0  0
  9 10  2  0  0  0
 11 12  2  0  0  0
 13 14  2  0  0  0
 20 28  2  0  0  0
 21 29  2  0  0  0
 22 24  2  0  0  0
M  END
> <rmsd>
0.460245669

$$$$
MKHDVISTXGJOIY-UHFFFAOYSA-N


 31 33  0  0  0  0  0  0  0  0999 V2000
    1.9885   28.3087   60.0832 C   0  0  0  0  0
    1.6892   28.0237   62.5651 C   0  0  0  0  0
    1.8591   27.1799   63.7898 C   0  0  0  0  0
    3.1867   27.1342   65.7840 C   0  0  0  0  0
    2.8272   25.6987   66.1813 C   0  0  0  0  0
    3.8018   24.7260   65.5359 C   0  0  0  0  0
    4.2730   22.5264   66.5382 C   0  0  0  0  0
    4.6564   20.3911   67.4806 C   0  0  0  0  0
    5.9274   20.7878   67.8926 C   0  0  0  0  0
    6.3413   22.0866   67.6023 C   0  0  0  0  0
    3.7860   24.9149   64.0278 C   0  0  0  0  0
    4.1263   26.3684   63.6867 C   0  0  0  0  0
    1.8641   26.0286   61.0752 C   0  0  0  0  0
    0.7601   25.2395   61.4540 C   0  0  0  0  0
   -1.5336   25.1305   62.3814 C   0  0  0  0  0
   -2.5789   26.0944   62.9003 C   0  0  0  0  0
    0.8209   23.8454   61.2931 C   0  0  0  0  0
    1.9593   23.2432   60.7534 C   0  0  0  0  0
    3.0466   24.0277   60.3663 C   0  0  0  0  0
    2.9986   25.4141   60.5250 C   0  0  0  0  0
    1.7477   27.7815   58.7048 C   0  0  0  0  0
    0.3080   27.6567   58.4614 C   0  0  0  0  0
   -0.8764   27.5508   58.2632 C   0  0  0  0  0
    1.8415   27.4591   61.2429 N   0  0  0  0  0
    3.2105   27.3261   64.3269 N   0  0  0  0  0
    3.8552   21.2626   66.8138 N   0  0  0  0  0
    5.5124   22.9300   66.9337 N   0  0  0  0  0
    3.4233   23.3944   65.8514 O   0  0  0  0  0
    1.4214   29.2460   62.7139 O   0  0  0  0  0
   -0.3829   25.8570   61.9736 O   0  0  0  0  0
    2.3034   29.5221   60.2126 O   0  0  0  0  0
  1 24  1  0  0  0
  3  2  1  0  0  0
  3 25  1  0  0  0
  4 25  1  0  0  0
  4  5  1  0  0  0
  5  6  1  0  0  0
  6 28  1  0  0  0
  6 11  1  0  0  0
  7 28  1  0  0  0
  7 27  1  0  0  0
  8 26  1  0  0  0
  9 10  1  0  0  0
 11 12  1  0  0  0
 12 25  1  0  0  0
 14 30  1  0  0  0
 14 17  1  0  0  0
 15 30  1  0  0  0
 15 16  1  0  0  0
 18 19  1  0  0  0
 20 13  1  0  0  0
 21  1  1  0  0  0
 21 22  1  0  0  0
 24  2  1  0  0  0
 24 13  1  0  0  0
  1 31  2  0  0  0
  2 29  2  0  0  0
  7 26  2  0  0  0
  8  9  2  0  0  0
 10 27  2  0  0  0
 13 14  2  0  0  0
 17 18  2  0  0  0
 19 20  2  0  0  0
 22 23  3  0  0  0
M  END
> <rmsd>
0.696472287

$$$$
WPCBJRSNHHLFOI-UHFFFAOYSA-N


 33 36  0  0  0  0  0  0  0  0999 V2000
    2.0570   27.9830   60.9868 C   0  0  0  0  0
    2.1042   28.8113   63.3572 C   0  0  0  0  0
    2.7236   28.6895   64.7115 C   0  0  0  0  0
    4.3749   27.1828   64.6152 C   0  0  0  0  0
    4.9941   26.0976   65.4822 C   0  0  0  0  0
    4.6133   23.7282   66.0490 C   0  0  0  0  0
    3.7968   22.5186   65.8978 C   0  0  0  0  0
    3.3822   20.2506   66.4329 C   0  0  0  0  0
    2.2561   20.2552   65.6124 C   0  0  0  0  0
    1.9266   21.4297   64.9396 C   0  0  0  0  0
    4.5181   26.8127   63.1379 C   0  0  0  0  0
    4.2062   28.0077   62.2431 C   0  0  0  0  0
    0.7473   27.3132   61.0089 C   0  0  0  0  0
   -1.8726   25.5180   62.4705 C   0  0  0  0  0
   -3.0522   25.0071   61.9092 C   0  0  0  0  0
   -3.9643   24.3042   62.7021 C   0  0  0  0  0
   -3.7030   24.1074   64.0609 C   0  0  0  0  0
   -4.6726   23.3601   64.9032 C   0  0  0  0  0
   -2.5299   24.6134   64.6275 C   0  0  0  0  0
   -1.6177   25.3164   63.8351 C   0  0  0  0  0
    2.7682   28.2643   62.2025 N   0  0  0  0  0
    4.1301   21.3776   66.5613 N   0  0  0  0  0
    2.6992   22.5366   65.0935 N   0  0  0  0  0
   -0.0307   27.1342   59.9219 N   0  0  0  0  0
   -1.0800   26.4583   60.3620 N   0  0  0  0  0
   -0.9348   26.2354   61.6580 N   0  0  0  0  0
    0.1990   26.7503   62.1029 N   0  0  0  0  0
    0.9979   29.4029   63.2400 O   0  0  0  0  0
    3.0248   27.3456   64.9601 O   0  0  0  0  0
    4.2583   24.8870   65.3576 O   0  0  0  0  0
    5.6265   23.7156   66.8006 O   0  0  0  0  0
    2.5818   28.2703   59.8773 O   0  0  0  0  0
    1.2766   18.8163   65.4307 Cl  0  0  0  0  0
  1 21  1  0  0  0
  1 13  1  0  0  0
  3  2  1  0  0  0
  3 29  1  0  0  0
  4 29  1  0  0  0
  4  5  1  0  0  0
  4 11  1  0  0  0
  5 30  1  0  0  0
  6 30  1  0  0  0
  6  7  1  0  0  0
  7 23  1  0  0  0
  8 22  1  0  0  0
  9 33  1  0  0  0
  9 10  1  0  0  0
 11 12  1  0  0  0
 12 21  1  0  0  0
 13 24  1  0  0  0
 15 16  1  0  0  0
 17 19  1  0  0  0
 18 17  1  0  0  0
 20 14  1  0  0  0
 21  2  1  0  0  0
 26 25  1  0  0  0
 26 14  1  0  0  0
 26 27  1  0  0  0
  1 32  2  0  0  0
  2 28  2  0  0  0
  6 31  2  0  0  0
  7 22  2  0  0  0
  8  9  2  0  0  0
 10 23  2  0  0  0
 13 27  2  0  0  0
 14 15  2  0  0  0
 16 17  2  0  0  0
 19 20  2  0  0  0
 24 25  2  0  0  0
M  END
> <rmsd>
0.712046146

$$$$
UBFYJGBUCDKCQL-UHFFFAOYSA-N


 34 37  0  0  0  0  0  0  0  0999 V2000
    2.6527   25.5483   64.3137 C   0  0  0  0  0
    0.6835   26.5536   63.0756 C   0  0  0  0  0
    0.7813   27.8557   63.8079 C   0  0  0  0  0
    0.4229   30.1392   63.4334 C   0  0  0  0  0
    1.4915   31.1976   63.6168 C   0  0  0  0  0
    2.7086   30.6699   62.9120 C   0  0  0  0  0
    2.4789   29.1784   62.8488 C   0  0  0  0  0
    3.0902   28.5999   61.6144 C   0  0  0  0  0
    3.5499   28.1632   59.6339 C   0  0  0  0  0
    3.5742   28.1421   58.1475 C   0  0  0  0  0
    1.4187   24.2253   62.5753 C   0  0  0  0  0
    2.2984   24.2579   61.3709 C   0  0  0  0  0
    3.6277   23.8303   61.4603 C   0  0  0  0  0
    4.4518   23.8658   60.3316 C   0  0  0  0  0
    3.9487   24.3323   59.1132 C   0  0  0  0  0
    2.6232   24.7694   59.0249 C   0  0  0  0  0
    1.7996   24.7354   60.1539 C   0  0  0  0  0
    3.1371   24.3636   65.0567 C   0  0  0  0  0
    2.8280   22.1289   65.7816 C   0  0  0  0  0
    4.7854   23.2851   66.4367 C   0  0  0  0  0
    6.5012   22.2009   67.8297 C   0  0  0  0  0
    4.3558   24.4147   65.7416 C   0  0  0  0  0
    1.5723   25.4513   63.3580 N   0  0  0  0  0
    1.0383   28.9404   62.8704 N   0  0  0  0  0
    4.0578   27.6646   61.6407 N   0  0  0  0  0
    2.7320   28.9471   60.3596 N   0  0  0  0  0
    2.3978   23.2217   65.0991 N   0  0  0  0  0
    4.0136   22.1636   66.4433 N   0  0  0  0  0
    1.7591   31.3678   64.9620 F   0  0  0  0  0
    1.0887   32.3944   63.0561 F   0  0  0  0  0
    4.3161   27.4215   60.3927 O   0  0  0  0  0
   -0.2246   26.4222   62.2094 O   0  0  0  0  0
    3.2176   26.6581   64.5123 O   0  0  0  0  0
    6.0035   23.3224   67.1157 O   0  0  0  0  0
  1 23  1  0  0  0
  1 18  1  0  0  0
  3  2  1  0  0  0
  3 24  1  0  0  0
  4 24  1  0  0  0
  4  5  1  0  0  0
  5 29  1  0  0  0
  5 30  1  0  0  0
  5  6  1  0  0  0
  6  7  1  0  0  0
  7  8  1  0  0  0
  7 24  1  0  0  0
  8 26  1  0  0  0
  9 31  1  0  0  0
 10  9  1  0  0  0
 11 23  1  0  0  0
 11 12  1  0  0  0
 13 14  1  0  0  0
 15 16  1  0  0  0
 17 12  1  0  0  0
 19 27  1  0  0  0
 20 28  1  0  0  0
 20 34  1  0  0  0
 21 34  1  0  0  0
 22 18  1  0  0  0
 23  2  1  0  0  0
 25 31  1  0  0  0
  1 33  2  0  0  0
  2 32  2  0  0  0
  8 25  2  0  0  0
  9 26  2  0  0  0
 12 13  2  0  0  0
 14 15  2  0  0  0
 16 17  2  0  0  0
 18 27  2  0  0  0
 19 28  2  0  0  0
 20 22  2  0  0  0
M  END
> <rmsd>
0.43761602

$$$$
WSDGYMURTHPGIC-UHFFFAOYSA-N


 34 38  0  0  0  0  0  0  0  0999 V2000
    3.0196   25.5183   64.0298 C   0  0  0  0  0
    0.9854   26.4974   62.9465 C   0  0  0  0  0
    1.0109   27.6682   63.8839 C   0  0  0  0  0
    2.3991   29.2807   62.8529 C   0  0  0  0  0
    2.8282   28.6858   61.5523 C   0  0  0  0  0
    2.9671   28.1657   59.5398 C   0  0  0  0  0
    2.7688   28.1147   58.0577 C   0  0  0  0  0
    2.4138   26.6961   57.6328 C   0  0  0  0  0
    1.3269   27.7431   57.7448 C   0  0  0  0  0
    0.5248   29.9343   64.0636 C   0  0  0  0  0
    1.9539   24.3522   62.0978 C   0  0  0  0  0
    3.0354   23.6343   61.6276 C   0  0  0  0  0
    2.4812   22.7254   60.7814 C   0  0  0  0  0
    4.5836   21.8404   60.2502 C   0  0  0  0  0
    5.1995   22.7751   61.1132 C   0  0  0  0  0
    4.4127   23.7019   61.8204 C   0  0  0  0  0
    3.3187   24.3624   64.9022 C   0  0  0  0  0
    2.7842   22.1870   65.6752 C   0  0  0  0  0
    4.6749   23.2905   66.5731 C   0  0  0  0  0
    6.0782   22.2297   68.2985 C   0  0  0  0  0
    4.4195   24.3966   65.7651 C   0  0  0  0  0
    1.9783   25.4485   63.0339 N   0  0  0  0  0
    1.0148   28.9237   63.1447 N   0  0  0  0  0
    3.9153   27.4610   60.1869 N   0  0  0  0  0
    2.2596   28.9687   60.3652 N   0  0  0  0  0
    3.2240   21.8275   60.0923 N   0  0  0  0  0
    0.8263   23.8580   61.5282 N   0  0  0  0  0
    2.5225   23.2589   64.8800 N   0  0  0  0  0
    3.8542   22.2048   66.5104 N   0  0  0  0  0
    3.7937   27.8098   61.4320 O   0  0  0  0  0
    0.0647   26.4380   62.0863 O   0  0  0  0  0
    1.1821   22.8767   60.7422 O   0  0  0  0  0
    3.6847   26.5822   64.1622 O   0  0  0  0  0
    5.7724   23.3151   67.4358 O   0  0  0  0  0
  1 22  1  0  0  0
  1 17  1  0  0  0
  3  2  1  0  0  0
  3 23  1  0  0  0
  4 23  1  0  0  0
  4  5  1  0  0  0
  5 30  1  0  0  0
  6 25  1  0  0  0
  7  6  1  0  0  0
  7  8  1  0  0  0
  8  9  1  0  0  0
  9  7  1  0  0  0
 10 23  1  0  0  0
 11 12  1  0  0  0
 12 13  1  0  0  0
 13 32  1  0  0  0
 14 26  1  0  0  0
 15 16  1  0  0  0
 18 28  1  0  0  0
 19 29  1  0  0  0
 19 34  1  0  0  0
 20 34  1  0  0  0
 21 17  1  0  0  0
 22  2  1  0  0  0
 22 11  1  0  0  0
 30 24  1  0  0  0
 32 27  1  0  0  0
  1 33  2  0  0  0
  2 31  2  0  0  0
  5 25  2  0  0  0
  6 24  2  0  0  0
 11 27  2  0  0  0
 13 26  2  0  0  0
 14 15  2  0  0  0
 16 12  2  0  0  0
 17 28  2  0  0  0
 18 29  2  0  0  0
 19 21  2  0  0  0
M  END
> <rmsd>
0.594581306

$$$$
GCPKKYRMWKPDSR-UHFFFAOYSA-N


 30 32  0  0  0  0  0  0  0  0999 V2000
    3.1777   25.7530   64.5346 C   0  0  0  0  0
    0.7893   26.0532   63.8475 C   0  0  0  0  0
   -0.3745   25.6993   62.9724 C   0  0  0  0  0
   -1.0185   25.3110   60.7675 C   0  0  0  0  0
   -0.5217   27.4856   61.4405 C   0  0  0  0  0
    0.6818   28.3646   61.4699 C   0  0  0  0  0
    2.0959   29.7890   62.0162 C   0  0  0  0  0
    2.8225   30.8636   62.7544 C   0  0  0  0  0
    4.1207   30.3258   63.3232 C   0  0  0  0  0
    3.1079   32.0381   61.8387 C   0  0  0  0  0
    2.0866   24.0760   63.0058 C   0  0  0  0  0
    3.1889   24.1429   61.9557 C   0  0  0  0  0
    2.8395   25.1403   60.8691 C   0  0  0  0  0
    4.1033   24.7927   65.1763 C   0  0  0  0  0
    3.6513   23.6347   65.8396 C   0  0  0  0  0
    4.5941   22.7623   66.4228 C   0  0  0  0  0
    2.8393   21.3611   67.1692 C   0  0  0  0  0
    1.9017   22.2299   66.6068 C   0  0  0  0  0
    6.3763   24.1657   65.7356 C   0  0  0  0  0
    5.4783   25.0566   65.1433 C   0  0  0  0  0
    2.0221   25.3087   63.7951 N   0  0  0  0  0
   -0.1189   26.0949   61.5938 N   0  0  0  0  0
    2.5676   29.1809   60.9087 N   0  0  0  0  0
    0.9010   29.3031   62.4094 N   0  0  0  0  0
    4.1644   21.6463   67.0676 N   0  0  0  0  0
    2.3261   23.3470   65.9590 N   0  0  0  0  0
    5.9213   23.0445   66.3545 N   0  0  0  0  0
    1.6598   28.3060   60.6011 O   0  0  0  0  0
    0.6658   27.0245   64.6410 O   0  0  0  0  0
    3.4347   26.9862   64.6027 O   0  0  0  0  0
  1 21  1  0  0  0
  1 14  1  0  0  0
  3  2  1  0  0  0
  3 22  1  0  0  0
  4 22  1  0  0  0
  5 22  1  0  0  0
  5  6  1  0  0  0
  6 28  1  0  0  0
  7 24  1  0  0  0
  8  7  1  0  0  0
  8  9  1  0  0  0
  8 10  1  0  0  0
 11 21  1  0  0  0
 11 12  1  0  0  0
 12 13  1  0  0  0
 14 15  1  0  0  0
 15 16  1  0  0  0
 16 27  1  0  0  0
 17 25  1  0  0  0
 18 26  1  0  0  0
 19 20  1  0  0  0
 21  2  1  0  0  0
 28 23  1  0  0  0
  1 30  2  0  0  0
  2 29  2  0  0  0
  6 24  2  0  0  0
  7 23  2  0  0  0
 15 26  2  0  0  0
 16 25  2  0  0  0
 17 18  2  0  0  0
 19 27  2  0  0  0
 20 14  2  0  0  0
M  END
> <rmsd>
0.581304789

$$$$
IZRVAAVDUTXKCM-UHFFFAOYSA-N


 35 37  0  0  0  0  0  0  0  0999 V2000
    2.7133   25.4841   64.3838 C   0  0  0  0  0
    0.7414   26.4833   63.1562 C   0  0  0  0  0
    1.0125   27.8866   63.6583 C   0  0  0  0  0
    2.7771   28.3833   62.1296 C   0  0  0  0  0
    3.3087   29.3692   61.0838 C   0  0  0  0  0
    2.3339   28.3075   59.1723 C   0  0  0  0  0
    2.3810   28.6343   57.7145 C   0  0  0  0  0
    1.2243   28.3646   56.8393 C   0  0  0  0  0
    1.3187   28.5911   55.4597 C   0  0  0  0  0
    0.2291   28.3330   54.6240 C   0  0  0  0  0
   -0.9682   27.8449   55.1558 C   0  0  0  0  0
   -2.1109   27.5834   54.2333 C   0  0  0  0  0
   -1.0733   27.6160   56.5400 C   0  0  0  0  0
   -2.3299   27.1015   57.1551 C   0  0  0  0  0
    0.0211   27.8765   57.3708 C   0  0  0  0  0
    1.0273   29.8676   60.4382 C   0  0  0  0  0
    0.5308   28.8774   61.4986 C   0  0  0  0  0
   -0.1664   28.4528   64.4374 C   0  0  0  0  0
    1.7174   24.2590   62.4526 C   0  0  0  0  0
    0.4188   23.4720   62.4874 C   0  0  0  0  0
    2.0449   24.6984   61.0373 C   0  0  0  0  0
    3.1905   24.2776   65.0968 C   0  0  0  0  0
    2.9209   21.9973   65.6834 C   0  0  0  0  0
    4.7544   23.2000   66.5724 C   0  0  0  0  0
    6.3455   22.1395   68.1244 C   0  0  0  0  0
    4.3377   24.3441   65.8943 C   0  0  0  0  0
    1.6881   25.4064   63.3683 N   0  0  0  0  0
    1.4723   28.8259   62.6211 N   0  0  0  0  0
    2.3773   29.5360   59.9608 N   0  0  0  0  0
    2.5025   23.1053   65.0177 N   0  0  0  0  0
    4.0392   22.0475   66.4526 N   0  0  0  0  0
    3.4364   29.1285   57.2344 O   0  0  0  0  0
   -0.3208   26.2646   62.5100 O   0  0  0  0  0
    3.2364   26.5964   64.6665 O   0  0  0  0  0
    5.8972   23.2564   67.3710 O   0  0  0  0  0
  1 27  1  0  0  0
  1 22  1  0  0  0
  3  2  1  0  0  0
  3 28  1  0  0  0
  3 18  1  0  0  0
  4 28  1  0  0  0
  4  5  1  0  0  0
  5 29  1  0  0  0
  6 29  1  0  0  0
  6  7  1  0  0  0
  7  8  1  0  0  0
  9 10  1  0  0  0
 11 13  1  0  0  0
 12 11  1  0  0  0
 14 13  1  0  0  0
 15  8  1  0  0  0
 16 29  1  0  0  0
 16 17  1  0  0  0
 17 28  1  0  0  0
 19 27  1  0  0  0
 19 20  1  0  0  0
 19 21  1  0  0  0
 23 30  1  0  0  0
 24 31  1  0  0  0
 24 35  1  0  0  0
 25 35  1  0  0  0
 26 22  1  0  0  0
 27  2  1  0  0  0
  1 34  2  0  0  0
  2 33  2  0  0  0
  7 32  2  0  0  0
  8  9  2  0  0  0
 10 11  2  0  0  0
 13 15  2  0  0  0
 22 30  2  0  0  0
 23 31  2  0  0  0
 24 26  2  0  0  0
M  END
> <rmsd>
0.583882511

$$$$
FHHDPDLGDZIWQK-UHFFFAOYSA-N


 36 41  0  0  0  0  0  0  0  0999 V2000
    0.8430   26.6603   62.5341 C   0  0  0  0  0
    2.4723   25.6678   64.1304 C   0  0  0  0  0
    3.4109   24.5357   63.8995 C   0  0  0  0  0
    4.0019   22.3632   64.5910 C   0  0  0  0  0
    4.6806   22.4330   65.9196 C   0  0  0  0  0
    6.9279   23.1670   65.0926 C   0  0  0  0  0
    5.0654   22.3444   67.9914 C   0  0  0  0  0
    1.7980   22.7260   63.7816 C   0  0  0  0  0
    2.0283   22.4964   62.3044 C   0  0  0  0  0
    2.2506   21.1901   61.8541 C   0  0  0  0  0
    2.4478   20.9363   60.4935 C   0  0  0  0  0
    2.4177   21.9888   59.5742 C   0  0  0  0  0
    2.1879   23.2948   60.0150 C   0  0  0  0  0
    1.9909   23.5475   61.3750 C   0  0  0  0  0
    0.4687   23.3352   64.1234 C   0  0  0  0  0
    0.1807   24.7169   63.9793 C   0  0  0  0  0
   -1.1036   25.1785   64.3121 C   0  0  0  0  0
   -2.0861   24.2997   64.7698 C   0  0  0  0  0
   -1.7974   22.9427   64.9048 C   0  0  0  0  0
   -0.5272   22.4652   64.5819 C   0  0  0  0  0
   -2.8424   22.0049   65.3909 C   0  0  0  0  0
    1.8448   27.7106   62.1403 C   0  0  0  0  0
    2.6546   29.9177   62.4248 C   0  0  0  0  0
    2.9990   29.9566   60.9162 C   0  0  0  0  0
    0.6849   29.6751   60.4023 C   0  0  0  0  0
    0.3572   29.6018   61.9101 C   0  0  0  0  0
    2.0840   27.7622   60.6156 C   0  0  0  0  0
    1.1710   25.6645   63.5272 N   0  0  0  0  0
    2.9093   23.3245   64.5388 N   0  0  0  0  0
    5.9597   22.7846   66.1062 N   0  0  0  0  0
    6.2146   22.7347   67.3988 N   0  0  0  0  0
    4.0770   22.1447   67.0875 N   0  0  0  0  0
    1.4955   29.0448   62.6648 N   0  0  0  0  0
    2.0353   29.1549   60.1415 N   0  0  0  0  0
    2.8404   26.6453   64.8334 O   0  0  0  0  0
   -0.2833   26.6426   61.9653 O   0  0  0  0  0
  1 28  1  0  0  0
  3  2  1  0  0  0
  3 29  1  0  0  0
  4 29  1  0  0  0
  4  5  1  0  0  0
  5 30  1  0  0  0
  6 30  1  0  0  0
  7 32  1  0  0  0
  8 29  1  0  0  0
  8  9  1  0  0  0
  8 15  1  0  0  0
 10 11  1  0  0  0
 12 13  1  0  0  0
 14  9  1  0  0  0
 15 16  1  0  0  0
 16 28  1  0  0  0
 17 18  1  0  0  0
 19 20  1  0  0  0
 21 19  1  0  0  0
 22  1  1  0  0  0
 22 33  1  0  0  0
 23 33  1  0  0  0
 23 24  1  0  0  0
 24 34  1  0  0  0
 25 34  1  0  0  0
 25 26  1  0  0  0
 26 33  1  0  0  0
 27 34  1  0  0  0
 27 22  1  0  0  0
 28  2  1  0  0  0
 30 31  1  0  0  0
  1 36  2  0  0  0
  2 35  2  0  0  0
  5 32  2  0  0  0
  7 31  2  0  0  0
  9 10  2  0  0  0
 11 12  2  0  0  0
 13 14  2  0  0  0
 16 17  2  0  0  0
 18 19  2  0  0  0
 20 15  2  0  0  0
M  END
> <rmsd>
0.740173161

$$$$
PKNIMVFHVGDEPE-UHFFFAOYSA-N


 32 35  0  0  0  0  0  0  0  0999 V2000
    2.7146   25.4145   64.0753 C   0  0  0  0  0
    0.6467   26.4318   63.0508 C   0  0  0  0  0
    0.8460   27.7279   63.7778 C   0  0  0  0  0
   -0.3034   29.7988   63.6604 C   0  0  0  0  0
    0.4767   30.5018   64.7785 C   0  0  0  0  0
    2.3285   31.8192   65.3310 C   0  0  0  0  0
    2.9950   33.0859   64.9096 C   0  0  0  0  0
    4.3907   33.1747   64.9294 C   0  0  0  0  0
    5.0228   34.3601   64.5411 C   0  0  0  0  0
    4.2595   35.4593   64.1354 C   0  0  0  0  0
    2.8639   35.3739   64.1191 C   0  0  0  0  0
    2.2315   34.1888   64.5071 C   0  0  0  0  0
    2.5041   30.2669   63.5783 C   0  0  0  0  0
    1.7834   29.5426   62.4318 C   0  0  0  0  0
    2.7375   28.5713   61.7528 C   0  0  0  0  0
    2.2162   29.9989   60.1313 C   0  0  0  0  0
    1.4575   30.5193   61.3279 C   0  0  0  0  0
    1.2189   24.0443   62.6152 C   0  0  0  0  0
    3.1504   24.3144   64.9624 C   0  0  0  0  0
    2.7014   22.2551   66.0445 C   0  0  0  0  0
    4.7841   23.3138   66.4162 C   0  0  0  0  0
    6.4786   22.3130   67.8959 C   0  0  0  0  0
    4.4090   24.3574   65.5712 C   0  0  0  0  0
    1.5178   25.3070   63.2798 N   0  0  0  0  0
    0.5490   28.8677   62.9033 N   0  0  0  0  0
    1.6064   31.2315   64.2135 N   0  0  0  0  0
    2.3226   23.2651   65.2187 N   0  0  0  0  0
    3.9236   22.2823   66.6361 N   0  0  0  0  0
    3.2476   29.1727   60.5938 O   0  0  0  0  0
   -0.3465   26.3111   62.2823 O   0  0  0  0  0
    3.4108   26.4648   64.0148 O   0  0  0  0  0
    6.0390   23.3445   67.0252 O   0  0  0  0  0
  1 24  1  0  0  0
  1 19  1  0  0  0
  3  2  1  0  0  0
  3 25  1  0  0  0
  4 25  1  0  0  0
  4  5  1  0  0  0
  5 26  1  0  0  0
  6 26  1  0  0  0
  6  7  1  0  0  0
  8  9  1  0  0  0
 10 11  1  0  0  0
 12  7  1  0  0  0
 13 26  1  0  0  0
 13 14  1  0  0  0
 14 15  1  0  0  0
 14 25  1  0  0  0
 15 29  1  0  0  0
 16 29  1  0  0  0
 16 17  1  0  0  0
 17 14  1  0  0  0
 18 24  1  0  0  0
 20 27  1  0  0  0
 21 28  1  0  0  0
 21 32  1  0  0  0
 22 32  1  0  0  0
 23 19  1  0  0  0
 24  2  1  0  0  0
  1 31  2  0  0  0
  2 30  2  0  0  0
  7  8  2  0  0  0
  9 10  2  0  0  0
 11 12  2  0  0  0
 19 27  2  0  0  0
 20 28  2  0  0  0
 21 23  2  0  0  0
M  END
> <rmsd>
0.60709089

$$$$
ZJWKRQUBNBPFFM-UHFFFAOYSA-N


 31 34  0  0  0  0  0  0  0  0999 V2000
    3.0663   28.7070   60.8790 C   0  0  0  0  0
    5.2809   27.7169   61.7390 C   0  0  0  0  0
    4.9745   27.9063   63.2162 C   0  0  0  0  0
    4.5012   25.9460   64.6256 C   0  0  0  0  0
    5.0143   24.7907   65.3959 C   0  0  0  0  0
    4.1787   23.7882   65.9327 C   0  0  0  0  0
    4.7582   22.7180   66.6501 C   0  0  0  0  0
    2.6153   21.7719   66.9810 C   0  0  0  0  0
    2.0383   22.8231   66.2656 C   0  0  0  0  0
    6.9265   23.6072   66.3073 C   0  0  0  0  0
    6.3965   24.6802   65.5874 C   0  0  0  0  0
    6.7601   28.0411   61.4708 C   0  0  0  0  0
    6.8200   29.2442   60.5224 C   0  0  0  0  0
    5.3940   29.5383   60.2696 C   0  0  0  0  0
    2.2364   27.5372   61.2608 C   0  0  0  0  0
    0.9302   27.6857   61.7744 C   0  0  0  0  0
   -0.9326   29.1500   62.4509 C   0  0  0  0  0
   -1.2411   30.6331   62.5201 C   0  0  0  0  0
    0.6922   25.3198   61.9511 C   0  0  0  0  0
    1.9732   25.1281   61.4397 C   0  0  0  0  0
    2.7397   26.2407   61.0937 C   0  0  0  0  0
    4.5060   28.6575   60.9447 N   0  0  0  0  0
    3.9623   21.7434   67.1602 N   0  0  0  0  0
    2.8293   23.8070   65.7600 N   0  0  0  0  0
    6.1047   22.6563   66.8209 N   0  0  0  0  0
    0.2042   26.5782   62.1046 N   0  0  0  0  0
    5.4046   26.7661   63.9435 O   0  0  0  0  0
    3.2660   26.1963   64.5799 O   0  0  0  0  0
    5.0039   30.4668   59.5142 O   0  0  0  0  0
    2.5010   29.7665   60.4904 O   0  0  0  0  0
    0.3848   28.9601   61.9612 O   0  0  0  0  0
  1 22  1  0  0  0
  1 15  1  0  0  0
  2 22  1  0  0  0
  2  3  1  0  0  0
  2 12  1  0  0  0
  3 27  1  0  0  0
  4 27  1  0  0  0
  4  5  1  0  0  0
  5  6  1  0  0  0
  6  7  1  0  0  0
  7 25  1  0  0  0
  8 23  1  0  0  0
  9 24  1  0  0  0
 10 11  1  0  0  0
 12 13  1  0  0  0
 13 14  1  0  0  0
 14 22  1  0  0  0
 16 31  1  0  0  0
 16 26  1  0  0  0
 17 31  1  0  0  0
 17 18  1  0  0  0
 19 20  1  0  0  0
 21 15  1  0  0  0
  1 30  2  0  0  0
  4 28  2  0  0  0
  6 24  2  0  0  0
  7 23  2  0  0  0
  8  9  2  0  0  0
 10 25  2  0  0  0
 11  5  2  0  0  0
 14 29  2  0  0  0
 15 16  2  0  0  0
 19 26  2  0  0  0
 20 21  2  0  0  0
M  END
> <rmsd>
0.678666592

$$$$
USDBYEYLROASDE-UHFFFAOYSA-N


 29 31  0  0  0  0  0  0  0  0999 V2000
    2.9346   25.5119   64.1544 C   0  0  0  0  0
    0.9950   26.5643   62.9416 C   0  0  0  0  0
    1.0476   27.7877   63.8066 C   0  0  0  0  0
    0.3124   29.9963   63.8321 C   0  0  0  0  0
    0.0932   31.2958   63.0527 C   0  0  0  0  0
    1.2517   31.6028   62.1009 C   0  0  0  0  0
    2.5422   30.9461   62.5797 C   0  0  0  0  0
    2.3699   29.4183   62.6911 C   0  0  0  0  0
    2.8386   28.7695   61.4207 C   0  0  0  0  0
    4.0482   27.9009   61.4353 C   0  0  0  0  0
    1.8251   24.2553   62.3128 C   0  0  0  0  0
    0.4568   23.5738   62.3979 C   0  0  0  0  0
    0.4372   22.3246   61.5225 C   0  0  0  0  0
    0.7726   22.6865   60.0781 C   0  0  0  0  0
    2.1521   23.3357   60.0052 C   0  0  0  0  0
    2.1898   24.5949   60.8660 C   0  0  0  0  0
    3.2868   24.3373   64.9810 C   0  0  0  0  0
    2.7879   22.1554   65.7579 C   0  0  0  0  0
    4.7311   23.2402   66.5601 C   0  0  0  0  0
    6.2318   22.1418   68.1739 C   0  0  0  0  0
    4.4342   24.3574   65.7806 C   0  0  0  0  0
    1.8859   25.4460   63.1668 N   0  0  0  0  0
    0.9839   28.9995   62.9979 N   0  0  0  0  0
    2.4864   23.2369   64.9933 N   0  0  0  0  0
    3.9028   22.1602   66.5331 N   0  0  0  0  0
    2.2354   28.9467   60.3738 O   0  0  0  0  0
    0.1182   26.5039   62.0368 O   0  0  0  0  0
    3.5745   26.5872   64.3153 O   0  0  0  0  0
    5.8755   23.2478   67.3582 O   0  0  0  0  0
  1 22  1  0  0  0
  1 17  1  0  0  0
  3  2  1  0  0  0
  3 23  1  0  0  0
  4 23  1  0  0  0
  4  5  1  0  0  0
  5  6  1  0  0  0
  6  7  1  0  0  0
  7  8  1  0  0  0
  8  9  1  0  0  0
  8 23  1  0  0  0
 10  9  1  0  0  0
 11 22  1  0  0  0
 11 12  1  0  0  0
 12 13  1  0  0  0
 13 14  1  0  0  0
 14 15  1  0  0  0
 15 16  1  0  0  0
 16 11  1  0  0  0
 18 24  1  0  0  0
 19 25  1  0  0  0
 19 29  1  0  0  0
 20 29  1  0  0  0
 21 17  1  0  0  0
 22  2  1  0  0  0
  1 28  2  0  0  0
  2 27  2  0  0  0
  9 26  2  0  0  0
 17 24  2  0  0  0
 18 25  2  0  0  0
 19 21  2  0  0  0
M  END
> <rmsd>
0.514328539

$$$$
FVVHBVRNIKWJHV-UHFFFAOYSA-N


 35 39  0  0  0  0  0  0  0  0999 V2000
    2.8784   24.9423   64.3402 C   0  0  0  0  0
    1.6498   25.3388   62.2104 C   0  0  0  0  0
    0.3551   25.7031   61.5590 C   0  0  0  0  0
   -0.1887   27.9246   61.0359 C   0  0  0  0  0
    0.8962   28.9376   61.2091 C   0  0  0  0  0
    2.1267   30.4340   61.9764 C   0  0  0  0  0
    2.7368   31.4756   62.8566 C   0  0  0  0  0
    1.7581   32.6187   63.0545 C   0  0  0  0  0
    2.9029   32.7697   62.0783 C   0  0  0  0  0
   -1.5500   28.5983   61.0481 C   0  0  0  0  0
   -2.3072   27.9531   62.1782 C   0  0  0  0  0
   -1.5174   26.7161   62.5259 C   0  0  0  0  0
    0.5181   24.1507   64.1075 C   0  0  0  0  0
   -0.2728   23.2838   63.3410 C   0  0  0  0  0
   -1.3964   22.6760   63.9028 C   0  0  0  0  0
   -1.7199   22.9402   65.2347 C   0  0  0  0  0
    0.1548   24.3826   65.4421 C   0  0  0  0  0
    3.3826   23.8452   65.1937 C   0  0  0  0  0
    3.3454   21.5604   65.8208 C   0  0  0  0  0
    4.8529   23.0245   66.9097 C   0  0  0  0  0
    6.3633   22.2230   68.6838 C   0  0  0  0  0
    4.3913   24.0856   66.1316 C   0  0  0  0  0
    1.6864   24.7828   63.5424 N   0  0  0  0  0
   -0.1382   26.9498   62.1210 N   0  0  0  0  0
    1.8678   29.1438   60.2990 N   0  0  0  0  0
    1.0226   29.7299   62.2947 N   0  0  0  0  0
   -0.9442   23.7804   65.9712 N   0  0  0  0  0
    2.8868   22.5848   65.0555 N   0  0  0  0  0
    4.3204   21.7822   66.7406 N   0  0  0  0  0
    2.6098   30.0777   60.8113 O   0  0  0  0  0
    2.7214   25.5678   61.5879 O   0  0  0  0  0
    3.5111   26.0353   64.2996 O   0  0  0  0  0
    5.8585   23.2554   67.8501 O   0  0  0  0  0
   -2.3533   28.8078   63.2651 F   0  0  0  0  0
   -3.5863   27.6161   61.7798 F   0  0  0  0  0
  1 23  1  0  0  0
  1 18  1  0  0  0
  3  2  1  0  0  0
  3 24  1  0  0  0
  4 24  1  0  0  0
  4  5  1  0  0  0
  4 10  1  0  0  0
  5 26  1  0  0  0
  6 30  1  0  0  0
  7  6  1  0  0  0
  7  8  1  0  0  0
  8  9  1  0  0  0
  9  7  1  0  0  0
 10 11  1  0  0  0
 11 34  1  0  0  0
 11 35  1  0  0  0
 11 12  1  0  0  0
 12 24  1  0  0  0
 14 15  1  0  0  0
 16 27  1  0  0  0
 17 13  1  0  0  0
 19 28  1  0  0  0
 20 29  1  0  0  0
 20 33  1  0  0  0
 21 33  1  0  0  0
 22 18  1  0  0  0
 23  2  1  0  0  0
 23 13  1  0  0  0
 25 30  1  0  0  0
  1 32  2  0  0  0
  2 31  2  0  0  0
  5 25  2  0  0  0
  6 26  2  0  0  0
 13 14  2  0  0  0
 15 16  2  0  0  0
 17 27  2  0  0  0
 18 28  2  0  0  0
 19 29  2  0  0  0
 20 22  2  0  0  0
M  END
> <rmsd>
0.723092616

$$$$
KDYBIOZOXRBYSA-UHFFFAOYSA-N


 36 40  0  0  0  0  0  0  0  0999 V2000
    2.9933   25.4717   64.0217 C   0  0  0  0  0
    0.9445   26.4446   62.9560 C   0  0  0  0  0
    0.9758   27.6224   63.8871 C   0  0  0  0  0
    2.4925   29.1100   62.8477 C   0  0  0  0  0
    2.8354   28.6506   61.4682 C   0  0  0  0  0
    3.6518   27.5855   59.8766 C   0  0  0  0  0
    4.4534   26.6162   59.0676 C   0  0  0  0  0
    3.5573   25.8307   58.1279 C   0  0  0  0  0
    4.2045   26.5133   56.9376 C   0  0  0  0  0
    5.0928   27.3070   57.8774 C   0  0  0  0  0
    2.7480   30.5903   63.0007 C   0  0  0  0  0
    1.6793   31.0607   63.9513 C   0  0  0  0  0
    0.6644   29.9381   64.0294 C   0  0  0  0  0
    1.9074   24.2700   62.1329 C   0  0  0  0  0
    0.6986   23.6880   61.7266 C   0  0  0  0  0
    0.7013   22.5906   60.8613 C   0  0  0  0  0
    1.9203   22.0797   60.4094 C   0  0  0  0  0
    3.1061   23.7191   61.6527 C   0  0  0  0  0
    3.3067   24.3307   64.9075 C   0  0  0  0  0
    2.7570   22.1865   65.7565 C   0  0  0  0  0
    4.6854   23.2844   66.5789 C   0  0  0  0  0
    6.1083   22.2470   68.3045 C   0  0  0  0  0
    4.4286   24.3719   65.7416 C   0  0  0  0  0
    1.9289   25.3854   63.0503 N   0  0  0  0  0
    1.0816   28.8670   63.1331 N   0  0  0  0  0
    2.2450   29.1163   60.3496 N   0  0  0  0  0
    3.7336   27.6776   61.2174 N   0  0  0  0  0
    3.0874   22.6487   60.8103 N   0  0  0  0  0
    2.4946   23.2381   64.9349 N   0  0  0  0  0
    3.8440   22.2138   66.5711 N   0  0  0  0  0
    2.7804   28.4337   59.3842 O   0  0  0  0  0
    0.0392   26.4032   62.0768 O   0  0  0  0  0
    3.6602   26.5383   64.1254 O   0  0  0  0  0
    5.8016   23.3143   67.4169 O   0  0  0  0  0
    1.0847   32.2114   63.4710 F   0  0  0  0  0
    2.2221   31.2941   65.1993 F   0  0  0  0  0
  1 24  1  0  0  0
  1 19  1  0  0  0
  3  2  1  0  0  0
  3 25  1  0  0  0
  4 25  1  0  0  0
  4  5  1  0  0  0
  4 11  1  0  0  0
  5 27  1  0  0  0
  6 31  1  0  0  0
  7  6  1  0  0  0
  7  8  1  0  0  0
  8  9  1  0  0  0
  9 10  1  0  0  0
 10  7  1  0  0  0
 11 12  1  0  0  0
 12 35  1  0  0  0
 12 36  1  0  0  0
 12 13  1  0  0  0
 13 25  1  0  0  0
 15 16  1  0  0  0
 17 28  1  0  0  0
 18 14  1  0  0  0
 20 29  1  0  0  0
 21 30  1  0  0  0
 21 34  1  0  0  0
 22 34  1  0  0  0
 23 19  1  0  0  0
 24  2  1  0  0  0
 24 14  1  0  0  0
 26 31  1  0  0  0
  1 33  2  0  0  0
  2 32  2  0  0  0
  5 26  2  0  0  0
  6 27  2  0  0  0
 14 15  2  0  0  0
 16 17  2  0  0  0
 18 28  2  0  0  0
 19 29  2  0  0  0
 20 30  2  0  0  0
 21 23  2  0  0  0
M  END
> <rmsd>
0.603655159

$$$$
WKGZKPFJVQCZQN-UHFFFAOYSA-N


 35 38  0  0  0  0  0  0  0  0999 V2000
    2.1020   28.6236   61.8105 C   0  0  0  0  0
    1.4564   27.1435   63.7213 C   0  0  0  0  0
    1.3878   25.7056   63.2160 C   0  0  0  0  0
    0.7706   25.6218   61.8081 C   0  0  0  0  0
   -1.2044   24.8727   62.5541 C   0  0  0  0  0
   -0.7899   24.9366   64.0273 C   0  0  0  0  0
    1.0897   23.4725   64.0042 C   0  0  0  0  0
    2.2059   23.1487   64.9378 C   0  0  0  0  0
    4.0357   23.1291   65.9355 C   0  0  0  0  0
    5.4086   23.4343   66.3622 C   0  0  0  0  0
    7.2531   22.9667   67.7898 C   0  0  0  0  0
    8.0032   23.9830   67.1940 C   0  0  0  0  0
    7.4352   24.7332   66.1632 C   0  0  0  0  0
    6.1325   24.4606   65.7418 C   0  0  0  0  0
    3.8499   27.8044   63.4301 C   0  0  0  0  0
    4.9164   28.6612   62.8350 C   0  0  0  0  0
    0.8057   29.3238   61.7234 C   0  0  0  0  0
    0.2679   29.7640   60.4002 C   0  0  0  0  0
   -0.5673   28.6842   59.7990 C   0  0  0  0  0
   -1.9199   28.5705   60.1420 C   0  0  0  0  0
   -2.6922   27.5316   59.6128 C   0  0  0  0  0
   -2.1112   26.6022   58.7445 C   0  0  0  0  0
   -0.7596   26.7119   58.4035 C   0  0  0  0  0
    0.0127   27.7511   58.9317 C   0  0  0  0  0
    2.4780   27.8972   62.9968 N   0  0  0  0  0
    0.6707   24.8584   64.1853 N   0  0  0  0  0
    3.2697   22.1795   66.5090 N   0  0  0  0  0
    5.9845   22.7160   67.3663 N   0  0  0  0  0
    3.4004   23.7704   64.9309 N   0  0  0  0  0
   -0.5993   25.9256   61.8546 O   0  0  0  0  0
    2.1448   22.2236   65.8620 O   0  0  0  0  0
    4.1691   27.0110   64.3555 O   0  0  0  0  0
    2.8765   28.6429   60.8153 O   0  0  0  0  0
    0.1257   29.5378   62.7620 O   0  0  0  0  0
   -3.0755   25.2957   58.0906 Cl  0  0  0  0  0
  1 25  1  0  0  0
  1 17  1  0  0  0
  2 25  1  0  0  0
  2  3  1  0  0  0
  3  4  1  0  0  0
  3 26  1  0  0  0
  4 30  1  0  0  0
  5 30  1  0  0  0
  5  6  1  0  0  0
  6 26  1  0  0  0
  7 26  1  0  0  0
  7  8  1  0  0  0
  8 31  1  0  0  0
  9 10  1  0  0  0
  9 29  1  0  0  0
 11 28  1  0  0  0
 12 13  1  0  0  0
 14 10  1  0  0  0
 16 15  1  0  0  0
 18 17  1  0  0  0
 18 19  1  0  0  0
 20 21  1  0  0  0
 22 35  1  0  0  0
 22 23  1  0  0  0
 24 19  1  0  0  0
 25 15  1  0  0  0
 31 27  1  0  0  0
  1 33  2  0  0  0
  8 29  2  0  0  0
  9 27  2  0  0  0
 10 28  2  0  0  0
 11 12  2  0  0  0
 13 14  2  0  0  0
 15 32  2  0  0  0
 17 34  2  0  0  0
 19 20  2  0  0  0
 21 22  2  0  0  0
 23 24  2  0  0  0
M  END
> <rmsd>
0.800563991

$$$$
ZXWUTCUQJVLVLT-UHFFFAOYSA-N


 34 37  0  0  0  0  0  0  0  0999 V2000
    2.6145   25.6113   64.4722 C   0  0  0  0  0
    0.6728   26.6193   63.1909 C   0  0  0  0  0
    0.9040   28.0282   63.6781 C   0  0  0  0  0
    0.6122   29.0082   61.4755 C   0  0  0  0  0
    1.3410   29.7420   60.3310 C   0  0  0  0  0
    0.4411   29.8174   59.1012 C   0  0  0  0  0
   -0.8534   30.5498   59.4445 C   0  0  0  0  0
   -1.5771   29.8408   60.5867 C   0  0  0  0  0
   -0.6752   29.7646   61.8155 C   0  0  0  0  0
    3.3797   29.2093   61.1143 C   0  0  0  0  0
    2.8188   28.4156   62.2934 C   0  0  0  0  0
    1.6427   24.4499   62.4669 C   0  0  0  0  0
    2.6107   24.7294   61.3284 C   0  0  0  0  0
    2.6660   25.5008   59.2411 C   0  0  0  0  0
    2.8609   24.0103   59.0876 C   0  0  0  0  0
    2.7862   23.4872   60.4904 C   0  0  0  0  0
    3.1591   24.3749   65.0790 C   0  0  0  0  0
    3.0315   22.0358   65.4388 C   0  0  0  0  0
    4.7635   23.2615   66.4839 C   0  0  0  0  0
    6.3909   22.1696   67.9920 C   0  0  0  0  0
    5.7349   22.0280   69.3581 C   0  0  0  0  0
    4.2859   24.4369   65.9058 C   0  0  0  0  0
    1.6334   25.5657   63.4103 N   0  0  0  0  0
    1.4871   28.9176   62.6590 N   0  0  0  0  0
    2.5538   23.1738   64.8709 N   0  0  0  0  0
    4.1289   22.0830   66.2372 N   0  0  0  0  0
    2.5286   29.0664   60.0064 O   0  0  0  0  0
   -0.3823   26.3755   62.5453 O   0  0  0  0  0
    2.1105   25.7480   60.5041 O   0  0  0  0  0
    3.0217   26.7232   64.9067 O   0  0  0  0  0
    5.8915   23.3125   67.3058 O   0  0  0  0  0
    5.9664   23.1662   70.1081 F   0  0  0  0  0
    4.3727   21.8389   69.2178 F   0  0  0  0  0
    6.2783   20.9375   70.0098 F   0  0  0  0  0
  1 23  1  0  0  0
  1 17  1  0  0  0
  3  2  1  0  0  0
  3 24  1  0  0  0
  4 24  1  0  0  0
  4  5  1  0  0  0
  5  6  1  0  0  0
  5 27  1  0  0  0
  6  7  1  0  0  0
  7  8  1  0  0  0
  8  9  1  0  0  0
  9  4  1  0  0  0
 10 27  1  0  0  0
 10 11  1  0  0  0
 11 24  1  0  0  0
 12 23  1  0  0  0
 12 13  1  0  0  0
 13 29  1  0  0  0
 14 29  1  0  0  0
 14 15  1  0  0  0
 15 16  1  0  0  0
 16 13  1  0  0  0
 18 25  1  0  0  0
 19 26  1  0  0  0
 19 31  1  0  0  0
 20 31  1  0  0  0
 20 21  1  0  0  0
 21 32  1  0  0  0
 21 33  1  0  0  0
 21 34  1  0  0  0
 22 17  1  0  0  0
 23  2  1  0  0  0
  1 30  2  0  0  0
  2 28  2  0  0  0
 17 25  2  0  0  0
 18 26  2  0  0  0
 19 22  2  0  0  0
M  END
> <rmsd>
0.579684734

$$$$
MPRDDJIZCOJHJS-UHFFFAOYSA-N


 35 39  0  0  0  0  0  0  0  0999 V2000
    2.6936   25.9868   64.4273 C   0  0  0  0  0
    0.2412   26.2300   64.0966 C   0  0  0  0  0
   -0.9495   26.0457   63.2046 C   0  0  0  0  0
   -0.7086   27.6910   61.5344 C   0  0  0  0  0
    0.6397   28.3261   61.5502 C   0  0  0  0  0
    2.2755   29.5210   62.0268 C   0  0  0  0  0
    3.1826   30.4951   62.7040 C   0  0  0  0  0
    3.7033   31.5007   61.6939 C   0  0  0  0  0
    2.5854   31.8884   62.6351 C   0  0  0  0  0
   -1.5980   25.6024   61.0108 C   0  0  0  0  0
    1.4421   24.2372   63.1634 C   0  0  0  0  0
    1.8918   22.2800   61.7298 C   0  0  0  0  0
    0.6341   22.3127   62.3332 C   0  0  0  0  0
    3.6552   25.1163   65.1334 C   0  0  0  0  0
    4.1829   23.0814   66.1692 C   0  0  0  0  0
    5.1658   21.5270   67.1688 C   0  0  0  0  0
    5.8609   24.7531   66.1076 C   0  0  0  0  0
    7.2698   25.2061   66.4463 C   0  0  0  0  0
    7.5553   26.6254   65.9753 C   0  0  0  0  0
    8.2784   24.2851   65.7852 C   0  0  0  0  0
    7.4755   25.1651   67.9493 C   0  0  0  0  0
    4.9528   25.5891   65.4277 C   0  0  0  0  0
    1.4520   25.4662   63.9149 N   0  0  0  0  0
   -0.5862   26.2674   61.8109 N   0  0  0  0  0
    2.6647   28.7171   61.0174 N   0  0  0  0  0
    0.9986   29.3011   62.4054 N   0  0  0  0  0
    0.3902   23.3944   63.1221 N   0  0  0  0  0
    3.2855   23.8585   65.5188 N   0  0  0  0  0
    5.4114   23.5128   66.4471 N   0  0  0  0  0
    6.0532   22.5496   67.0786 N   0  0  0  0  0
    3.9664   21.8293   66.6016 N   0  0  0  0  0
    1.6202   27.9959   60.7473 O   0  0  0  0  0
    0.1717   27.0939   65.0114 O   0  0  0  0  0
    2.9545   27.2136   64.2910 O   0  0  0  0  0
    2.7086   23.6698   62.2185 S   0  0  0  0  0
  1 23  1  0  0  0
  1 14  1  0  0  0
  3  2  1  0  0  0
  3 24  1  0  0  0
  4 24  1  0  0  0
  4  5  1  0  0  0
  5 32  1  0  0  0
  6 26  1  0  0  0
  7  6  1  0  0  0
  7  8  1  0  0  0
  8  9  1  0  0  0
  9  7  1  0  0  0
 10 24  1  0  0  0
 11 35  1  0  0  0
 12 35  1  0  0  0
 13 27  1  0  0  0
 15 28  1  0  0  0
 15 29  1  0  0  0
 16 31  1  0  0  0
 18 17  1  0  0  0
 18 19  1  0  0  0
 18 20  1  0  0  0
 18 21  1  0  0  0
 22 14  1  0  0  0
 23  2  1  0  0  0
 23 11  1  0  0  0
 29 30  1  0  0  0
 29 17  1  0  0  0
 32 25  1  0  0  0
  1 34  2  0  0  0
  2 33  2  0  0  0
  5 26  2  0  0  0
  6 25  2  0  0  0
 11 27  2  0  0  0
 12 13  2  0  0  0
 14 28  2  0  0  0
 15 31  2  0  0  0
 16 30  2  0  0  0
 17 22  2  0  0  0
M  END
> <rmsd>
0.667704403

$$$$
SGFORQBEWDWLEA-UHFFFAOYSA-N


 29 32  0  0  0  0  0  0  0  0999 V2000
    3.3382   25.6247   64.8076 C   0  0  0  0  0
    1.2951   25.4694   63.4113 C   0  0  0  0  0
    0.9127   25.4359   61.9374 C   0  0  0  0  0
   -0.5775   25.6918   61.7671 C   0  0  0  0  0
   -0.7268   27.9157   60.9976 C   0  0  0  0  0
    0.6141   28.5673   61.0508 C   0  0  0  0  0
    2.1630   29.9793   62.1541 C   0  0  0  0  0
    3.1006   29.7350   61.1489 C   0  0  0  0  0
    1.5513   28.3248   60.0445 C   0  0  0  0  0
   -2.3350   27.0605   62.4505 C   0  0  0  0  0
    1.2657   24.0684   61.3844 C   0  0  0  0  0
    2.7787   23.8752   61.3731 C   0  0  0  0  0
    3.4412   24.3729   62.6271 C   0  0  0  0  0
    4.2121   24.7564   65.6304 C   0  0  0  0  0
    3.9778   23.3750   65.7877 C   0  0  0  0  0
    4.8581   22.6129   66.5845 C   0  0  0  0  0
    3.5746   20.6725   66.1512 C   0  0  0  0  0
    2.6924   21.4254   65.3735 C   0  0  0  0  0
    6.1435   24.5418   67.0791 C   0  0  0  0  0
    5.2994   25.3342   66.2984 C   0  0  0  0  0
    2.7110   25.1490   63.6051 N   0  0  0  0  0
   -0.9136   27.0553   62.1583 N   0  0  0  0  0
    0.9398   29.3908   62.0833 N   0  0  0  0  0
    2.7742   28.9139   60.1158 N   0  0  0  0  0
    4.6365   21.2818   66.7416 N   0  0  0  0  0
    2.9102   22.7572   65.2117 N   0  0  0  0  0
    5.9109   23.2084   67.2027 N   0  0  0  0  0
    4.6722   24.1518   62.7790 O   0  0  0  0  0
    3.1370   26.8144   65.1752 O   0  0  0  0  0
  1 21  1  0  0  0
  1 14  1  0  0  0
  2 21  1  0  0  0
  2  3  1  0  0  0
  3  4  1  0  0  0
  3 11  1  0  0  0
  4 22  1  0  0  0
  5 22  1  0  0  0
  5  6  1  0  0  0
  7 23  1  0  0  0
  8 24  1  0  0  0
  9  6  1  0  0  0
 10 22  1  0  0  0
 11 12  1  0  0  0
 12 13  1  0  0  0
 13 21  1  0  0  0
 14 15  1  0  0  0
 15 16  1  0  0  0
 16 27  1  0  0  0
 17 25  1  0  0  0
 18 26  1  0  0  0
 19 20  1  0  0  0
  1 29  2  0  0  0
  6 23  2  0  0  0
  7  8  2  0  0  0
  9 24  2  0  0  0
 13 28  2  0  0  0
 15 26  2  0  0  0
 16 25  2  0  0  0
 17 18  2  0  0  0
 19 27  2  0  0  0
 20 14  2  0  0  0
M  END
> <rmsd>
0.598096609

$$$$
CWAUUXJAFXSSFE-UHFFFAOYSA-N


 35 38  0  0  0  0  0  0  0  0999 V2000
    2.9829   26.0542   64.3693 C   0  0  0  0  0
    2.3149   24.4096   62.5978 C   0  0  0  0  0
    2.6660   23.5840   61.4035 C   0  0  0  0  0
    2.5874   24.4143   60.1244 C   0  0  0  0  0
    2.7005   26.8591   59.5796 C   0  0  0  0  0
    2.2834   27.8887   60.5841 C   0  0  0  0  0
    1.0517   27.7317   61.3762 C   0  0  0  0  0
   -0.3154   28.4407   63.1810 C   0  0  0  0  0
   -1.2293   27.4272   62.8905 C   0  0  0  0  0
    0.1300   26.7180   61.0870 C   0  0  0  0  0
    4.4844   25.8323   61.0088 C   0  0  0  0  0
    4.4741   25.6774   62.4138 C   0  0  0  0  0
    5.6709   25.8569   63.1268 C   0  0  0  0  0
    6.8534   26.1877   62.4621 C   0  0  0  0  0
    6.8533   26.3520   61.0761 C   0  0  0  0  0
    5.6717   26.1809   60.3529 C   0  0  0  0  0
    2.2977   25.3635   65.5064 C   0  0  0  0  0
    4.2067   24.0410   66.4031 C   0  0  0  0  0
    4.8021   22.7855   66.5786 C   0  0  0  0  0
    4.6837   20.3400   66.3053 C   0  0  0  0  0
    6.7167   23.7941   67.5805 C   0  0  0  0  0
    8.6002   22.4126   68.3592 C   0  0  0  0  0
    6.1538   25.0612   67.4248 C   0  0  0  0  0
    4.8962   25.1823   66.8356 C   0  0  0  0  0
    3.2535   25.3725   63.1275 N   0  0  0  0  0
    3.2723   25.7001   60.2532 N   0  0  0  0  0
    0.8016   28.5711   62.4183 N   0  0  0  0  0
   -0.9876   26.5892   61.8489 N   0  0  0  0  0
    6.0329   22.6940   67.1580 N   0  0  0  0  0
    1.1691   24.2789   63.1061 O   0  0  0  0  0
    3.0360   28.8779   60.7881 O   0  0  0  0  0
    3.3473   27.2504   64.5234 O   0  0  0  0  0
    2.9451   24.1286   65.8008 O   0  0  0  0  0
    4.1282   21.6379   66.1552 O   0  0  0  0  0
    7.9759   23.6735   68.1688 O   0  0  0  0  0
  1 25  1  0  0  0
  3  2  1  0  0  0
  3  4  1  0  0  0
  4 26  1  0  0  0
  5 26  1  0  0  0
  5  6  1  0  0  0
  6  7  1  0  0  0
  8 27  1  0  0  0
  9 28  1  0  0  0
 10  7  1  0  0  0
 12 13  1  0  0  0
 12 25  1  0  0  0
 14 15  1  0  0  0
 16 11  1  0  0  0
 17  1  1  0  0  0
 17 33  1  0  0  0
 18 33  1  0  0  0
 19 34  1  0  0  0
 19 29  1  0  0  0
 20 34  1  0  0  0
 21 35  1  0  0  0
 21 23  1  0  0  0
 22 35  1  0  0  0
 24 18  1  0  0  0
 25  2  1  0  0  0
 26 11  1  0  0  0
  1 32  2  0  0  0
  2 30  2  0  0  0
  6 31  2  0  0  0
  7 27  2  0  0  0
  8  9  2  0  0  0
 10 28  2  0  0  0
 11 12  2  0  0  0
 13 14  2  0  0  0
 15 16  2  0  0  0
 18 19  2  0  0  0
 21 29  2  0  0  0
 23 24  2  0  0  0
M  END
> <rmsd>
0.696677208

$$$$
VLJLSJRQXQWZNG-UHFFFAOYSA-N


 33 36  0  0  0  0  0  0  0  0999 V2000
    4.4829   22.4043   66.7879 C   0  0  0  0  0
    4.9059   24.7652   65.8119 C   0  0  0  0  0
    4.0174   25.6201   64.9648 C   0  0  0  0  0
    1.6693   25.4246   63.8207 C   0  0  0  0  0
    2.1934   25.8708   62.4735 C   0  0  0  0  0
    1.1064   27.8421   60.0360 C   0  0  0  0  0
    2.1985   28.6633   59.7004 C   0  0  0  0  0
    3.9595   30.2413   60.4387 C   0  0  0  0  0
    4.4321   30.8664   61.7340 C   0  0  0  0  0
    2.6209   28.7330   58.3620 C   0  0  0  0  0
    1.9662   27.9959   57.3727 C   0  0  0  0  0
    0.8840   27.1818   57.7113 C   0  0  0  0  0
    0.4563   27.1055   59.0386 C   0  0  0  0  0
    1.3444   26.8875   64.0272 C   0  0  0  0  0
    2.8573   23.7431   65.3427 C   0  0  0  0  0
    5.8070   22.2960   67.4330 C   0  0  0  0  0
    7.5044   21.6055   68.5581 C   0  0  0  0  0
    8.4377   20.8074   69.4044 C   0  0  0  0  0
    9.6798   20.4454   68.6150 C   0  0  0  0  0
    8.8283   21.5944   70.6397 C   0  0  0  0  0
    6.2261   21.2224   68.2034 C   0  0  0  0  0
    4.1004   23.5612   66.0208 N   0  0  0  0  0
    2.7628   24.9969   64.6947 N   0  0  0  0  0
    1.8765   27.2721   62.7248 N   0  0  0  0  0
    6.7778   23.2265   67.3519 N   0  0  0  0  0
    4.3398   26.7588   64.5352 O   0  0  0  0  0
    0.0099   29.0599   62.1328 O   0  0  0  0  0
   -0.5581   26.7035   61.7909 O   0  0  0  0  0
    2.8477   29.3964   60.7005 O   0  0  0  0  0
    1.9388   22.8801   65.3157 O   0  0  0  0  0
    3.6692   21.4501   66.9189 O   0  0  0  0  0
    7.7825   22.7775   68.0399 O   0  0  0  0  0
    0.5456   27.7240   61.7007 S   0  0  0  0  0
  1 22  1  0  0  0
  1 16  1  0  0  0
  2 22  1  0  0  0
  2  3  1  0  0  0
  3 23  1  0  0  0
  4 23  1  0  0  0
  4  5  1  0  0  0
  5 24  1  0  0  0
  7 29  1  0  0  0
  7 10  1  0  0  0
  8 29  1  0  0  0
  8  9  1  0  0  0
 11 12  1  0  0  0
 13  6  1  0  0  0
 14 24  1  0  0  0
 14  4  1  0  0  0
 15 22  1  0  0  0
 17 32  1  0  0  0
 18 17  1  0  0  0
 18 19  1  0  0  0
 18 20  1  0  0  0
 21 16  1  0  0  0
 23 15  1  0  0  0
 25 32  1  0  0  0
 33 24  1  0  0  0
 33  6  1  0  0  0
  1 31  2  0  0  0
  3 26  2  0  0  0
  6  7  2  0  0  0
 10 11  2  0  0  0
 12 13  2  0  0  0
 15 30  2  0  0  0
 16 25  2  0  0  0
 17 21  2  0  0  0
 33 27  2  0  0  0
 33 28  2  0  0  0
M  END
> <rmsd>
0.702375591

$$$$
AYQMLWZILDRUJV-UHFFFAOYSA-N


 35 39  0  0  0  0  0  0  0  0999 V2000
    2.6855   26.8899   62.7815 C   0  0  0  0  0
    2.3284   26.0610   65.0994 C   0  0  0  0  0
    1.6087   25.0707   65.9567 C   0  0  0  0  0
    2.2938   22.9245   66.5895 C   0  0  0  0  0
    3.7790   22.7967   66.5740 C   0  0  0  0  0
    5.7130   22.0341   66.4882 C   0  0  0  0  0
    6.8721   21.0966   66.4000 C   0  0  0  0  0
    7.6493   21.0838   67.7016 C   0  0  0  0  0
    9.1018   20.9804   67.3009 C   0  0  0  0  0
    9.1963   21.6902   65.9691 C   0  0  0  0  0
    7.8410   21.5241   65.3089 C   0  0  0  0  0
    0.5604   23.1921   65.0578 C   0  0  0  0  0
    0.3684   26.4445   63.5861 C   0  0  0  0  0
   -2.0956   26.5694   63.6233 C   0  0  0  0  0
   -1.5246   26.2442   62.3924 C   0  0  0  0  0
    2.3588   28.0063   61.8765 C   0  0  0  0  0
    0.4573   30.7620   60.8154 C   0  0  0  0  0
   -0.6283   30.9371   61.6868 C   0  0  0  0  0
   -1.5429   31.9731   61.4765 C   0  0  0  0  0
   -1.3789   32.8411   60.3935 C   0  0  0  0  0
   -0.3003   32.6733   59.5206 C   0  0  0  0  0
    0.6146   31.6375   59.7305 C   0  0  0  0  0
    3.0794   28.3905   60.7604 C   0  0  0  0  0
    1.7859   26.4907   63.8344 N   0  0  0  0  0
    1.8497   23.7251   65.4603 N   0  0  0  0  0
    5.8302   23.3683   66.6466 N   0  0  0  0  0
    4.4286   21.6253   66.4409 N   0  0  0  0  0
   -0.1654   26.1818   62.3755 N   0  0  0  0  0
    1.3150   28.8387   62.0324 N   0  0  0  0  0
    1.3940   29.6983   61.0306 N   0  0  0  0  0
    2.4379   29.4607   60.2501 N   0  0  0  0  0
    4.6085   23.8032   66.6938 O   0  0  0  0  0
    3.4587   26.4730   65.4755 O   0  0  0  0  0
    3.7850   26.2888   62.6390 O   0  0  0  0  0
   -0.8287   26.7818   64.7132 S   0  0  0  0  0
  1 24  1  0  0  0
  1 16  1  0  0  0
  3  2  1  0  0  0
  3 25  1  0  0  0
  4 25  1  0  0  0
  4  5  1  0  0  0
  5 32  1  0  0  0
  6 27  1  0  0  0
  7  6  1  0  0  0
  7  8  1  0  0  0
  8  9  1  0  0  0
  9 10  1  0  0  0
 10 11  1  0  0  0
 11  7  1  0  0  0
 12 25  1  0  0  0
 13 35  1  0  0  0
 14 35  1  0  0  0
 15 28  1  0  0  0
 18 19  1  0  0  0
 20 21  1  0  0  0
 22 17  1  0  0  0
 23 16  1  0  0  0
 24  2  1  0  0  0
 24 13  1  0  0  0
 30 29  1  0  0  0
 30 17  1  0  0  0
 30 31  1  0  0  0
 32 26  1  0  0  0
  1 34  2  0  0  0
  2 33  2  0  0  0
  5 27  2  0  0  0
  6 26  2  0  0  0
 13 28  2  0  0  0
 14 15  2  0  0  0
 16 29  2  0  0  0
 17 18  2  0  0  0
 19 20  2  0  0  0
 21 22  2  0  0  0
 23 31  2  0  0  0
M  END
> <rmsd>
0.674021363

$$$$
XCAAKRZPDQMUKI-UHFFFAOYSA-N


 34 37  0  0  0  0  0  0  0  0999 V2000
    3.3662   25.9458   64.3545 C   0  0  0  0  0
    1.2084   26.3146   63.0827 C   0  0  0  0  0
    0.9811   27.6628   63.6884 C   0  0  0  0  0
   -0.1403   29.5701   62.9390 C   0  0  0  0  0
    0.3220   30.9789   62.6658 C   0  0  0  0  0
    1.8013   30.9380   62.9304 C   0  0  0  0  0
    2.1920   29.4745   62.7883 C   0  0  0  0  0
    3.1291   29.2568   61.5948 C   0  0  0  0  0
    3.3359   29.3532   59.3290 C   0  0  0  0  0
    2.6564   24.3468   62.5710 C   0  0  0  0  0
    3.4734   24.7138   61.3787 C   0  0  0  0  0
    2.8433   25.0756   60.1829 C   0  0  0  0  0
    3.6075   25.4695   59.0804 C   0  0  0  0  0
    5.0020   25.5071   59.1741 C   0  0  0  0  0
    5.8135   25.9308   58.0037 C   0  0  0  0  0
    5.6328   25.1505   60.3701 C   0  0  0  0  0
    4.8690   24.7566   61.4728 C   0  0  0  0  0
    4.1389   24.9522   65.1337 C   0  0  0  0  0
    3.5595   23.7723   65.6410 C   0  0  0  0  0
    4.3632   22.8658   66.3641 C   0  0  0  0  0
    2.4911   21.4523   66.6767 C   0  0  0  0  0
    1.6883   22.3545   65.9756 C   0  0  0  0  0
    6.2505   24.2776   66.1127 C   0  0  0  0  0
    5.4931   25.2020   65.3904 C   0  0  0  0  0
    2.3843   25.5340   63.3807 N   0  0  0  0  0
    0.9721   28.6777   62.6451 N   0  0  0  0  0
    3.8098   21.7277   66.8579 N   0  0  0  0  0
    2.2371   23.4936   65.4769 N   0  0  0  0  0
    5.6774   23.1363   66.5775 N   0  0  0  0  0
    2.4562   29.5812   60.3972 O   0  0  0  0  0
    0.3361   25.8593   62.2941 O   0  0  0  0  0
    3.6226   27.1701   64.5126 O   0  0  0  0  0
    3.5256   27.9277   61.5854 F   0  0  0  0  0
    4.2510   30.0592   61.7583 F   0  0  0  0  0
  1 25  1  0  0  0
  1 18  1  0  0  0
  3  2  1  0  0  0
  3 26  1  0  0  0
  4 26  1  0  0  0
  4  5  1  0  0  0
  5  6  1  0  0  0
  6  7  1  0  0  0
  7  8  1  0  0  0
  7 26  1  0  0  0
  8 30  1  0  0  0
  8 33  1  0  0  0
  8 34  1  0  0  0
  9 30  1  0  0  0
 10 25  1  0  0  0
 10 11  1  0  0  0
 12 13  1  0  0  0
 14 16  1  0  0  0
 15 14  1  0  0  0
 17 11  1  0  0  0
 18 19  1  0  0  0
 19 20  1  0  0  0
 20 29  1  0  0  0
 21 27  1  0  0  0
 22 28  1  0  0  0
 23 24  1  0  0  0
 25  2  1  0  0  0
  1 32  2  0  0  0
  2 31  2  0  0  0
 11 12  2  0  0  0
 13 14  2  0  0  0
 16 17  2  0  0  0
 19 28  2  0  0  0
 20 27  2  0  0  0
 21 22  2  0  0  0
 23 29  2  0  0  0
 24 18  2  0  0  0
M  END
> <rmsd>
0.618945956

$$$$
HCTNZPNCIFMSQN-UHFFFAOYSA-N


 31 33  0  0  0  0  0  0  0  0999 V2000
    2.8463   25.3994   64.2443 C   0  0  0  0  0
    0.8922   26.4097   62.9948 C   0  0  0  0  0
    1.0367   27.7400   63.6946 C   0  0  0  0  0
    2.7045   28.4960   62.1410 C   0  0  0  0  0
    3.0554   29.5511   61.0941 C   0  0  0  0  0
    4.3601   29.1772   60.4230 C   0  0  0  0  0
    0.9064   30.1389   60.7810 C   0  0  0  0  0
    0.3842   29.1411   61.8237 C   0  0  0  0  0
   -0.8308   29.7428   62.5194 C   0  0  0  0  0
   -2.0529   29.6441   61.6261 C   0  0  0  0  0
    1.6271   24.0787   62.5041 C   0  0  0  0  0
    2.5518   24.1168   61.2980 C   0  0  0  0  0
    2.4377   22.8552   60.5139 C   0  0  0  0  0
    3.5336   21.9894   60.4343 C   0  0  0  0  0
    3.4421   20.8095   59.6894 C   0  0  0  0  0
    2.2557   20.4957   59.0192 C   0  0  0  0  0
    1.1610   21.3625   59.0917 C   0  0  0  0  0
    1.2519   22.5425   59.8362 C   0  0  0  0  0
    3.2323   24.2428   65.0819 C   0  0  0  0  0
    2.7753   22.0718   65.9136 C   0  0  0  0  0
    4.7340   23.1852   66.6344 C   0  0  0  0  0
    6.2933   22.1276   68.2195 C   0  0  0  0  0
    4.4041   24.2856   65.8444 C   0  0  0  0  0
    1.7735   25.3044   63.2835 N   0  0  0  0  0
    1.4419   28.8441   62.8076 N   0  0  0  0  0
    2.4413   23.1368   65.1394 N   0  0  0  0  0
    3.9139   22.0989   66.6531 N   0  0  0  0  0
    2.0345   29.6109   60.1316 O   0  0  0  0  0
   -0.0469   26.2610   62.1662 O   0  0  0  0  0
    3.4817   26.4817   64.3693 O   0  0  0  0  0
    5.9028   23.2158   67.3957 O   0  0  0  0  0
  1 24  1  0  0  0
  1 19  1  0  0  0
  3  2  1  0  0  0
  3 25  1  0  0  0
  4 25  1  0  0  0
  4  5  1  0  0  0
  5  6  1  0  0  0
  5 28  1  0  0  0
  7 28  1  0  0  0
  7  8  1  0  0  0
  8  9  1  0  0  0
  8 25  1  0  0  0
  9 10  1  0  0  0
 11 24  1  0  0  0
 11 12  1  0  0  0
 12 13  1  0  0  0
 14 15  1  0  0  0
 16 17  1  0  0  0
 18 13  1  0  0  0
 20 26  1  0  0  0
 21 27  1  0  0  0
 21 31  1  0  0  0
 22 31  1  0  0  0
 23 19  1  0  0  0
 24  2  1  0  0  0
  1 30  2  0  0  0
  2 29  2  0  0  0
 13 14  2  0  0  0
 15 16  2  0  0  0
 17 18  2  0  0  0
 19 26  2  0  0  0
 20 27  2  0  0  0
 21 23  2  0  0  0
M  END
> <rmsd>
0.619026601

$$$$
OZRJSYBCIHOIRK-UHFFFAOYSA-N


 36 40  0  0  0  0  0  0  0  0999 V2000
    3.6114   25.3422   64.1181 C   0  0  0  0  0
    1.8352   24.9197   62.4253 C   0  0  0  0  0
    0.7461   25.3888   63.3430 C   0  0  0  0  0
    0.6381   27.7285   63.3083 C   0  0  0  0  0
    1.1669   28.5750   62.2010 C   0  0  0  0  0
    1.4965   30.1498   60.8769 C   0  0  0  0  0
    1.4219   31.4472   60.1874 C   0  0  0  0  0
    2.2294   31.7123   59.0763 C   0  0  0  0  0
    2.1538   32.9503   58.4358 C   0  0  0  0  0
    1.2672   33.9148   58.9192 C   0  0  0  0  0
    0.5476   32.4442   60.6383 C   0  0  0  0  0
   -1.3172   26.4641   63.2792 C   0  0  0  0  0
    4.0636   23.7671   62.2327 C   0  0  0  0  0
    3.5686   22.6904   61.4767 C   0  0  0  0  0
    4.4420   21.8234   60.8137 C   0  0  0  0  0
    5.8215   22.0200   60.9022 C   0  0  0  0  0
    6.3283   23.0825   61.6551 C   0  0  0  0  0
    5.4546   23.9498   62.3172 C   0  0  0  0  0
    4.2545   24.6152   65.2383 C   0  0  0  0  0
    3.9258   23.2840   65.5699 C   0  0  0  0  0
    4.5821   22.6607   66.6529 C   0  0  0  0  0
    3.3158   20.6953   66.2953 C   0  0  0  0  0
    2.6537   21.3121   65.2317 C   0  0  0  0  0
    5.8364   24.6262   67.0749 C   0  0  0  0  0
    5.2111   25.2833   66.0130 C   0  0  0  0  0
    3.1620   24.6561   62.9331 N   0  0  0  0  0
    0.0386   26.5205   62.7642 N   0  0  0  0  0
    2.3492   29.1638   60.5291 N   0  0  0  0  0
    0.4897   33.6450   60.0018 N   0  0  0  0  0
    0.7260   29.8185   61.9361 N   0  0  0  0  0
    4.2635   21.3826   66.9841 N   0  0  0  0  0
    2.9692   22.5904   64.8952 N   0  0  0  0  0
    5.5147   23.3393   67.3698 N   0  0  0  0  0
    2.1133   28.2066   61.3738 O   0  0  0  0  0
    1.5660   24.7166   61.2098 O   0  0  0  0  0
    3.4729   26.5937   64.1969 O   0  0  0  0  0
  1 26  1  0  0  0
  1 19  1  0  0  0
  3  2  1  0  0  0
  3 27  1  0  0  0
  4 27  1  0  0  0
  4  5  1  0  0  0
  5 34  1  0  0  0
  6  7  1  0  0  0
  6 30  1  0  0  0
  8  9  1  0  0  0
 10 29  1  0  0  0
 11  7  1  0  0  0
 12 27  1  0  0  0
 14 15  1  0  0  0
 16 17  1  0  0  0
 18 13  1  0  0  0
 19 20  1  0  0  0
 20 21  1  0  0  0
 21 33  1  0  0  0
 22 31  1  0  0  0
 23 32  1  0  0  0
 24 25  1  0  0  0
 26  2  1  0  0  0
 26 13  1  0  0  0
 34 28  1  0  0  0
  1 36  2  0  0  0
  2 35  2  0  0  0
  5 30  2  0  0  0
  6 28  2  0  0  0
  7  8  2  0  0  0
  9 10  2  0  0  0
 11 29  2  0  0  0
 13 14  2  0  0  0
 15 16  2  0  0  0
 17 18  2  0  0  0
 20 32  2  0  0  0
 21 31  2  0  0  0
 22 23  2  0  0  0
 24 33  2  0  0  0
 25 19  2  0  0  0
M  END
> <rmsd>
0.681566715

$$$$
KXIBITWSQJTYDI-UHFFFAOYSA-N


 34 37  0  0  0  0  0  0  0  0999 V2000
    2.6432   26.9426   62.8051 C   0  0  0  0  0
    2.3260   26.0612   65.1100 C   0  0  0  0  0
    1.6194   25.0856   65.9967 C   0  0  0  0  0
    0.5217   23.2137   65.1460 C   0  0  0  0  0
    2.2910   22.9365   66.6330 C   0  0  0  0  0
    3.7752   22.8007   66.5899 C   0  0  0  0  0
    5.7035   22.0279   66.4740 C   0  0  0  0  0
    6.8552   21.0872   66.3453 C   0  0  0  0  0
    7.6644   21.4096   65.1040 C   0  0  0  0  0
    7.7422   21.1657   67.5729 C   0  0  0  0  0
    0.3505   26.3541   63.5932 C   0  0  0  0  0
   -1.8348   26.3181   64.1554 C   0  0  0  0  0
   -3.0349   26.3673   65.0036 C   0  0  0  0  0
   -4.3110   26.2273   64.4404 C   0  0  0  0  0
   -5.4490   26.2716   65.2510 C   0  0  0  0  0
   -5.3180   26.4560   66.6301 C   0  0  0  0  0
   -4.0491   26.5974   67.1984 C   0  0  0  0  0
   -2.9109   26.5535   66.3875 C   0  0  0  0  0
    2.2705   28.0895   61.9519 C   0  0  0  0  0
    0.9143   30.1317   61.6418 C   0  0  0  0  0
    1.2993   30.0496   60.1685 C   0  0  0  0  0
    2.9921   28.3993   60.8702 C   0  0  0  0  0
    1.7640   26.4747   63.8466 N   0  0  0  0  0
    1.8291   23.7323   65.5071 N   0  0  0  0  0
    5.8305   23.3629   66.6183 N   0  0  0  0  0
    4.4159   21.6255   66.4506 N   0  0  0  0  0
   -0.1287   26.1409   62.3337 N   0  0  0  0  0
   -0.5694   26.4562   64.6051 N   0  0  0  0  0
    4.6122   23.8039   66.6878 O   0  0  0  0  0
    3.4585   26.4840   65.4670 O   0  0  0  0  0
    1.1511   28.8717   62.2712 O   0  0  0  0  0
    2.5915   29.4544   60.0416 O   0  0  0  0  0
    3.7584   26.3770   62.6339 O   0  0  0  0  0
   -1.7781   26.0756   62.5106 S   0  0  0  0  0
  1 23  1  0  0  0
  1 19  1  0  0  0
  3  2  1  0  0  0
  3 24  1  0  0  0
  4 24  1  0  0  0
  5 24  1  0  0  0
  5  6  1  0  0  0
  6 29  1  0  0  0
  7 26  1  0  0  0
  8  7  1  0  0  0
  8  9  1  0  0  0
  8 10  1  0  0  0
 11 28  1  0  0  0
 12 34  1  0  0  0
 12 13  1  0  0  0
 14 15  1  0  0  0
 16 17  1  0  0  0
 18 13  1  0  0  0
 19 31  1  0  0  0
 20 31  1  0  0  0
 20 21  1  0  0  0
 21 32  1  0  0  0
 22 32  1  0  0  0
 23  2  1  0  0  0
 23 11  1  0  0  0
 27 34  1  0  0  0
 29 25  1  0  0  0
  1 33  2  0  0  0
  2 30  2  0  0  0
  6 26  2  0  0  0
  7 25  2  0  0  0
 11 27  2  0  0  0
 12 28  2  0  0  0
 13 14  2  0  0  0
 15 16  2  0  0  0
 17 18  2  0  0  0
 22 19  2  0  0  0
M  END
> <rmsd>
0.654816926

$$$$
BHVZIHUBIQNKLB-UHFFFAOYSA-N


 34 37  0  0  0  0  0  0  0  0999 V2000
    5.5384   23.6339   67.0044 C   0  0  0  0  0
    4.5769   25.8323   67.6696 C   0  0  0  0  0
    4.2975   27.2530   67.2802 C   0  0  0  0  0
    3.1949   27.3505   66.2292 C   0  0  0  0  0
    2.3136   26.5278   64.2211 C   0  0  0  0  0
    2.5774   25.7797   62.9061 C   0  0  0  0  0
    1.3186   25.6560   62.0407 C   0  0  0  0  0
    0.8062   28.0491   61.5248 C   0  0  0  0  0
    0.4493   30.3964   61.4298 C   0  0  0  0  0
    1.4361   30.5098   60.4475 C   0  0  0  0  0
    1.8082   28.1729   60.5513 C   0  0  0  0  0
    3.7180   26.4290   62.1231 C   0  0  0  0  0
    4.9366   26.6436   63.0141 C   0  0  0  0  0
    4.5183   27.4038   64.2691 C   0  0  0  0  0
    6.7519   25.7190   66.4038 C   0  0  0  0  0
    7.2830   26.8976   66.9498 C   0  0  0  0  0
    8.3748   27.5310   66.3494 C   0  0  0  0  0
    8.9524   26.9895   65.1990 C   0  0  0  0  0
    8.4447   25.8091   64.6531 C   0  0  0  0  0
    9.0729   25.2237   63.4376 C   0  0  0  0  0
    7.3510   25.1777   65.2541 C   0  0  0  0  0
    4.3128   22.9332   66.5817 C   0  0  0  0  0
    2.1904   23.0009   65.5181 C   0  0  0  0  0
    2.0348   21.6317   65.7460 C   0  0  0  0  0
    4.1528   21.5580   66.8051 C   0  0  0  0  0
    5.6094   25.0704   67.0082 N   0  0  0  0  0
    3.5385   26.6135   65.0172 N   0  0  0  0  0
    0.1564   29.1697   61.9459 N   0  0  0  0  0
    2.0971   29.3983   60.0324 N   0  0  0  0  0
    3.3212   23.6180   65.9424 N   0  0  0  0  0
    3.0184   20.9400   66.3847 N   0  0  0  0  0
    0.4804   26.8122   62.0968 O   0  0  0  0  0
    3.8712   25.3002   68.5661 O   0  0  0  0  0
    6.5558   22.9685   67.3446 O   0  0  0  0  0
  1 26  1  0  0  0
  1 22  1  0  0  0
  3  2  1  0  0  0
  3  4  1  0  0  0
  4 27  1  0  0  0
  5 27  1  0  0  0
  5  6  1  0  0  0
  6  7  1  0  0  0
  6 12  1  0  0  0
  7 32  1  0  0  0
  8 32  1  0  0  0
  9 28  1  0  0  0
 10 29  1  0  0  0
 11  8  1  0  0  0
 12 13  1  0  0  0
 13 14  1  0  0  0
 14 27  1  0  0  0
 16 17  1  0  0  0
 18 19  1  0  0  0
 20 19  1  0  0  0
 21 15  1  0  0  0
 23 30  1  0  0  0
 24 31  1  0  0  0
 25 22  1  0  0  0
 26  2  1  0  0  0
 26 15  1  0  0  0
  1 34  2  0  0  0
  2 33  2  0  0  0
  8 28  2  0  0  0
  9 10  2  0  0  0
 11 29  2  0  0  0
 15 16  2  0  0  0
 17 18  2  0  0  0
 19 21  2  0  0  0
 22 30  2  0  0  0
 23 24  2  0  0  0
 25 31  2  0  0  0
M  END
> <rmsd>
0.762506545

$$$$
ZMXHGKRFODEQDM-UHFFFAOYSA-N


 34 37  0  0  0  0  0  0  0  0999 V2000
    2.9439   25.6005   64.1410 C   0  0  0  0  0
    0.8943   26.5416   63.0370 C   0  0  0  0  0
    0.9566   27.8020   63.8430 C   0  0  0  0  0
    0.4756   30.0827   63.6832 C   0  0  0  0  0
    1.3588   31.2931   63.4633 C   0  0  0  0  0
    2.6039   30.7842   62.7850 C   0  0  0  0  0
    2.4654   29.2782   62.7890 C   0  0  0  0  0
    2.9824   28.7032   61.5104 C   0  0  0  0  0
    3.2376   28.2099   59.5057 C   0  0  0  0  0
    3.0832   28.1158   58.0303 C   0  0  0  0  0
    1.8937   24.3989   62.1926 C   0  0  0  0  0
    2.0819   24.8595   60.7551 C   0  0  0  0  0
    3.2329   24.2197   61.4926 C   0  0  0  0  0
    3.2979   24.3994   64.9268 C   0  0  0  0  0
    2.8468   22.1630   65.5644 C   0  0  0  0  0
    4.6985   23.2769   66.5264 C   0  0  0  0  0
    6.2060   22.1381   68.1214 C   0  0  0  0  0
    7.1931   21.3067   67.3148 C   0  0  0  0  0
    4.3986   24.4214   65.7891 C   0  0  0  0  0
    1.9411   25.5490   63.1036 N   0  0  0  0  0
    1.0521   28.9572   62.9608 N   0  0  0  0  0
    4.0275   27.8561   61.4517 N   0  0  0  0  0
    2.4465   28.9573   60.2974 N   0  0  0  0  0
    2.5433   23.2704   64.8385 N   0  0  0  0  0
    3.9168   22.1698   66.4004 N   0  0  0  0  0
    0.7187   32.2098   62.6513 F   0  0  0  0  0
    1.6776   31.8734   64.6766 F   0  0  0  0  0
    7.6066   20.2311   68.0766 F   0  0  0  0  0
    8.2921   22.0773   66.9836 F   0  0  0  0  0
    6.5935   20.8398   66.1598 F   0  0  0  0  0
    4.1542   27.5744   60.1912 O   0  0  0  0  0
   -0.1043   26.3576   62.2893 O   0  0  0  0  0
    3.5372   26.6875   64.3802 O   0  0  0  0  0
    5.7955   23.2882   67.3901 O   0  0  0  0  0
  1 20  1  0  0  0
  1 14  1  0  0  0
  3  2  1  0  0  0
  3 21  1  0  0  0
  4 21  1  0  0  0
  4  5  1  0  0  0
  5 26  1  0  0  0
  5 27  1  0  0  0
  5  6  1  0  0  0
  6  7  1  0  0  0
  7  8  1  0  0  0
  7 21  1  0  0  0
  8 23  1  0  0  0
  9 31  1  0  0  0
 10  9  1  0  0  0
 11 20  1  0  0  0
 11 12  1  0  0  0
 12 13  1  0  0  0
 13 11  1  0  0  0
 15 24  1  0  0  0
 16 25  1  0  0  0
 16 34  1  0  0  0
 17 34  1  0  0  0
 17 18  1  0  0  0
 18 28  1  0  0  0
 18 29  1  0  0  0
 18 30  1  0  0  0
 19 14  1  0  0  0
 20  2  1  0  0  0
 22 31  1  0  0  0
  1 33  2  0  0  0
  2 32  2  0  0  0
  8 22  2  0  0  0
  9 23  2  0  0  0
 14 24  2  0  0  0
 15 25  2  0  0  0
 16 19  2  0  0  0
M  END
> <rmsd>
0.510739565

$$$$
XSXZAKKERDVCHD-UHFFFAOYSA-N


 33 36  0  0  0  0  0  0  0  0999 V2000
    4.1082   23.2243   67.0300 C   0  0  0  0  0
    3.3777   25.6313   67.0954 C   0  0  0  0  0
    4.0451   26.4485   65.9755 C   0  0  0  0  0
    5.3558   25.7793   65.5291 C   0  0  0  0  0
    5.1395   26.4896   63.4118 C   0  0  0  0  0
    3.8626   27.2679   63.7151 C   0  0  0  0  0
    2.1412   27.6413   65.2391 C   0  0  0  0  0
    0.7734   27.3127   64.6530 C   0  0  0  0  0
    0.7328   27.5665   63.1842 C   0  0  0  0  0
    0.7836   28.4878   61.3210 C   0  0  0  0  0
    0.9174   29.4876   60.2279 C   0  0  0  0  0
    2.2533   30.5105   58.8022 C   0  0  0  0  0
    1.8837   23.8929   66.0824 C   0  0  0  0  0
    0.6395   24.6476   66.4034 C   0  0  0  0  0
    5.3190   23.5597   67.8446 C   0  0  0  0  0
    7.6792   22.8387   67.9288 C   0  0  0  0  0
    7.6857   22.9467   69.3326 C   0  0  0  0  0
    8.8700   22.7269   70.0419 C   0  0  0  0  0
   10.0396   22.3769   69.3599 C   0  0  0  0  0
   10.0289   22.2533   67.9668 C   0  0  0  0  0
    8.8497   22.4839   67.2519 C   0  0  0  0  0
    6.4417   23.3579   70.0636 C   0  0  0  0  0
    5.1877   23.0088   69.2634 C   0  0  0  0  0
    3.1344   24.2389   66.7044 N   0  0  0  0  0
    3.1355   26.6527   64.8324 N   0  0  0  0  0
    0.5254   26.5989   62.2713 N   0  0  0  0  0
    0.9028   28.7843   62.6285 N   0  0  0  0  0
    5.9825   26.5415   64.5312 O   0  0  0  0  0
    0.5673   27.2108   61.1276 O   0  0  0  0  0
    2.2444   29.5400   59.8029 O   0  0  0  0  0
    1.8167   22.9327   65.2699 O   0  0  0  0  0
    3.9312   22.0283   66.6691 O   0  0  0  0  0
    6.4979   23.0574   67.2123 O   0  0  0  0  0
  1 24  1  0  0  0
  2 24  1  0  0  0
  2  3  1  0  0  0
  3  4  1  0  0  0
  3 25  1  0  0  0
  4 28  1  0  0  0
  5 28  1  0  0  0
  5  6  1  0  0  0
  6 25  1  0  0  0
  7 25  1  0  0  0
  7  8  1  0  0  0
  8  9  1  0  0  0
  9 27  1  0  0  0
 10 29  1  0  0  0
 11 10  1  0  0  0
 11 30  1  0  0  0
 12 30  1  0  0  0
 14 13  1  0  0  0
 15  1  1  0  0  0
 15 33  1  0  0  0
 16 33  1  0  0  0
 17 18  1  0  0  0
 19 20  1  0  0  0
 21 16  1  0  0  0
 22 17  1  0  0  0
 22 23  1  0  0  0
 23 15  1  0  0  0
 24 13  1  0  0  0
 26 29  1  0  0  0
  1 32  2  0  0  0
  9 26  2  0  0  0
 10 27  2  0  0  0
 13 31  2  0  0  0
 16 17  2  0  0  0
 18 19  2  0  0  0
 20 21  2  0  0  0
M  END
> <rmsd>
0.702823281

$$$$
OZNIAMPHZITCGP-UHFFFAOYSA-N


 34 37  0  0  0  0  0  0  0  0999 V2000
    2.7022   25.6164   64.2696 C   0  0  0  0  0
    0.7098   26.5948   63.0594 C   0  0  0  0  0
    0.8114   27.8989   63.7874 C   0  0  0  0  0
    2.4067   29.3590   62.8443 C   0  0  0  0  0
    3.2035   28.4970   61.8727 C   0  0  0  0  0
    3.9517   29.1223   59.7478 C   0  0  0  0  0
    3.5813   29.3651   58.2863 C   0  0  0  0  0
    2.9918   28.0891   57.6940 C   0  0  0  0  0
    1.8257   27.6011   58.5481 C   0  0  0  0  0
    2.2838   27.4505   59.9959 C   0  0  0  0  0
    0.2670   30.1235   63.3589 C   0  0  0  0  0
    1.6111   24.3727   62.4032 C   0  0  0  0  0
    2.6955   24.0278   61.5662 C   0  0  0  0  0
    2.6074   22.8769   60.7453 C   0  0  0  0  0
    3.6700   22.5309   59.9055 C   0  0  0  0  0
    4.8210   23.3221   59.8696 C   0  0  0  0  0
    4.9134   24.4623   60.6715 C   0  0  0  0  0
    3.8562   24.8139   61.5141 C   0  0  0  0  0
    1.4549   22.0888   60.7638 C   0  0  0  0  0
    0.3840   22.4348   61.5886 C   0  0  0  0  0
    0.4612   23.5688   62.4008 C   0  0  0  0  0
    3.1693   24.4177   64.9998 C   0  0  0  0  0
    2.8472   22.1654   65.6600 C   0  0  0  0  0
    4.7760   23.3136   66.4070 C   0  0  0  0  0
    6.4520   22.1999   67.8249 C   0  0  0  0  0
    4.3640   24.4580   65.7259 C   0  0  0  0  0
    1.6653   25.5283   63.2645 N   0  0  0  0  0
    0.9983   28.9851   62.8344 N   0  0  0  0  0
    2.7644   28.7336   60.5080 N   0  0  0  0  0
    2.4350   23.2721   64.9897 N   0  0  0  0  0
    4.0096   22.1893   66.3609 N   0  0  0  0  0
   -0.2374   26.4461   62.2398 O   0  0  0  0  0
    3.2450   26.7273   64.5181 O   0  0  0  0  0
    5.9710   23.3384   67.1267 O   0  0  0  0  0
  1 27  1  0  0  0
  1 22  1  0  0  0
  3  2  1  0  0  0
  3 28  1  0  0  0
  4 28  1  0  0  0
  4  5  1  0  0  0
  5 29  1  0  0  0
  6 29  1  0  0  0
  6  7  1  0  0  0
  7  8  1  0  0  0
  8  9  1  0  0  0
  9 10  1  0  0  0
 10 29  1  0  0  0
 11 28  1  0  0  0
 12 13  1  0  0  0
 13 14  1  0  0  0
 14 19  1  0  0  0
 15 16  1  0  0  0
 17 18  1  0  0  0
 20 21  1  0  0  0
 23 30  1  0  0  0
 24 31  1  0  0  0
 24 34  1  0  0  0
 25 34  1  0  0  0
 26 22  1  0  0  0
 27  2  1  0  0  0
 27 12  1  0  0  0
  1 33  2  0  0  0
  2 32  2  0  0  0
 14 15  2  0  0  0
 16 17  2  0  0  0
 18 13  2  0  0  0
 19 20  2  0  0  0
 21 12  2  0  0  0
 22 30  2  0  0  0
 23 31  2  0  0  0
 24 26  2  0  0  0
M  END
> <rmsd>
0.45333752

$$$$
TZTFVHNSCOHVNL-UHFFFAOYSA-N


 31 34  0  0  0  0  0  0  0  0999 V2000
    2.9043   25.6120   64.1479 C   0  0  0  0  0
    0.8369   26.5370   63.0620 C   0  0  0  0  0
    0.9108   27.8164   63.8353 C   0  0  0  0  0
    0.4060   30.0886   63.5572 C   0  0  0  0  0
    1.4098   31.2224   63.6450 C   0  0  0  0  0
    2.5889   30.7703   62.8296 C   0  0  0  0  0
    2.4635   29.2677   62.8157 C   0  0  0  0  0
    3.0422   28.6993   61.5612 C   0  0  0  0  0
    3.3807   28.2394   59.5326 C   0  0  0  0  0
    3.2027   28.1094   58.0428 C   0  0  0  0  0
    4.5426   27.9246   57.3518 C   0  0  0  0  0
    2.3259   26.9094   57.7441 C   0  0  0  0  0
    2.5422   29.3518   57.4721 C   0  0  0  0  0
    4.3091   27.5558   60.3002 C   0  0  0  0  0
    1.8459   24.4036   62.2086 C   0  0  0  0  0
    3.1754   24.2398   61.4866 C   0  0  0  0  0
    2.0043   24.8638   60.7676 C   0  0  0  0  0
    3.2765   24.4106   64.9247 C   0  0  0  0  0
    2.8485   22.1686   65.5591 C   0  0  0  0  0
    4.7052   23.2913   66.5021 C   0  0  0  0  0
    6.1886   22.1711   68.1167 C   0  0  0  0  0
    4.3887   24.4363   65.7724 C   0  0  0  0  0
    1.8946   25.5553   63.1174 N   0  0  0  0  0
    1.0455   28.9414   62.9204 N   0  0  0  0  0
    2.5603   28.9536   60.3295 N   0  0  0  0  0
    2.5282   23.2770   64.8421 N   0  0  0  0  0
    3.9298   22.1790   66.3809 N   0  0  0  0  0
    4.0659   27.8798   61.5473 O   0  0  0  0  0
   -0.1785   26.3310   62.3435 O   0  0  0  0  0
    3.4880   26.7036   64.3893 O   0  0  0  0  0
    5.8147   23.3044   67.3477 O   0  0  0  0  0
  1 23  1  0  0  0
  1 18  1  0  0  0
  3  2  1  0  0  0
  3 24  1  0  0  0
  4 24  1  0  0  0
  4  5  1  0  0  0
  5  6  1  0  0  0
  6  7  1  0  0  0
  7  8  1  0  0  0
  7 24  1  0  0  0
  8 28  1  0  0  0
  9 25  1  0  0  0
 10  9  1  0  0  0
 10 11  1  0  0  0
 10 12  1  0  0  0
 10 13  1  0  0  0
 14 28  1  0  0  0
 15 23  1  0  0  0
 15 16  1  0  0  0
 16 17  1  0  0  0
 17 15  1  0  0  0
 19 26  1  0  0  0
 20 27  1  0  0  0
 20 31  1  0  0  0
 21 31  1  0  0  0
 22 18  1  0  0  0
 23  2  1  0  0  0
  1 30  2  0  0  0
  2 29  2  0  0  0
  8 25  2  0  0  0
  9 14  2  0  0  0
 18 26  2  0  0  0
 19 27  2  0  0  0
 20 22  2  0  0  0
M  END
> <rmsd>
0.49970153

$$$$
JMUFZVBUUWQYMU-UHFFFAOYSA-N


 29 31  0  0  0  0  0  0  0  0999 V2000
    2.8325   25.4930   64.1711 C   0  0  0  0  0
    0.8383   26.5088   63.0059 C   0  0  0  0  0
    0.8901   27.7498   63.8443 C   0  0  0  0  0
    0.4639   30.0457   63.7446 C   0  0  0  0  0
    1.3017   31.2646   63.4335 C   0  0  0  0  0
    2.6217   30.7285   62.9405 C   0  0  0  0  0
    2.4402   29.2263   62.8520 C   0  0  0  0  0
    2.9475   28.7129   61.5442 C   0  0  0  0  0
    3.2227   28.3323   59.5154 C   0  0  0  0  0
    3.0920   28.3332   58.0286 C   0  0  0  0  0
    1.7206   27.8322   57.6197 C   0  0  0  0  0
    3.3149   29.7285   57.4785 C   0  0  0  0  0
    1.6013   24.2103   62.4157 C   0  0  0  0  0
    3.2280   24.3297   64.9939 C   0  0  0  0  0
    2.7799   22.1518   65.8120 C   0  0  0  0  0
    4.7417   23.2629   66.5284 C   0  0  0  0  0
    6.3127   22.1958   68.0954 C   0  0  0  0  0
    4.4048   24.3689   65.7492 C   0  0  0  0  0
    1.7437   25.4105   63.2309 N   0  0  0  0  0
    1.0189   28.9283   62.9975 N   0  0  0  0  0
    4.1259   27.5827   60.1750 N   0  0  0  0  0
    2.4497   29.0677   60.3433 N   0  0  0  0  0
    2.4391   23.2222   65.0480 N   0  0  0  0  0
    3.9233   22.1752   66.5443 N   0  0  0  0  0
    1.4939   32.0050   64.5840 F   0  0  0  0  0
    3.9230   27.8471   61.4293 O   0  0  0  0  0
   -0.0480   26.4212   62.1128 O   0  0  0  0  0
    3.4690   26.5751   64.2950 O   0  0  0  0  0
    5.9153   23.2897   67.2823 O   0  0  0  0  0
  1 19  1  0  0  0
  1 14  1  0  0  0
  3  2  1  0  0  0
  3 20  1  0  0  0
  4 20  1  0  0  0
  4  5  1  0  0  0
  5 25  1  0  0  0
  5  6  1  0  0  0
  6  7  1  0  0  0
  7  8  1  0  0  0
  7 20  1  0  0  0
  8 26  1  0  0  0
  9 22  1  0  0  0
 10  9  1  0  0  0
 10 11  1  0  0  0
 10 12  1  0  0  0
 13 19  1  0  0  0
 15 23  1  0  0  0
 16 24  1  0  0  0
 16 29  1  0  0  0
 17 29  1  0  0  0
 18 14  1  0  0  0
 19  2  1  0  0  0
 26 21  1  0  0  0
  1 28  2  0  0  0
  2 27  2  0  0  0
  8 22  2  0  0  0
  9 21  2  0  0  0
 14 23  2  0  0  0
 15 24  2  0  0  0
 16 18  2  0  0  0
M  END
> <rmsd>
0.489470333

$$$$
BHUNFVUSXUSLIO-UHFFFAOYSA-N


 28 29  0  0  0  0  0  0  0  0999 V2000
    1.6642   28.0443   62.8351 C   0  0  0  0  0
    2.6522   25.9617   63.8390 C   0  0  0  0  0
    2.6238   24.4574   64.0365 C   0  0  0  0  0
    3.6191   24.2279   66.1958 C   0  0  0  0  0
    4.5685   23.0505   66.0192 C   0  0  0  0  0
    6.7145   23.3156   65.5546 C   0  0  0  0  0
    3.9797   20.9561   65.6133 C   0  0  0  0  0
    1.3344   24.7755   66.0746 C   0  0  0  0  0
    1.6657   23.7573   63.0707 C   0  0  0  0  0
    0.3049   24.4366   63.0743 C   0  0  0  0  0
    0.4654   25.8607   62.6555 C   0  0  0  0  0
    2.9643   28.6874   62.4695 C   0  0  0  0  0
    3.4600   27.6880   60.2479 C   0  0  0  0  0
    3.4576   27.8440   58.8590 C   0  0  0  0  0
    3.8176   26.7791   58.0287 C   0  0  0  0  0
    4.1844   25.5471   58.5794 C   0  0  0  0  0
    4.5599   24.4336   57.6612 C   0  0  0  0  0
    4.1934   25.3835   59.9767 C   0  0  0  0  0
    4.5767   24.0893   60.6107 C   0  0  0  0  0
    3.8345   26.4536   60.8001 C   0  0  0  0  0
    1.5865   26.6350   63.1302 N   0  0  0  0  0
    2.3996   24.0172   65.4264 N   0  0  0  0  0
    3.6139   26.6177   64.3226 O   0  0  0  0  0
    5.7978   23.3552   66.6061 O   0  0  0  0  0
    4.0304   21.9137   66.6274 O   0  0  0  0  0
   -0.3685   26.3572   61.8518 O   0  0  0  0  0
    0.6180   28.7465   62.8212 O   0  0  0  0  0
    3.0905   28.7716   61.0530 O   0  0  0  0  0
  1 21  1  0  0  0
  3  2  1  0  0  0
  3 22  1  0  0  0
  3  9  1  0  0  0
  4 22  1  0  0  0
  4  5  1  0  0  0
  5 24  1  0  0  0
  5 25  1  0  0  0
  6 24  1  0  0  0
  7 25  1  0  0  0
  8 22  1  0  0  0
  9 10  1  0  0  0
 10 11  1  0  0  0
 11 21  1  0  0  0
 12  1  1  0  0  0
 12 28  1  0  0  0
 13 28  1  0  0  0
 14 15  1  0  0  0
 16 18  1  0  0  0
 17 16  1  0  0  0
 19 18  1  0  0  0
 20 13  1  0  0  0
 21  2  1  0  0  0
  1 27  2  0  0  0
  2 23  2  0  0  0
 11 26  2  0  0  0
 13 14  2  0  0  0
 15 16  2  0  0  0
 18 20  2  0  0  0
M  END
> <rmsd>
0.615346193

$$$$
ZGPGYOGQKRSPQD-UHFFFAOYSA-N


 31 33  0  0  0  0  0  0  0  0999 V2000
    2.7966   25.5334   63.9425 C   0  0  0  0  0
    0.7838   26.5489   62.8567 C   0  0  0  0  0
    0.7051   27.6624   63.8582 C   0  0  0  0  0
    2.1550   29.3897   63.2088 C   0  0  0  0  0
    2.6346   29.6574   61.7902 C   0  0  0  0  0
    2.2581   28.7337   59.6670 C   0  0  0  0  0
    2.4940   27.5656   58.6936 C   0  0  0  0  0
    2.9859   26.3092   59.4106 C   0  0  0  0  0
    4.1967   26.6182   60.2959 C   0  0  0  0  0
    4.0722   27.9753   61.0005 C   0  0  0  0  0
    0.0333   29.8865   64.0333 C   0  0  0  0  0
    1.4715   24.2126   62.3065 C   0  0  0  0  0
    0.2844   23.5101   62.1336 C   0  0  0  0  0
   -0.9707   23.8778   62.7320 C   0  0  0  0  0
    0.4336   22.3430   61.3736 C   0  0  0  0  0
    1.7397   22.1119   60.9431 C   0  0  0  0  0
    3.1862   24.4270   64.8410 C   0  0  0  0  0
    2.6916   22.3430   65.8525 C   0  0  0  0  0
    4.7354   23.4141   66.3749 C   0  0  0  0  0
    6.3440   22.3999   67.9390 C   0  0  0  0  0
    4.4035   24.4704   65.5276 C   0  0  0  0  0
    1.6539   25.4186   63.0720 N   0  0  0  0  0
    0.7659   28.9565   63.1936 N   0  0  0  0  0
    2.6791   28.4167   61.0341 N   0  0  0  0  0
   -1.9801   24.1738   63.2142 N   0  0  0  0  0
    2.3549   23.3652   65.0239 N   0  0  0  0  0
    3.8737   22.3701   66.5204 N   0  0  0  0  0
    0.0436   26.5939   61.8361 O   0  0  0  0  0
    3.4754   26.5965   63.9425 O   0  0  0  0  0
    5.9491   23.4444   67.0623 O   0  0  0  0  0
    2.6972   23.3686   61.5301 S   0  0  0  0  0
  1 22  1  0  0  0
  1 17  1  0  0  0
  3  2  1  0  0  0
  3 23  1  0  0  0
  4 23  1  0  0  0
  4  5  1  0  0  0
  5 24  1  0  0  0
  6 24  1  0  0  0
  6  7  1  0  0  0
  7  8  1  0  0  0
  8  9  1  0  0  0
  9 10  1  0  0  0
 10 24  1  0  0  0
 11 23  1  0  0  0
 12 31  1  0  0  0
 13 14  1  0  0  0
 13 15  1  0  0  0
 16 31  1  0  0  0
 18 26  1  0  0  0
 19 27  1  0  0  0
 19 30  1  0  0  0
 20 30  1  0  0  0
 21 17  1  0  0  0
 22  2  1  0  0  0
 22 12  1  0  0  0
  1 29  2  0  0  0
  2 28  2  0  0  0
 12 13  2  0  0  0
 15 16  2  0  0  0
 17 26  2  0  0  0
 18 27  2  0  0  0
 19 21  2  0  0  0
 14 25  3  0  0  0
M  END
> <rmsd>
0.703588665

$$$$
ZFTCIJMPKZRPGA-UHFFFAOYSA-N


 28 31  0  0  0  0  0  0  0  0999 V2000
    2.7994   26.6998   64.3033 C   0  0  0  0  0
    1.8810   27.9311   62.3430 C   0  0  0  0  0
    2.9989   28.0305   61.5451 C   0  0  0  0  0
    4.2556   27.2346   61.6128 C   0  0  0  0  0
    0.3398   26.6632   63.8409 C   0  0  0  0  0
   -1.8989   26.2055   63.2074 C   0  0  0  0  0
   -1.2798   25.9597   65.4775 C   0  0  0  0  0
   -1.6190   25.6123   66.8966 C   0  0  0  0  0
   -2.9009   26.2901   67.3437 C   0  0  0  0  0
   -3.5819   24.9386   67.4408 C   0  0  0  0  0
   -2.3039   24.2613   66.9848 C   0  0  0  0  0
    0.0224   26.3480   65.1684 C   0  0  0  0  0
    3.0217   25.2922   64.7027 C   0  0  0  0  0
    4.8211   25.6720   66.4165 C   0  0  0  0  0
    3.7746   23.5195   65.6308 C   0  0  0  0  0
    2.3553   24.1997   64.1776 C   0  0  0  0  0
    1.6776   27.0645   63.4768 N   0  0  0  0  0
    2.7382   28.9512   60.6028 N   0  0  0  0  0
    0.9640   28.7942   61.8716 N   0  0  0  0  0
   -0.6335   26.5850   62.8914 N   0  0  0  0  0
   -2.2157   25.8948   64.4907 N   0  0  0  0  0
    3.9175   24.8610   65.6125 N   0  0  0  0  0
    4.5278   22.6288   66.4664 N   0  0  0  0  0
    2.8326   23.0836   64.7686 N   0  0  0  0  0
    1.5268   29.3707   60.8457 O   0  0  0  0  0
    3.6130   27.5911   64.6678 O   0  0  0  0  0
    5.4875   23.1023   67.3301 O   0  0  0  0  0
    4.3153   21.4005   66.4113 O   0  0  0  0  0
  1 17  1  0  0  0
  1 13  1  0  0  0
  2  3  1  0  0  0
  4  3  1  0  0  0
  6 20  1  0  0  0
  7 21  1  0  0  0
  8  7  1  0  0  0
  8  9  1  0  0  0
  9 10  1  0  0  0
 10 11  1  0  0  0
 11  8  1  0  0  0
 12  5  1  0  0  0
 13 22  1  0  0  0
 14 22  1  0  0  0
 15 23  1  0  0  0
 16 24  1  0  0  0
 17  2  1  0  0  0
 17  5  1  0  0  0
 18 25  1  0  0  0
 22 15  1  0  0  0
 23 27  1  0  0  0
 25 19  1  0  0  0
  1 26  2  0  0  0
  2 19  2  0  0  0
  3 18  2  0  0  0
  5 20  2  0  0  0
  6 21  2  0  0  0
  7 12  2  0  0  0
 15 24  2  0  0  0
 16 13  2  0  0  0
 23 28  2  0  0  0
M  CHG  2  23   1  27  -1
M  END
> <rmsd>
0.680050671

$$$$
GKJFSWMLZMHOPG-UHFFFAOYSA-N


 29 33  0  0  0  0  0  0  0  0999 V2000
    3.5008   25.4588   64.3624 C   0  0  0  0  0
    1.5143   25.6983   62.8162 C   0  0  0  0  0
    0.6143   27.2929   61.8458 C   0  0  0  0  0
    0.3186   28.6675   61.3408 C   0  0  0  0  0
    1.5977   30.1995   62.7956 C   0  0  0  0  0
    2.7209   30.0476   61.9701 C   0  0  0  0  0
    3.9525   30.5825   62.3570 C   0  0  0  0  0
    4.0549   31.2926   63.5580 C   0  0  0  0  0
    2.9280   31.4655   64.3700 C   0  0  0  0  0
    1.6978   30.9186   63.9895 C   0  0  0  0  0
    1.3029   29.0468   60.2265 C   0  0  0  0  0
    4.3724   24.5595   65.1560 C   0  0  0  0  0
    3.8198   23.4795   65.8784 C   0  0  0  0  0
    4.6666   22.6403   66.6316 C   0  0  0  0  0
    2.7962   21.3704   67.3318 C   0  0  0  0  0
    1.9516   22.2026   66.5953 C   0  0  0  0  0
    6.5630   23.8940   65.9722 C   0  0  0  0  0
    5.7715   24.7593   65.2127 C   0  0  0  0  0
    2.4001   24.9174   63.6215 N   0  0  0  0  0
   -0.0985   26.1987   61.5160 N   0  0  0  0  0
    0.4756   25.1794   62.1375 N   0  0  0  0  0
    4.1342   21.6074   67.3356 N   0  0  0  0  0
    2.4794   23.2369   65.8890 N   0  0  0  0  0
    6.0037   22.8663   66.6603 N   0  0  0  0  0
    1.6109   26.9932   62.6435 O   0  0  0  0  0
    0.3861   29.6129   62.4147 O   0  0  0  0  0
    2.5919   29.3517   60.7658 O   0  0  0  0  0
    3.7215   26.7002   64.3498 O   0  0  0  0  0
    6.6811   26.1308   64.2286 Br  0  0  0  0  0
  1 19  1  0  0  0
  1 12  1  0  0  0
  2 25  1  0  0  0
  3 25  1  0  0  0
  4  3  1  0  0  0
  4 26  1  0  0  0
  5 26  1  0  0  0
  6  7  1  0  0  0
  6 27  1  0  0  0
  8  9  1  0  0  0
 10  5  1  0  0  0
 11 27  1  0  0  0
 11  4  1  0  0  0
 12 13  1  0  0  0
 13 14  1  0  0  0
 14 24  1  0  0  0
 15 22  1  0  0  0
 16 23  1  0  0  0
 17 18  1  0  0  0
 18 29  1  0  0  0
 19  2  1  0  0  0
 20 21  1  0  0  0
  1 28  2  0  0  0
  2 21  2  0  0  0
  3 20  2  0  0  0
  5  6  2  0  0  0
  7  8  2  0  0  0
  9 10  2  0  0  0
 13 23  2  0  0  0
 14 22  2  0  0  0
 15 16  2  0  0  0
 17 24  2  0  0  0
 18 12  2  0  0  0
M  END
> <rmsd>
0.624758482

$$$$
HPXZIAGLLHQCKI-UHFFFAOYSA-N


 34 36  0  0  0  0  0  0  0  0999 V2000
    2.2950   25.2861   63.0143 C   0  0  0  0  0
    0.4866   27.0013   62.8963 C   0  0  0  0  0
    0.0196   28.4052   63.1602 C   0  0  0  0  0
    0.3667   29.0881   60.8854 C   0  0  0  0  0
    1.5234   28.3670   60.2084 C   0  0  0  0  0
    3.6587   28.3274   60.7672 C   0  0  0  0  0
    4.4470   29.0763   61.8210 C   0  0  0  0  0
    0.1251   30.6940   62.5339 C   0  0  0  0  0
    0.3014   28.7045   64.6373 C   0  0  0  0  0
    1.7927   28.6120   64.9627 C   0  0  0  0  0
    2.4254   27.3679   64.4082 C   0  0  0  0  0
    2.9269   24.3381   63.9631 C   0  0  0  0  0
    2.3212   24.1006   65.3174 C   0  0  0  0  0
    0.9880   24.6795   65.6513 C   0  0  0  0  0
    5.9694   22.1422   63.7632 C   0  0  0  0  0
    5.5861   21.1322   62.7351 C   0  0  0  0  0
    5.5506   21.4891   61.3830 C   0  0  0  0  0
    5.1669   20.5502   60.4207 C   0  0  0  0  0
    4.8144   19.2546   60.8099 C   0  0  0  0  0
    4.8420   18.8989   62.1618 C   0  0  0  0  0
    5.2253   19.8378   63.1243 C   0  0  0  0  0
    4.0322   23.7081   63.5315 C   0  0  0  0  0
    1.7263   26.5326   63.4604 N   0  0  0  0  0
    0.6924   29.3767   62.2794 N   0  0  0  0  0
    2.8823   23.3573   66.2224 N   0  0  0  0  0
    4.7841   22.7807   64.3153 N   0  0  0  0  0
   -0.2212   26.2434   62.1804 O   0  0  0  0  0
    2.6710   29.1607   60.2421 O   0  0  0  0  0
    3.6041   27.0902   64.7563 O   0  0  0  0  0
    2.2737   25.0035   61.7848 O   0  0  0  0  0
    5.4456   23.1763   66.8423 O   0  0  0  0  0
    4.2410   21.0958   66.2728 O   0  0  0  0  0
    4.3875   22.5606   65.9717 S   0  0  0  0  0
    4.4452   18.3448   59.8771 F   0  0  0  0  0
  1 23  1  0  0  0
  1 12  1  0  0  0
  3  2  1  0  0  0
  3 24  1  0  0  0
  3  9  1  0  0  0
  4 24  1  0  0  0
  4  5  1  0  0  0
  5 28  1  0  0  0
  6 28  1  0  0  0
  6  7  1  0  0  0
  8 24  1  0  0  0
  9 10  1  0  0  0
 10 11  1  0  0  0
 11 23  1  0  0  0
 12 13  1  0  0  0
 14 13  1  0  0  0
 15 26  1  0  0  0
 15 16  1  0  0  0
 17 18  1  0  0  0
 19 34  1  0  0  0
 19 20  1  0  0  0
 21 16  1  0  0  0
 23  2  1  0  0  0
 26 22  1  0  0  0
 33 25  1  0  0  0
 33 26  1  0  0  0
  1 30  2  0  0  0
  2 27  2  0  0  0
 11 29  2  0  0  0
 13 25  2  0  0  0
 16 17  2  0  0  0
 18 19  2  0  0  0
 20 21  2  0  0  0
 22 12  2  0  0  0
 33 31  2  0  0  0
 33 32  2  0  0  0
M  END
> <rmsd>
0.508321524

$$$$
JZOVBGWBHZYHFU-UHFFFAOYSA-N


 36 41  0  0  0  0  0  0  0  0999 V2000
    0.8523   26.6603   62.5323 C   0  0  0  0  0
    2.4932   25.6850   64.1275 C   0  0  0  0  0
    3.4415   24.5607   63.8979 C   0  0  0  0  0
    4.0519   22.3949   64.5933 C   0  0  0  0  0
    4.6929   22.4344   65.9380 C   0  0  0  0  0
    5.0471   22.3131   67.9827 C   0  0  0  0  0
    4.8793   22.1043   69.4449 C   0  0  0  0  0
    1.8440   22.7366   63.7848 C   0  0  0  0  0
    2.0743   22.5070   62.3076 C   0  0  0  0  0
    2.3079   21.2021   61.8589 C   0  0  0  0  0
    2.5051   20.9480   60.4983 C   0  0  0  0  0
    2.4634   21.9986   59.5775 C   0  0  0  0  0
    2.2222   23.3032   60.0167 C   0  0  0  0  0
    2.0252   23.5561   61.3767 C   0  0  0  0  0
    0.5100   23.3346   64.1277 C   0  0  0  0  0
    0.2097   24.7135   63.9822 C   0  0  0  0  0
   -1.0778   25.1645   64.3168 C   0  0  0  0  0
   -2.0518   24.2779   64.7777 C   0  0  0  0  0
   -1.7512   22.9237   64.9141 C   0  0  0  0  0
   -0.4773   22.4567   64.5895 C   0  0  0  0  0
   -2.7870   21.9776   65.4036 C   0  0  0  0  0
    1.8451   27.7171   62.1328 C   0  0  0  0  0
    2.6414   29.9297   62.4123 C   0  0  0  0  0
    2.9766   29.9709   60.9017 C   0  0  0  0  0
    0.6615   29.6730   60.4015 C   0  0  0  0  0
    0.3432   29.5981   61.9112 C   0  0  0  0  0
    2.0753   27.7701   60.6068 C   0  0  0  0  0
    1.1910   25.6690   63.5263 N   0  0  0  0  0
    2.9510   23.3464   64.5395 N   0  0  0  0  0
    6.2014   22.7119   67.4162 N   0  0  0  0  0
    4.0594   22.1229   67.0849 N   0  0  0  0  0
    1.4898   29.0490   62.6593 N   0  0  0  0  0
    2.0140   29.1622   60.1328 N   0  0  0  0  0
    2.8539   26.6675   64.8275 O   0  0  0  0  0
    5.9400   22.7747   66.1464 O   0  0  0  0  0
   -0.2759   26.6335   61.9677 O   0  0  0  0  0
  1 28  1  0  0  0
  3  2  1  0  0  0
  3 29  1  0  0  0
  4 29  1  0  0  0
  4  5  1  0  0  0
  5 35  1  0  0  0
  6 31  1  0  0  0
  7  6  1  0  0  0
  8 29  1  0  0  0
  8  9  1  0  0  0
  8 15  1  0  0  0
 10 11  1  0  0  0
 12 13  1  0  0  0
 14  9  1  0  0  0
 15 16  1  0  0  0
 16 28  1  0  0  0
 17 18  1  0  0  0
 19 20  1  0  0  0
 21 19  1  0  0  0
 22  1  1  0  0  0
 22 32  1  0  0  0
 23 32  1  0  0  0
 23 24  1  0  0  0
 24 33  1  0  0  0
 25 33  1  0  0  0
 25 26  1  0  0  0
 26 32  1  0  0  0
 27 33  1  0  0  0
 27 22  1  0  0  0
 28  2  1  0  0  0
 35 30  1  0  0  0
  1 36  2  0  0  0
  2 34  2  0  0  0
  5 31  2  0  0  0
  6 30  2  0  0  0
  9 10  2  0  0  0
 11 12  2  0  0  0
 13 14  2  0  0  0
 16 17  2  0  0  0
 18 19  2  0  0  0
 20 15  2  0  0  0
M  END
> <rmsd>
0.741066754

$$$$
QGQSOGVQRJPUCU-UHFFFAOYSA-N


 32 35  0  0  0  0  0  0  0  0999 V2000
    2.0441   28.2338   60.8257 C   0  0  0  0  0
    1.8810   28.6668   63.2936 C   0  0  0  0  0
    2.3974   28.4623   64.6941 C   0  0  0  0  0
    1.4856   26.2515   64.7993 C   0  0  0  0  0
    1.7721   24.7535   64.9699 C   0  0  0  0  0
    3.1259   24.4928   65.6338 C   0  0  0  0  0
    4.3792   22.5258   66.4608 C   0  0  0  0  0
    6.7345   22.5717   66.6960 C   0  0  0  0  0
    6.7211   21.2670   67.1860 C   0  0  0  0  0
    5.4942   20.6155   67.2987 C   0  0  0  0  0
    3.3750   25.4702   66.7883 C   0  0  0  0  0
    3.0789   26.9265   66.3945 C   0  0  0  0  0
    3.5915   29.3973   64.9517 C   0  0  0  0  0
    4.8997   28.9092   64.3304 C   0  0  0  0  0
    4.8743   28.9683   62.8109 C   0  0  0  0  0
    4.0292   27.8333   62.2549 C   0  0  0  0  0
    0.7072   27.6537   60.5856 C   0  0  0  0  0
   -1.7758   26.5085   60.1756 C   0  0  0  0  0
   -3.8151   26.0572   58.7603 C   0  0  0  0  0
   -3.6641   25.1099   61.0607 C   0  0  0  0  0
   -1.1926   27.2709   59.1581 C   0  0  0  0  0
    0.0585   27.8450   59.3639 C   0  0  0  0  0
    2.6304   28.2363   62.1376 N   0  0  0  0  0
    2.7035   27.0501   64.9798 N   0  0  0  0  0
    5.5704   23.1762   66.3431 N   0  0  0  0  0
    4.3503   21.2526   66.9357 N   0  0  0  0  0
    0.1031   26.8965   61.5411 N   0  0  0  0  0
   -1.0964   26.3458   61.3444 N   0  0  0  0  0
   -3.0665   25.9018   59.9982 N   0  0  0  0  0
    0.7818   29.2661   63.1477 O   0  0  0  0  0
    3.1829   23.1483   66.0947 O   0  0  0  0  0
    2.7020   28.6984   59.8547 O   0  0  0  0  0
  1 23  1  0  0  0
  1 17  1  0  0  0
  3  2  1  0  0  0
  3 24  1  0  0  0
  3 13  1  0  0  0
  4 24  1  0  0  0
  4  5  1  0  0  0
  5  6  1  0  0  0
  6 31  1  0  0  0
  6 11  1  0  0  0
  7 31  1  0  0  0
  7 26  1  0  0  0
  8 25  1  0  0  0
  9 10  1  0  0  0
 11 12  1  0  0  0
 12 24  1  0  0  0
 13 14  1  0  0  0
 14 15  1  0  0  0
 15 16  1  0  0  0
 16 23  1  0  0  0
 18 29  1  0  0  0
 18 21  1  0  0  0
 19 29  1  0  0  0
 20 29  1  0  0  0
 22 17  1  0  0  0
 23  2  1  0  0  0
 27 28  1  0  0  0
  1 32  2  0  0  0
  2 30  2  0  0  0
  7 25  2  0  0  0
  8  9  2  0  0  0
 10 26  2  0  0  0
 17 27  2  0  0  0
 18 28  2  0  0  0
 21 22  2  0  0  0
M  END
> <rmsd>
0.785656571

$$$$
FEHXIOHQGZPSRL-UHFFFAOYSA-N


 29 32  0  0  0  0  0  0  0  0999 V2000
    4.5505   22.3328   66.6501 C   0  0  0  0  0
    4.9236   24.7523   65.8032 C   0  0  0  0  0
    4.0013   25.6455   65.0364 C   0  0  0  0  0
    1.6250   25.4826   63.9527 C   0  0  0  0  0
    2.1303   25.8295   62.5697 C   0  0  0  0  0
    1.0681   27.7129   60.0543 C   0  0  0  0  0
    2.1563   28.5014   59.6369 C   0  0  0  0  0
    3.9413   30.1171   60.2196 C   0  0  0  0  0
    2.5482   28.4732   58.2877 C   0  0  0  0  0
    1.8676   27.6720   57.3682 C   0  0  0  0  0
    0.7892   26.8912   57.7877 C   0  0  0  0  0
    0.3917   26.9118   59.1262 C   0  0  0  0  0
    1.3713   26.9684   64.0850 C   0  0  0  0  0
    2.8429   23.7678   65.4065 C   0  0  0  0  0
    5.8567   22.2269   67.3371 C   0  0  0  0  0
    7.8291   22.9890   68.1551 C   0  0  0  0  0
    6.3086   21.0250   67.8825 C   0  0  0  0  0
    4.1161   23.5508   66.0153 N   0  0  0  0  0
    2.7233   25.0493   64.8184 N   0  0  0  0  0
    1.8841   27.2559   62.7501 N   0  0  0  0  0
    6.6921   23.2918   67.4935 N   0  0  0  0  0
    4.3198   26.7896   64.6183 O   0  0  0  0  0
   -0.5985   26.7509   61.9097 O   0  0  0  0  0
    0.0833   29.0930   62.1059 O   0  0  0  0  0
    2.8319   29.2999   60.5671 O   0  0  0  0  0
    1.9206   22.9092   65.3833 O   0  0  0  0  0
    3.7977   21.3211   66.6255 O   0  0  0  0  0
    0.5473   27.7123   61.7359 S   0  0  0  0  0
    7.8066   21.3636   68.5634 S   0  0  0  0  0
  1 18  1  0  0  0
  1 15  1  0  0  0
  2 18  1  0  0  0
  2  3  1  0  0  0
  3 19  1  0  0  0
  4 19  1  0  0  0
  4  5  1  0  0  0
  5 20  1  0  0  0
  7 25  1  0  0  0
  7  9  1  0  0  0
  8 25  1  0  0  0
 10 11  1  0  0  0
 12  6  1  0  0  0
 13 20  1  0  0  0
 13  4  1  0  0  0
 14 18  1  0  0  0
 15 21  1  0  0  0
 16 29  1  0  0  0
 17 29  1  0  0  0
 19 14  1  0  0  0
 28 20  1  0  0  0
 28  6  1  0  0  0
  1 27  2  0  0  0
  3 22  2  0  0  0
  6  7  2  0  0  0
  9 10  2  0  0  0
 11 12  2  0  0  0
 14 26  2  0  0  0
 16 21  2  0  0  0
 17 15  2  0  0  0
 28 23  2  0  0  0
 28 24  2  0  0  0
M  END
> <rmsd>
0.650136948

$$$$
LRPFKTISDBKWHK-UHFFFAOYSA-N


 32 34  0  0  0  0  0  0  0  0999 V2000
    2.4184   25.4441   63.0421 C   0  0  0  0  0
    0.5491   27.0970   62.9407 C   0  0  0  0  0
   -0.0225   28.4347   63.3235 C   0  0  0  0  0
    0.3679   29.3641   61.1555 C   0  0  0  0  0
    1.6234   29.0618   60.4625 C   0  0  0  0  0
   -0.0423   30.7792   62.9390 C   0  0  0  0  0
    0.1627   28.5966   64.8369 C   0  0  0  0  0
    1.6374   28.5541   65.2382 C   0  0  0  0  0
    2.3679   27.4025   64.6093 C   0  0  0  0  0
    3.0252   24.4466   63.9558 C   0  0  0  0  0
    2.3404   24.0789   65.2417 C   0  0  0  0  0
    0.9599   24.5700   65.5194 C   0  0  0  0  0
    6.1665   22.3913   63.8057 C   0  0  0  0  0
    5.8890   21.4284   62.7016 C   0  0  0  0  0
    5.9339   21.8581   61.3707 C   0  0  0  0  0
    5.6487   20.9618   60.3361 C   0  0  0  0  0
    5.3142   19.6365   60.6315 C   0  0  0  0  0
    5.2621   19.2080   61.9614 C   0  0  0  0  0
    5.5471   20.1039   62.9963 C   0  0  0  0  0
    4.1844   23.8969   63.5571 C   0  0  0  0  0
    1.7709   26.6298   63.5451 N   0  0  0  0  0
    0.6219   29.5328   62.5814 N   0  0  0  0  0
    2.6148   28.8216   59.9163 N   0  0  0  0  0
    2.8749   23.2953   66.1286 N   0  0  0  0  0
    4.9233   22.9432   64.3217 N   0  0  0  0  0
   -0.0571   26.3929   62.0886 O   0  0  0  0  0
    3.5384   27.1505   65.0020 O   0  0  0  0  0
    2.4899   25.2604   61.7954 O   0  0  0  0  0
    4.3424   21.1026   66.1220 O   0  0  0  0  0
    5.3985   23.1926   66.9092 O   0  0  0  0  0
    4.4323   22.5899   65.9293 S   0  0  0  0  0
    5.0381   18.7685   59.6290 F   0  0  0  0  0
  1 21  1  0  0  0
  1 10  1  0  0  0
  3  2  1  0  0  0
  3 22  1  0  0  0
  3  7  1  0  0  0
  4 22  1  0  0  0
  4  5  1  0  0  0
  6 22  1  0  0  0
  7  8  1  0  0  0
  8  9  1  0  0  0
  9 21  1  0  0  0
 10 11  1  0  0  0
 12 11  1  0  0  0
 13 25  1  0  0  0
 13 14  1  0  0  0
 15 16  1  0  0  0
 17 32  1  0  0  0
 17 18  1  0  0  0
 19 14  1  0  0  0
 21  2  1  0  0  0
 25 20  1  0  0  0
 31 24  1  0  0  0
 31 25  1  0  0  0
  1 28  2  0  0  0
  2 26  2  0  0  0
  9 27  2  0  0  0
 11 24  2  0  0  0
 14 15  2  0  0  0
 16 17  2  0  0  0
 18 19  2  0  0  0
 20 10  2  0  0  0
 31 29  2  0  0  0
 31 30  2  0  0  0
  5 23  3  0  0  0
M  END
> <rmsd>
0.564321697

$$$$
LRPFKTISDBKWHK-UHFFFAOYSA-N


 32 34  0  0  0  0  0  0  0  0999 V2000
    2.4276   25.4691   63.0664 C   0  0  0  0  0
    0.5476   27.1092   62.9528 C   0  0  0  0  0
   -0.0292   28.4493   63.3194 C   0  0  0  0  0
    0.3481   29.3493   61.1367 C   0  0  0  0  0
    1.6027   29.0433   60.4437 C   0  0  0  0  0
   -0.0640   30.7876   62.9010 C   0  0  0  0  0
    0.1628   28.6334   64.8295 C   0  0  0  0  0
    1.6397   28.6046   65.2236 C   0  0  0  0  0
    2.3742   27.4494   64.6060 C   0  0  0  0  0
    3.0557   24.4948   63.9901 C   0  0  0  0  0
    2.3738   24.1189   65.2747 C   0  0  0  0  0
    0.9970   24.6147   65.5622 C   0  0  0  0  0
    6.2353   22.4962   63.8494 C   0  0  0  0  0
    7.2933   23.5438   63.7591 C   0  0  0  0  0
    8.0505   23.8743   64.8885 C   0  0  0  0  0
    9.0239   24.8749   64.8101 C   0  0  0  0  0
    9.2380   25.5489   63.6038 C   0  0  0  0  0
    8.4773   25.2242   62.4763 C   0  0  0  0  0
    7.5038   24.2236   62.5544 C   0  0  0  0  0
    4.2329   23.9781   63.6018 C   0  0  0  0  0
    1.7758   26.6579   63.5564 N   0  0  0  0  0
    0.6061   29.5402   62.5590 N   0  0  0  0  0
    2.5935   28.8001   59.8977 N   0  0  0  0  0
    2.9044   23.3201   66.1502 N   0  0  0  0  0
    5.0032   23.0606   64.3798 N   0  0  0  0  0
   -0.0601   26.3894   62.1150 O   0  0  0  0  0
    3.5489   27.2111   64.9945 O   0  0  0  0  0
    2.4867   25.2637   61.8225 O   0  0  0  0  0
    5.4016   23.1245   66.9901 O   0  0  0  0  0
    4.3415   21.1101   66.0309 O   0  0  0  0  0
    4.4569   22.6055   65.9435 S   0  0  0  0  0
   10.1809   26.5182   63.5280 F   0  0  0  0  0
  1 21  1  0  0  0
  1 10  1  0  0  0
  3  2  1  0  0  0
  3 22  1  0  0  0
  3  7  1  0  0  0
  4 22  1  0  0  0
  4  5  1  0  0  0
  6 22  1  0  0  0
  7  8  1  0  0  0
  8  9  1  0  0  0
  9 21  1  0  0  0
 10 11  1  0  0  0
 12 11  1  0  0  0
 13 25  1  0  0  0
 13 14  1  0  0  0
 15 16  1  0  0  0
 17 32  1  0  0  0
 17 18  1  0  0  0
 19 14  1  0  0  0
 21  2  1  0  0  0
 25 20  1  0  0  0
 31 24  1  0  0  0
 31 25  1  0  0  0
  1 28  2  0  0  0
  2 26  2  0  0  0
  9 27  2  0  0  0
 11 24  2  0  0  0
 14 15  2  0  0  0
 16 17  2  0  0  0
 18 19  2  0  0  0
 20 10  2  0  0  0
 31 29  2  0  0  0
 31 30  2  0  0  0
  5 23  3  0  0  0
M  END
> <rmsd>
0.589543104

$$$$
NKISYWOPXYRANE-UHFFFAOYSA-N


 34 37  0  0  0  0  0  0  0  0999 V2000
    5.1102   22.9038   66.9476 C   0  0  0  0  0
    4.9656   25.0449   65.5575 C   0  0  0  0  0
    3.7901   25.6760   64.8798 C   0  0  0  0  0
    1.2584   25.3430   64.7568 C   0  0  0  0  0
    0.4710   24.3751   63.8792 C   0  0  0  0  0
    1.0706   24.3014   62.4653 C   0  0  0  0  0
    0.4863   25.3464   61.5069 C   0  0  0  0  0
   -0.5152   27.4599   61.2833 C   0  0  0  0  0
    0.5561   28.4818   61.1085 C   0  0  0  0  0
    1.9513   29.9878   61.4470 C   0  0  0  0  0
    2.7946   31.0247   62.1120 C   0  0  0  0  0
    2.6343   32.3643   61.4197 C   0  0  0  0  0
    4.2522   30.6079   62.0962 C   0  0  0  0  0
   -1.2973   25.9774   62.9242 C   0  0  0  0  0
   -1.0077   24.7803   63.8499 C   0  0  0  0  0
    3.0228   23.7586   65.7327 C   0  0  0  0  0
    4.8123   21.4599   66.9925 C   0  0  0  0  0
    5.3390   20.6390   68.0920 C   0  0  0  0  0
    5.1083   19.3321   68.1685 C   0  0  0  0  0
    5.6351   18.5179   69.2669 C   0  0  0  0  0
    6.7371   17.5634   71.3159 C   0  0  0  0  0
    6.0474   16.6279   70.5475 C   0  0  0  0  0
    5.4310   17.1561   69.4036 C   0  0  0  0  0
    4.4127   23.7873   66.0573 N   0  0  0  0  0
    2.6222   24.8709   64.9532 N   0  0  0  0  0
   -0.0918   26.4620   62.2514 N   0  0  0  0  0
    2.0537   29.6505   60.1452 N   0  0  0  0  0
    1.0135   29.2711   62.0991 N   0  0  0  0  0
    3.8165   26.8064   64.3259 O   0  0  0  0  0
    1.1703   28.7148   59.9761 O   0  0  0  0  0
    2.2154   22.8966   66.1719 O   0  0  0  0  0
    6.0250   23.3668   67.6816 O   0  0  0  0  0
    4.1352   20.9244   66.0732 O   0  0  0  0  0
    6.5702   19.0541   70.5544 S   0  0  0  0  0
  1 24  1  0  0  0
  1 17  1  0  0  0
  2 24  1  0  0  0
  2  3  1  0  0  0
  3 25  1  0  0  0
  4 25  1  0  0  0
  4  5  1  0  0  0
  5  6  1  0  0  0
  6  7  1  0  0  0
  7 26  1  0  0  0
  8 26  1  0  0  0
  8  9  1  0  0  0
  9 30  1  0  0  0
 10 28  1  0  0  0
 11 10  1  0  0  0
 11 12  1  0  0  0
 11 13  1  0  0  0
 14 26  1  0  0  0
 14 15  1  0  0  0
 15  5  1  0  0  0
 16 24  1  0  0  0
 17 18  1  0  0  0
 19 20  1  0  0  0
 20 34  1  0  0  0
 21 34  1  0  0  0
 22 23  1  0  0  0
 25 16  1  0  0  0
 30 27  1  0  0  0
  1 32  2  0  0  0
  3 29  2  0  0  0
  9 28  2  0  0  0
 10 27  2  0  0  0
 16 31  2  0  0  0
 17 33  2  0  0  0
 18 19  2  0  0  0
 21 22  2  0  0  0
 23 20  2  0  0  0
M  END
> <rmsd>
0.681312501

$$$$
