SBAXOAHYJXZAAQ-UHFFFAOYSA-N


 34 36  0  0  0  0  0  0  0  0999 V2000
    4.8867   23.6393   66.4729 C   0  0  0  0  0
    5.2507   26.0537   65.8707 C   0  0  0  0  0
    4.7250   27.4470   65.7399 C   0  0  0  0  0
    2.4936   27.3637   65.6653 C   0  0  0  0  0
    1.3233   28.0399   64.9674 C   0  0  0  0  0
    1.1385   28.1417   62.5089 C   0  0  0  0  0
    0.9122   27.4468   61.2114 C   0  0  0  0  0
    1.3707   28.0175   59.9966 C   0  0  0  0  0
    2.5437   29.8632   58.8242 C   0  0  0  0  0
    1.1498   27.3452   58.7846 C   0  0  0  0  0
    0.4890   26.1217   58.7584 C   0  0  0  0  0
    0.0383   25.5532   59.9451 C   0  0  0  0  0
    0.2393   26.1996   61.1744 C   0  0  0  0  0
   -0.9152   24.3700   62.3896 C   0  0  0  0  0
    2.1528   25.9058   65.9710 C   0  0  0  0  0
    3.1214   25.3320   66.9997 C   0  0  0  0  0
    3.9607   22.4924   66.3664 C   0  0  0  0  0
    4.4297   21.1087   66.6814 C   0  0  0  0  0
    4.1930   20.7913   68.1189 C   0  0  0  0  0
    5.1768   21.0801   69.0717 C   0  0  0  0  0
    4.9465   20.8020   70.4223 C   0  0  0  0  0
    3.7312   20.2381   70.8225 C   0  0  0  0  0
    2.7451   19.9541   69.8728 C   0  0  0  0  0
    2.9748   20.2321   68.5220 C   0  0  0  0  0
    4.4136   24.9997   66.3944 N   0  0  0  0  0
    6.4189   25.8102   65.4663 O   0  0  0  0  0
    3.6377   27.4475   64.8592 O   0  0  0  0  0
    1.0741   27.4280   63.7078 O   0  0  0  0  0
    1.3931   29.3775   62.5346 O   0  0  0  0  0
    2.0544   29.2405   60.0047 O   0  0  0  0  0
   -0.2370   25.6188   62.3570 O   0  0  0  0  0
    6.1163   23.4128   66.6390 O   0  0  0  0  0
    2.7641   22.6643   66.0129 O   0  0  0  0  0
    3.4433   19.8902   72.5133 Cl  0  0  0  0  0
  1 25  1  0  0  0
  1 17  1  0  0  0
  3  2  1  0  0  0
  3 27  1  0  0  0
  4 27  1  0  0  0
  4  5  1  0  0  0
  4 15  1  0  0  0
  5 28  1  0  0  0
  6 28  1  0  0  0
  6  7  1  0  0  0
  8 30  1  0  0  0
  8 10  1  0  0  0
  9 30  1  0  0  0
 11 12  1  0  0  0
 13 31  1  0  0  0
 13  7  1  0  0  0
 14 31  1  0  0  0
 15 16  1  0  0  0
 16 25  1  0  0  0
 18 17  1  0  0  0
 18 19  1  0  0  0
 20 21  1  0  0  0
 22 34  1  0  0  0
 22 23  1  0  0  0
 24 19  1  0  0  0
 25  2  1  0  0  0
  1 32  2  0  0  0
  2 26  2  0  0  0
  6 29  2  0  0  0
  7  8  2  0  0  0
 10 11  2  0  0  0
 12 13  2  0  0  0
 17 33  2  0  0  0
 19 20  2  0  0  0
 21 22  2  0  0  0
 23 24  2  0  0  0
M  END
> <rmsd>
0.719137669

$$$$
