FMKHIRGGIIRQEQ-UHFFFAOYSA-N


 36 39  0  0  0  0  0  0  0  0999 V2000
    5.9982   25.0524   64.6751 C   0  0  0  0  0
    4.0871   26.2627   63.5106 C   0  0  0  0  0
    3.2719   26.3281   62.4458 C   0  0  0  0  0
    3.3970   25.3431   61.3874 C   0  0  0  0  0
    2.2120   27.4154   62.3257 C   0  0  0  0  0
    0.8940   26.7656   62.2124 C   0  0  0  0  0
    2.4710   28.1818   61.0935 C   0  0  0  0  0
    2.1802   28.3824   63.5088 C   0  0  0  0  0
    3.0401   28.2318   64.5377 C   0  0  0  0  0
    2.9949   29.1345   65.7395 C   0  0  0  0  0
    2.5684   30.5444   65.3539 C   0  0  0  0  0
    1.2090   30.5039   64.6694 C   0  0  0  0  0
    1.2085   29.5179   63.5389 C   0  0  0  0  0
    6.8091   23.8008   64.7454 C   0  0  0  0  0
    6.0629   22.6697   65.4605 C   0  0  0  0  0
    4.5503   21.9114   63.4782 C   0  0  0  0  0
    5.6369   21.6329   62.6369 C   0  0  0  0  0
    5.4254   21.2014   61.3248 C   0  0  0  0  0
    4.1199   21.0420   60.8350 C   0  0  0  0  0
    4.9138   20.3306   58.6021 C   0  0  0  0  0
    3.0352   21.3184   61.6719 C   0  0  0  0  0
    3.2481   21.7527   62.9828 C   0  0  0  0  0
    3.8366   22.6714   65.8115 C   0  0  0  0  0
    3.8816   24.0513   67.8811 C   0  0  0  0  0
    5.0651   25.2183   63.6038 N   0  0  0  0  0
    3.4957   24.5590   60.5421 N   0  0  0  0  0
   -0.1406   26.2545   62.1248 N   0  0  0  0  0
    2.6735   28.7826   60.1254 N   0  0  0  0  0
    4.7763   22.3770   64.8206 N   0  0  0  0  0
    4.4842   23.0829   66.9820 N   0  0  0  0  0
    0.3626   29.6625   62.6170 O   0  0  0  0  0
    3.9764   27.1982   64.5415 O   0  0  0  0  0
    6.1156   25.9231   65.5778 O   0  0  0  0  0
    3.8736   20.6157   59.5274 O   0  0  0  0  0
    2.5854   22.6408   65.6583 O   0  0  0  0  0
    5.8389   23.0119   66.8352 O   0  0  0  0  0
  1 25  1  0  0  0
  2 32  1  0  0  0
  3  4  1  0  0  0
  5  3  1  0  0  0
  5  6  1  0  0  0
  5  7  1  0  0  0
  5  8  1  0  0  0
  9 32  1  0  0  0
 10  9  1  0  0  0
 10 11  1  0  0  0
 11 12  1  0  0  0
 12 13  1  0  0  0
 13  8  1  0  0  0
 14  1  1  0  0  0
 14 15  1  0  0  0
 15 29  1  0  0  0
 15 36  1  0  0  0
 17 18  1  0  0  0
 19 34  1  0  0  0
 19 21  1  0  0  0
 20 34  1  0  0  0
 22 16  1  0  0  0
 23 30  1  0  0  0
 24 30  1  0  0  0
 25  2  1  0  0  0
 29 16  1  0  0  0
 29 23  1  0  0  0
 30 36  1  0  0  0
  1 33  2  0  0  0
  2  3  2  0  0  0
  8  9  2  0  0  0
 13 31  2  0  0  0
 16 17  2  0  0  0
 18 19  2  0  0  0
 21 22  2  0  0  0
 23 35  2  0  0  0
  4 26  3  0  0  0
  6 27  3  0  0  0
  7 28  3  0  0  0
M  END
> <rmsd>
0.527197182

$$$$
SBAXOAHYJXZAAQ-UHFFFAOYSA-N


 34 36  0  0  0  0  0  0  0  0999 V2000
    4.5866   23.5069   66.4252 C   0  0  0  0  0
    5.0426   25.9263   65.9125 C   0  0  0  0  0
    4.5610   27.3368   65.7989 C   0  0  0  0  0
    2.3341   27.3182   65.6188 C   0  0  0  0  0
    1.2163   28.0464   64.8878 C   0  0  0  0  0
    1.1502   28.2231   62.4275 C   0  0  0  0  0
    0.9668   27.5719   61.1009 C   0  0  0  0  0
    1.4969   28.1639   59.9261 C   0  0  0  0  0
    2.7725   30.0085   58.8645 C   0  0  0  0  0
    1.3154   27.5327   58.6858 C   0  0  0  0  0
    0.6243   26.3294   58.5927 C   0  0  0  0  0
    0.1032   25.7403   59.7399 C   0  0  0  0  0
    0.2634   26.3457   60.9958 C   0  0  0  0  0
   -0.9954   24.5153   62.1015 C   0  0  0  0  0
    1.9406   25.8623   65.8649 C   0  0  0  0  0
    2.8441   25.2327   66.9199 C   0  0  0  0  0
    3.6364   22.3897   66.2420 C   0  0  0  0  0
    4.0531   20.9851   66.5372 C   0  0  0  0  0
    3.7407   20.6338   67.9522 C   0  0  0  0  0
    4.6859   20.8678   68.9576 C   0  0  0  0  0
    4.3850   20.5580   70.2873 C   0  0  0  0  0
    3.1376   20.0172   70.6140 C   0  0  0  0  0
    2.1901   19.7879   69.6117 C   0  0  0  0  0
    2.4904   20.0976   68.2817 C   0  0  0  0  0
    4.1541   24.8816   66.3653 N   0  0  0  0  0
    6.2217   25.6618   65.5554 O   0  0  0  0  0
    3.5167   27.3928   64.8693 O   0  0  0  0  0
    1.0105   27.4777   63.6005 O   0  0  0  0  0
    1.4361   29.4501   62.5016 O   0  0  0  0  0
    2.2118   29.3666   60.0020 O   0  0  0  0  0
   -0.2833   25.7450   62.1374 O   0  0  0  0  0
    5.8006   23.2414   66.6412 O   0  0  0  0  0
    2.4628   22.6050   65.8388 O   0  0  0  0  0
    2.7613   19.6296   72.2785 Cl  0  0  0  0  0
  1 25  1  0  0  0
  1 17  1  0  0  0
  3  2  1  0  0  0
  3 27  1  0  0  0
  4 27  1  0  0  0
  4  5  1  0  0  0
  4 15  1  0  0  0
  5 28  1  0  0  0
  6 28  1  0  0  0
  6  7  1  0  0  0
  8 30  1  0  0  0
  8 10  1  0  0  0
  9 30  1  0  0  0
 11 12  1  0  0  0
 13 31  1  0  0  0
 13  7  1  0  0  0
 14 31  1  0  0  0
 15 16  1  0  0  0
 16 25  1  0  0  0
 18 17  1  0  0  0
 18 19  1  0  0  0
 20 21  1  0  0  0
 22 34  1  0  0  0
 22 23  1  0  0  0
 24 19  1  0  0  0
 25  2  1  0  0  0
  1 32  2  0  0  0
  2 26  2  0  0  0
  6 29  2  0  0  0
  7  8  2  0  0  0
 10 11  2  0  0  0
 12 13  2  0  0  0
 17 33  2  0  0  0
 19 20  2  0  0  0
 21 22  2  0  0  0
 23 24  2  0  0  0
M  END
> <rmsd>
0.654793978

$$$$
HZJABEUTGLWCMX-UHFFFAOYSA-N


 36 40  0  0  0  0  0  0  0  0999 V2000
    4.6999   26.2266   63.6011 C   0  0  0  0  0
    6.1190   24.9092   65.1639 C   0  0  0  0  0
    6.5048   23.5636   65.6940 C   0  0  0  0  0
    4.5101   22.4642   66.3231 C   0  0  0  0  0
    3.3365   23.3682   66.1329 C   0  0  0  0  0
    1.8034   24.4865   65.2708 C   0  0  0  0  0
    0.9010   25.1141   64.2938 C   0  0  0  0  0
    1.0329   24.8352   62.9280 C   0  0  0  0  0
    0.1733   25.4501   62.0146 C   0  0  0  0  0
   -0.9293   26.6025   63.7734 C   0  0  0  0  0
   -0.0884   26.0091   64.7178 C   0  0  0  0  0
    4.1912   21.3832   67.3281 C   0  0  0  0  0
    5.4878   21.1415   68.0581 C   0  0  0  0  0
    6.4116   22.2708   67.6438 C   0  0  0  0  0
    5.8502   24.1087   62.7900 C   0  0  0  0  0
    5.2033   22.7546   63.0406 C   0  0  0  0  0
    4.5990   23.6910   62.0270 C   0  0  0  0  0
    4.6636   26.8915   62.2795 C   0  0  0  0  0
    5.7203   26.7629   61.3678 C   0  0  0  0  0
    5.6704   27.4143   60.1333 C   0  0  0  0  0
    4.5669   28.2053   59.8042 C   0  0  0  0  0
    3.5075   28.3557   60.7046 C   0  0  0  0  0
    1.2777   29.4183   61.1021 C   0  0  0  0  0
    0.2136   30.2932   60.5468 C   0  0  0  0  0
    3.5680   27.6979   61.9425 C   0  0  0  0  0
    5.5153   25.0600   63.8616 N   0  0  0  0  0
    5.6566   23.2120   66.8269 N   0  0  0  0  0
    1.7987   24.7714   66.5887 N   0  0  0  0  0
   -0.7831   26.3133   62.4523 N   0  0  0  0  0
    2.7622   23.5965   64.9385 N   0  0  0  0  0
    2.7623   24.0588   67.0873 O   0  0  0  0  0
    6.3066   25.9196   65.8948 O   0  0  0  0  0
    3.9845   26.6949   64.5296 O   0  0  0  0  0
    2.4222   29.1640   60.3319 O   0  0  0  0  0
    1.1245   28.9199   62.2488 O   0  0  0  0  0
    6.0297   19.9365   67.6514 F   0  0  0  0  0
  1 26  1  0  0  0
  1 18  1  0  0  0
  3  2  1  0  0  0
  3 27  1  0  0  0
  4 27  1  0  0  0
  4  5  1  0  0  0
  4 12  1  0  0  0
  5 31  1  0  0  0
  6  7  1  0  0  0
  6 30  1  0  0  0
  8  9  1  0  0  0
 10 29  1  0  0  0
 11  7  1  0  0  0
 12 13  1  0  0  0
 13 36  1  0  0  0
 13 14  1  0  0  0
 14 27  1  0  0  0
 15 26  1  0  0  0
 15 16  1  0  0  0
 16 17  1  0  0  0
 17 15  1  0  0  0
 19 20  1  0  0  0
 21 22  1  0  0  0
 22 34  1  0  0  0
 23 34  1  0  0  0
 24 23  1  0  0  0
 25 18  1  0  0  0
 26  2  1  0  0  0
 31 28  1  0  0  0
  1 33  2  0  0  0
  2 32  2  0  0  0
  5 30  2  0  0  0
  6 28  2  0  0  0
  7  8  2  0  0  0
  9 29  2  0  0  0
 10 11  2  0  0  0
 18 19  2  0  0  0
 20 21  2  0  0  0
 22 25  2  0  0  0
 23 35  2  0  0  0
M  END
> <rmsd>
0.564975798

$$$$
FWBAUXMRLRGJKT-UHFFFAOYSA-N


 31 33  0  0  0  0  0  0  0  0999 V2000
    3.4210   24.2840   65.1655 C   0  0  0  0  0
    1.9709   24.7186   63.1955 C   0  0  0  0  0
    2.0716   25.5017   61.8935 C   0  0  0  0  0
   -0.0100   27.0676   64.2594 C   0  0  0  0  0
   -0.6746   25.8918   64.6280 C   0  0  0  0  0
   -0.9292   25.6222   65.9757 C   0  0  0  0  0
   -0.5235   26.5296   66.9587 C   0  0  0  0  0
    0.1339   27.7080   66.5938 C   0  0  0  0  0
    0.3885   27.9774   65.2459 C   0  0  0  0  0
    2.9297   27.5064   63.0522 C   0  0  0  0  0
    4.2038   27.9105   62.3219 C   0  0  0  0  0
    3.9982   29.1632   61.5391 C   0  0  0  0  0
    4.5402   31.5379   61.1994 C   0  0  0  0  0
    5.4154   32.5985   61.8326 C   0  0  0  0  0
    3.2623   26.5992   64.2072 C   0  0  0  0  0
    4.8305   24.2807   65.6045 C   0  0  0  0  0
    7.0765   24.9731   65.2832 C   0  0  0  0  0
    7.4668   24.2434   66.4064 C   0  0  0  0  0
    5.2273   23.5435   66.7270 C   0  0  0  0  0
    2.9602   25.1938   64.1529 N   0  0  0  0  0
    1.9462   26.9494   62.1077 N   0  0  0  0  0
    5.7717   24.9729   64.9057 N   0  0  0  0  0
    6.5336   23.5433   67.1031 N   0  0  0  0  0
    0.3255   27.4033   62.5646 S   0  0  0  0  0
   -0.6636   26.6607   61.7090 O   0  0  0  0  0
    0.1445   28.8754   62.3205 O   0  0  0  0  0
    4.6927   30.3158   61.9051 O   0  0  0  0  0
    3.2159   29.1679   60.5496 O   0  0  0  0  0
    3.8018   27.0970   65.2322 O   0  0  0  0  0
    2.6154   23.4486   65.6605 O   0  0  0  0  0
    8.2568   25.8824   64.3655 Cl  0  0  0  0  0
  1 20  1  0  0  0
  1 16  1  0  0  0
  2 20  1  0  0  0
  2  3  1  0  0  0
  3 21  1  0  0  0
  5  6  1  0  0  0
  7  8  1  0  0  0
  9  4  1  0  0  0
 10 21  1  0  0  0
 10 11  1  0  0  0
 10 15  1  0  0  0
 11 12  1  0  0  0
 12 27  1  0  0  0
 13 27  1  0  0  0
 13 14  1  0  0  0
 15 20  1  0  0  0
 17 22  1  0  0  0
 17 31  1  0  0  0
 18 23  1  0  0  0
 19 16  1  0  0  0
 24 21  1  0  0  0
 24  4  1  0  0  0
  1 30  2  0  0  0
  4  5  2  0  0  0
  6  7  2  0  0  0
  8  9  2  0  0  0
 12 28  2  0  0  0
 15 29  2  0  0  0
 16 22  2  0  0  0
 17 18  2  0  0  0
 19 23  2  0  0  0
 24 25  2  0  0  0
 24 26  2  0  0  0
M  END
> <rmsd>
0.606095552

$$$$
DMQONVQGCQPLFD-UHFFFAOYSA-N


 32 35  0  0  0  0  0  0  0  0999 V2000
    4.1254   24.2808   65.0840 C   0  0  0  0  0
    3.1885   26.4990   64.4307 C   0  0  0  0  0
    2.6175   27.3942   63.3796 C   0  0  0  0  0
    0.7986   27.8864   60.0712 C   0  0  0  0  0
    2.1160   28.5152   59.9557 C   0  0  0  0  0
    1.8556   25.2948   62.2227 C   0  0  0  0  0
    2.7199   24.5105   63.0166 C   0  0  0  0  0
    2.9348   23.1647   62.6727 C   0  0  0  0  0
    2.2932   22.5994   61.5694 C   0  0  0  0  0
    1.4284   23.3724   60.7951 C   0  0  0  0  0
    1.2112   24.7121   61.1201 C   0  0  0  0  0
    5.4935   24.6623   65.4784 C   0  0  0  0  0
    6.2925   24.0421   66.4162 C   0  0  0  0  0
    6.8497   22.3724   68.1338 C   0  0  0  0  0
    7.4893   24.7331   66.4295 C   0  0  0  0  0
    8.3819   26.6897   65.1943 C   0  0  0  0  0
    8.1347   27.6722   64.2234 C   0  0  0  0  0
    9.1149   28.6173   63.9073 C   0  0  0  0  0
   10.3504   28.5881   64.5596 C   0  0  0  0  0
   10.6061   27.6139   65.5280 C   0  0  0  0  0
    9.6264   26.6685   65.8445 C   0  0  0  0  0
    3.3697   25.0950   64.1667 N   0  0  0  0  0
    1.6478   26.6825   62.5510 N   0  0  0  0  0
    3.1575   29.0114   59.8651 N   0  0  0  0  0
    7.3714   25.7218   65.5154 N   0  0  0  0  0
    6.1784   25.6859   64.9368 N   0  0  0  0  0
    3.5297   26.9966   65.5371 O   0  0  0  0  0
    0.2638   28.9463   62.4772 O   0  0  0  0  0
   -0.9107   26.8870   61.8897 O   0  0  0  0  0
    3.6177   23.2211   65.5411 O   0  0  0  0  0
    5.9482   22.9352   67.1933 O   0  0  0  0  0
    0.3982   27.6179   61.7858 S   0  0  0  0  0
  1 22  1  0  0  0
  1 12  1  0  0  0
  3  2  1  0  0  0
  3 23  1  0  0  0
  4  5  1  0  0  0
  7  8  1  0  0  0
  7 22  1  0  0  0
  9 10  1  0  0  0
 11  6  1  0  0  0
 12 13  1  0  0  0
 13 31  1  0  0  0
 14 31  1  0  0  0
 15 25  1  0  0  0
 17 18  1  0  0  0
 19 20  1  0  0  0
 21 16  1  0  0  0
 22  2  1  0  0  0
 23  6  1  0  0  0
 25 16  1  0  0  0
 25 26  1  0  0  0
 32 23  1  0  0  0
 32  4  1  0  0  0
  1 30  2  0  0  0
  2 27  2  0  0  0
  6  7  2  0  0  0
  8  9  2  0  0  0
 10 11  2  0  0  0
 12 26  2  0  0  0
 13 15  2  0  0  0
 16 17  2  0  0  0
 18 19  2  0  0  0
 20 21  2  0  0  0
 32 28  2  0  0  0
 32 29  2  0  0  0
  5 24  3  0  0  0
M  END
> <rmsd>
0.686772287

$$$$
KQUYZXIUFMBBJW-UHFFFAOYSA-N


 31 33  0  0  0  0  0  0  0  0999 V2000
    4.9351   24.9014   66.0408 C   0  0  0  0  0
    3.3735   26.1805   64.5534 C   0  0  0  0  0
    2.1266   26.2285   63.7122 C   0  0  0  0  0
    1.4041   27.0356   60.7227 C   0  0  0  0  0
    2.8084   27.5983   60.5944 C   0  0  0  0  0
    3.8977   29.7674   60.1215 C   0  0  0  0  0
    5.1843   29.2394   60.3204 C   0  0  0  0  0
    6.3102   30.0559   60.1797 C   0  0  0  0  0
    6.1579   31.4029   59.8402 C   0  0  0  0  0
    4.8801   31.9335   59.6414 C   0  0  0  0  0
    3.7538   31.1170   59.7820 C   0  0  0  0  0
    0.9027   28.0706   64.7249 C   0  0  0  0  0
    1.0774   25.2603   64.2680 C   0  0  0  0  0
    1.6242   23.8404   64.2975 C   0  0  0  0  0
    2.9553   23.7651   64.9872 C   0  0  0  0  0
    4.9990   24.0030   67.2369 C   0  0  0  0  0
    7.2064   23.3705   67.7253 C   0  0  0  0  0
    8.2898   22.3079   67.5556 C   0  0  0  0  0
    7.7977   20.9834   68.1317 C   0  0  0  0  0
    6.4566   20.6024   67.5119 C   0  0  0  0  0
    5.4703   21.7553   67.6842 C   0  0  0  0  0
    3.7579   24.9488   65.2046 N   0  0  0  0  0
    1.6343   27.6081   63.5479 N   0  0  0  0  0
    5.9872   22.9563   67.0295 N   0  0  0  0  0
    4.0947   27.2114   64.6512 O   0  0  0  0  0
   -0.6763   26.9193   62.4114 O   0  0  0  0  0
    0.2289   29.1365   61.9043 O   0  0  0  0  0
    2.7529   28.9784   60.2571 O   0  0  0  0  0
    3.3871   22.6287   65.3169 O   0  0  0  0  0
    5.9247   25.6405   65.7888 O   0  0  0  0  0
    0.5851   27.6993   62.1635 S   0  0  0  0  0
  1 22  1  0  0  0
  3  2  1  0  0  0
  3 23  1  0  0  0
  3 13  1  0  0  0
  4  5  1  0  0  0
  5 28  1  0  0  0
  6 28  1  0  0  0
  7  8  1  0  0  0
  9 10  1  0  0  0
 11  6  1  0  0  0
 12 23  1  0  0  0
 13 14  1  0  0  0
 14 15  1  0  0  0
 15 22  1  0  0  0
 16  1  1  0  0  0
 16 24  1  0  0  0
 17 24  1  0  0  0
 17 18  1  0  0  0
 18 19  1  0  0  0
 19 20  1  0  0  0
 20 21  1  0  0  0
 21 24  1  0  0  0
 22  2  1  0  0  0
 31 23  1  0  0  0
 31  4  1  0  0  0
  1 30  2  0  0  0
  2 25  2  0  0  0
  6  7  2  0  0  0
  8  9  2  0  0  0
 10 11  2  0  0  0
 15 29  2  0  0  0
 31 26  2  0  0  0
 31 27  2  0  0  0
M  END
> <rmsd>
0.650309503

$$$$
JDJUWDHULAKJNC-UHFFFAOYSA-N


 36 40  0  0  0  0  0  0  0  0999 V2000
    4.9950   25.1820   64.7564 C   0  0  0  0  0
    3.3853   24.5860   63.0166 C   0  0  0  0  0
    2.1666   24.8145   62.3434 C   0  0  0  0  0
    1.7714   23.9638   61.2975 C   0  0  0  0  0
    2.5809   22.8909   60.9160 C   0  0  0  0  0
    3.7911   22.6618   61.5732 C   0  0  0  0  0
    4.1912   23.5030   62.6148 C   0  0  0  0  0
    1.3755   25.8980   62.7361 C   0  0  0  0  0
    0.9896   27.8828   64.1177 C   0  0  0  0  0
    1.3384   29.0219   63.2214 C   0  0  0  0  0
    3.1779   30.2652   62.1535 C   0  0  0  0  0
    3.5380   29.3097   61.0664 C   0  0  0  0  0
    4.7240   28.5728   61.1461 C   0  0  0  0  0
    5.0139   27.6386   60.1486 C   0  0  0  0  0
    4.1185   27.4481   59.0910 C   0  0  0  0  0
    4.4086   26.4507   58.0221 C   0  0  0  0  0
    3.9352   25.0734   58.4469 C   0  0  0  0  0
    2.9350   28.1908   59.0572 C   0  0  0  0  0
    2.9723   26.4734   64.4025 C   0  0  0  0  0
    5.1048   24.0802   65.7271 C   0  0  0  0  0
    4.1187   23.2384   66.1807 C   0  0  0  0  0
    3.9142   21.4193   67.6689 C   0  0  0  0  0
    2.5502   21.3481   67.3653 C   0  0  0  0  0
    2.0108   22.2685   66.4456 C   0  0  0  0  0
    6.2541   23.6582   66.3977 C   0  0  0  0  0
    3.7646   25.4141   64.0420 N   0  0  0  0  0
    1.7895   26.7109   63.7541 N   0  0  0  0  0
    2.6704   29.0959   60.0385 N   0  0  0  0  0
    4.6448   22.3782   67.0533 N   0  0  0  0  0
    2.8040   23.2100   65.8590 N   0  0  0  0  0
    5.9362   22.6108   67.2016 N   0  0  0  0  0
    0.2833   26.1260   62.1428 O   0  0  0  0  0
    2.6301   29.5486   63.2519 O   0  0  0  0  0
    0.4815   29.4587   62.4072 O   0  0  0  0  0
    3.3340   27.2363   65.3454 O   0  0  0  0  0
    5.9824   25.9420   64.5583 O   0  0  0  0  0
  1 26  1  0  0  0
  1 20  1  0  0  0
  2  3  1  0  0  0
  3  8  1  0  0  0
  4  5  1  0  0  0
  6  7  1  0  0  0
  8 27  1  0  0  0
  9 27  1  0  0  0
  9 10  1  0  0  0
 10 33  1  0  0  0
 11 33  1  0  0  0
 11 12  1  0  0  0
 12 28  1  0  0  0
 13 14  1  0  0  0
 15 18  1  0  0  0
 16 15  1  0  0  0
 16 17  1  0  0  0
 19 26  1  0  0  0
 21 29  1  0  0  0
 21 30  1  0  0  0
 23 24  1  0  0  0
 25 20  1  0  0  0
 26  2  1  0  0  0
 27 19  1  0  0  0
 29 22  1  0  0  0
 29 31  1  0  0  0
  1 36  2  0  0  0
  3  4  2  0  0  0
  5  6  2  0  0  0
  7  2  2  0  0  0
  8 32  2  0  0  0
 10 34  2  0  0  0
 12 13  2  0  0  0
 14 15  2  0  0  0
 18 28  2  0  0  0
 19 35  2  0  0  0
 20 21  2  0  0  0
 22 23  2  0  0  0
 24 30  2  0  0  0
 25 31  2  0  0  0
M  END
> <rmsd>
0.615196705

$$$$
LOQRKEOERKAHMU-UHFFFAOYSA-N


 34 38  0  0  0  0  0  0  0  0999 V2000
    4.1021   25.0518   63.0007 C   0  0  0  0  0
    4.9408   27.1483   61.7829 C   0  0  0  0  0
    3.8915   27.1569   60.6740 C   0  0  0  0  0
    1.9031   28.6168   60.7418 C   0  0  0  0  0
    0.5338   28.8842   61.2739 C   0  0  0  0  0
   -0.4167   27.7408   60.8843 C   0  0  0  0  0
   -1.8542   28.2210   60.9308 C   0  0  0  0  0
    0.0977   26.7327   63.0851 C   0  0  0  0  0
    0.4880   27.9858   63.5749 C   0  0  0  0  0
    0.7837   28.1471   64.9309 C   0  0  0  0  0
    0.7205   27.0461   65.7913 C   0  0  0  0  0
    0.3638   25.7869   65.2961 C   0  0  0  0  0
    0.0508   25.6298   63.9419 C   0  0  0  0  0
    5.2391   28.5884   62.2264 C   0  0  0  0  0
    4.7632   28.7389   63.6724 C   0  0  0  0  0
    4.3278   27.3772   64.0304 C   0  0  0  0  0
    4.0686   24.2850   64.2614 C   0  0  0  0  0
    2.9832   23.4287   64.5187 C   0  0  0  0  0
    3.9292   22.8175   66.5708 C   0  0  0  0  0
    5.5346   22.7598   68.3354 C   0  0  0  0  0
    6.3596   22.5412   69.5509 C   0  0  0  0  0
    5.1090   24.3466   65.2122 C   0  0  0  0  0
    4.4627   26.4468   62.9679 N   0  0  0  0  0
    2.9236   22.7074   65.6715 N   0  0  0  0  0
    4.9977   23.6107   66.3490 N   0  0  0  0  0
    5.9010   23.5855   67.3263 N   0  0  0  0  0
    2.6127   27.5019   61.1889 O   0  0  0  0  0
    2.4010   29.3983   59.8882 O   0  0  0  0  0
   -0.2567   26.6032   61.7394 O   0  0  0  0  0
    0.5814   29.0656   62.6935 O   0  0  0  0  0
    3.8501   27.0826   65.1576 O   0  0  0  0  0
    3.7982   24.4637   61.9273 O   0  0  0  0  0
    6.1330   25.0549   65.0111 O   0  0  0  0  0
    4.0412   22.0119   68.0404 S   0  0  0  0  0
  1 23  1  0  0  0
  1 17  1  0  0  0
  2 23  1  0  0  0
  2  3  1  0  0  0
  2 14  1  0  0  0
  3 27  1  0  0  0
  4 27  1  0  0  0
  5  4  1  0  0  0
  5  6  1  0  0  0
  5 30  1  0  0  0
  6  7  1  0  0  0
  6 29  1  0  0  0
  8 29  1  0  0  0
  9 10  1  0  0  0
  9 30  1  0  0  0
 11 12  1  0  0  0
 13  8  1  0  0  0
 14 15  1  0  0  0
 15 16  1  0  0  0
 16 23  1  0  0  0
 18 24  1  0  0  0
 19 25  1  0  0  0
 19 34  1  0  0  0
 20 34  1  0  0  0
 21 20  1  0  0  0
 22 17  1  0  0  0
 25 26  1  0  0  0
 25 22  1  0  0  0
  1 32  2  0  0  0
  4 28  2  0  0  0
  8  9  2  0  0  0
 10 11  2  0  0  0
 12 13  2  0  0  0
 16 31  2  0  0  0
 17 18  2  0  0  0
 19 24  2  0  0  0
 20 26  2  0  0  0
 22 33  2  0  0  0
M  END
> <rmsd>
0.5295403

$$$$
CVRFOVLKPJXREX-UHFFFAOYSA-N


 27 28  0  0  0  0  0  0  0  0999 V2000
    2.8771   26.3858   63.4090 C   0  0  0  0  0
    0.4338   26.1767   62.9389 C   0  0  0  0  0
   -0.7421   24.0536   63.4199 C   0  0  0  0  0
   -1.7777   24.4906   64.4385 C   0  0  0  0  0
    1.5242   28.4279   62.9091 C   0  0  0  0  0
    2.7154   29.2340   62.5020 C   0  0  0  0  0
    2.9610   29.0728   61.0666 C   0  0  0  0  0
    3.2294   25.0237   62.8792 C   0  0  0  0  0
    3.5863   23.5935   64.9338 C   0  0  0  0  0
    4.3442   23.4297   66.1181 C   0  0  0  0  0
    3.8178   22.6320   67.1429 C   0  0  0  0  0
    2.5651   22.0379   67.0073 C   0  0  0  0  0
    1.8377   22.2486   65.8388 C   0  0  0  0  0
    5.4059   24.0397   63.2403 C   0  0  0  0  0
    5.4545   24.7861   61.9216 C   0  0  0  0  0
    4.0170   25.1573   61.5882 C   0  0  0  0  0
    1.6121   26.9962   63.0813 N   0  0  0  0  0
    3.1558   28.9444   59.9333 N   0  0  0  0  0
    4.0977   24.3144   63.8035 N   0  0  0  0  0
    5.5990   24.0984   66.3231 N   0  0  0  0  0
    2.3584   23.0093   64.8411 N   0  0  0  0  0
    0.4029   24.8935   63.4946 O   0  0  0  0  0
   -0.5709   26.6133   62.3113 O   0  0  0  0  0
    0.4244   29.0227   63.0679 O   0  0  0  0  0
    3.7270   27.0248   64.0891 O   0  0  0  0  0
    5.8096   25.3564   65.8075 O   0  0  0  0  0
    6.4253   23.6373   67.1377 O   0  0  0  0  0
  1 17  1  0  0  0
  2 22  1  0  0  0
  3 22  1  0  0  0
  3  4  1  0  0  0
  6  5  1  0  0  0
  6  7  1  0  0  0
  8  1  1  0  0  0
  8 19  1  0  0  0
  9 21  1  0  0  0
 10 20  1  0  0  0
 10 11  1  0  0  0
 12 13  1  0  0  0
 14 19  1  0  0  0
 14 15  1  0  0  0
 15 16  1  0  0  0
 16  8  1  0  0  0
 17  2  1  0  0  0
 17  5  1  0  0  0
 19  9  1  0  0  0
 20 26  1  0  0  0
  1 25  2  0  0  0
  2 23  2  0  0  0
  5 24  2  0  0  0
  9 10  2  0  0  0
 11 12  2  0  0  0
 13 21  2  0  0  0
 20 27  2  0  0  0
  7 18  3  0  0  0
M  CHG  2  20   1  26  -1
M  END
> <rmsd>
0.66259551

$$$$
DLXJNFNCSDGZFZ-UHFFFAOYSA-N


 32 35  0  0  0  0  0  0  0  0999 V2000
    3.9739   24.0925   65.1524 C   0  0  0  0  0
    3.0983   26.3112   64.4297 C   0  0  0  0  0
    2.6106   27.2077   63.3397 C   0  0  0  0  0
    0.7509   27.3561   59.8282 C   0  0  0  0  0
    1.9501   27.4645   59.2141 C   0  0  0  0  0
    3.1979   27.8760   59.8852 C   0  0  0  0  0
    5.6482   27.7064   60.0448 C   0  0  0  0  0
    2.0262   27.1490   57.7454 C   0  0  0  0  0
    1.2554   25.8630   57.4225 C   0  0  0  0  0
   -0.1276   25.7856   58.0964 C   0  0  0  0  0
   -0.4417   26.9896   58.9911 C   0  0  0  0  0
    1.8707   25.1019   62.1630 C   0  0  0  0  0
    2.6660   24.3119   63.0212 C   0  0  0  0  0
    2.8448   22.9482   62.7301 C   0  0  0  0  0
    2.2304   22.3690   61.6190 C   0  0  0  0  0
    1.4272   23.1453   60.7850 C   0  0  0  0  0
    1.2483   24.5019   61.0572 C   0  0  0  0  0
    5.3429   24.4312   65.5794 C   0  0  0  0  0
    7.2016   24.0183   66.9858 C   0  0  0  0  0
    7.9156   25.0396   66.3620 C   0  0  0  0  0
    7.2977   25.7430   65.3297 C   0  0  0  0  0
    3.2756   24.9039   64.1882 N   0  0  0  0  0
    1.7038   26.5097   62.4303 N   0  0  0  0  0
    5.9355   23.7315   66.5852 N   0  0  0  0  0
    6.0303   25.4274   64.9567 N   0  0  0  0  0
    3.3826   26.8127   65.5504 O   0  0  0  0  0
    0.6153   28.9044   62.0008 O   0  0  0  0  0
   -0.8459   26.9538   61.9387 O   0  0  0  0  0
    4.4134   27.3525   59.4407 O   0  0  0  0  0
    3.1780   28.7330   60.8097 O   0  0  0  0  0
    3.4119   23.0697   65.6299 O   0  0  0  0  0
    0.5217   27.4641   61.5797 S   0  0  0  0  0
  1 22  1  0  0  0
  1 18  1  0  0  0
  3  2  1  0  0  0
  3 23  1  0  0  0
  5  6  1  0  0  0
  6 29  1  0  0  0
  7 29  1  0  0  0
  8  5  1  0  0  0
  8  9  1  0  0  0
  9 10  1  0  0  0
 10 11  1  0  0  0
 11  4  1  0  0  0
 13 14  1  0  0  0
 13 22  1  0  0  0
 15 16  1  0  0  0
 17 12  1  0  0  0
 18 25  1  0  0  0
 19 24  1  0  0  0
 20 21  1  0  0  0
 22  2  1  0  0  0
 23 12  1  0  0  0
 32 23  1  0  0  0
 32  4  1  0  0  0
  1 31  2  0  0  0
  2 26  2  0  0  0
  4  5  2  0  0  0
  6 30  2  0  0  0
 12 13  2  0  0  0
 14 15  2  0  0  0
 16 17  2  0  0  0
 18 24  2  0  0  0
 19 20  2  0  0  0
 21 25  2  0  0  0
 32 27  2  0  0  0
 32 28  2  0  0  0
M  END
> <rmsd>
0.660674155

$$$$
RDNCAFZFXARLNQ-UHFFFAOYSA-N


 34 37  0  0  0  0  0  0  0  0999 V2000
    2.8768   25.8213   64.1318 C   0  0  0  0  0
    0.8412   26.6957   62.9183 C   0  0  0  0  0
    0.8692   27.9982   63.6578 C   0  0  0  0  0
    2.3608   29.5577   62.7180 C   0  0  0  0  0
    3.1469   28.8567   61.6188 C   0  0  0  0  0
    2.4671   27.9827   59.5560 C   0  0  0  0  0
    2.1996   28.2297   58.0614 C   0  0  0  0  0
    1.9904   29.7109   57.7545 C   0  0  0  0  0
    3.1490   30.5510   58.2989 C   0  0  0  0  0
    3.6429   30.0480   59.6623 C   0  0  0  0  0
    0.1912   30.1947   63.2752 C   0  0  0  0  0
    1.6749   24.3794   62.4784 C   0  0  0  0  0
    2.4203   24.4583   61.1880 C   0  0  0  0  0
    1.7150   24.5008   59.9808 C   0  0  0  0  0
    2.4062   24.5737   58.7675 C   0  0  0  0  0
    3.8042   24.6064   58.7605 C   0  0  0  0  0
    4.5110   24.5653   59.9660 C   0  0  0  0  0
    3.8198   24.4903   61.1790 C   0  0  0  0  0
    3.3391   24.7122   65.0045 C   0  0  0  0  0
    2.4530   23.6679   65.3351 C   0  0  0  0  0
    4.0986   22.6492   66.6508 C   0  0  0  0  0
    6.2254   22.3504   67.6914 C   0  0  0  0  0
    7.4371   21.9328   68.4439 C   0  0  0  0  0
    4.6415   24.6704   65.5534 C   0  0  0  0  0
    1.7791   25.6399   63.2127 N   0  0  0  0  0
    0.9760   29.1074   62.7203 N   0  0  0  0  0
    2.6245   29.2270   60.3149 N   0  0  0  0  0
    2.8413   22.6493   66.1502 N   0  0  0  0  0
    4.9773   23.6314   66.3638 N   0  0  0  0  0
    6.1677   23.4749   66.9388 N   0  0  0  0  0
   -0.0561   26.5166   62.0506 O   0  0  0  0  0
    3.4608   26.9372   64.1903 O   0  0  0  0  0
    5.4887   25.5686   65.2941 O   0  0  0  0  0
    4.7644   21.4896   67.6681 S   0  0  0  0  0
  1 25  1  0  0  0
  1 19  1  0  0  0
  3  2  1  0  0  0
  3 26  1  0  0  0
  4 26  1  0  0  0
  4  5  1  0  0  0
  5 27  1  0  0  0
  6 27  1  0  0  0
  6  7  1  0  0  0
  7  8  1  0  0  0
  8  9  1  0  0  0
  9 10  1  0  0  0
 10 27  1  0  0  0
 11 26  1  0  0  0
 12 25  1  0  0  0
 12 13  1  0  0  0
 14 15  1  0  0  0
 16 17  1  0  0  0
 18 13  1  0  0  0
 20 28  1  0  0  0
 21 29  1  0  0  0
 21 34  1  0  0  0
 22 34  1  0  0  0
 23 22  1  0  0  0
 24 19  1  0  0  0
 25  2  1  0  0  0
 29 30  1  0  0  0
 29 24  1  0  0  0
  1 32  2  0  0  0
  2 31  2  0  0  0
 13 14  2  0  0  0
 15 16  2  0  0  0
 17 18  2  0  0  0
 19 20  2  0  0  0
 21 28  2  0  0  0
 22 30  2  0  0  0
 24 33  2  0  0  0
M  END
> <rmsd>
0.531710804

$$$$
VYCAVMMESOJYOU-UHFFFAOYSA-N


 36 41  0  0  0  0  0  0  0  0999 V2000
    3.3361   25.2098   65.5130 C   0  0  0  0  0
    0.9740   25.3745   66.2553 C   0  0  0  0  0
   -0.3454   25.2363   65.7673 C   0  0  0  0  0
   -1.3639   26.0557   66.2759 C   0  0  0  0  0
   -1.0889   26.9931   67.2730 C   0  0  0  0  0
    0.2104   27.1298   67.7611 C   0  0  0  0  0
    1.2354   26.3294   67.2518 C   0  0  0  0  0
   -1.2491   24.8537   63.4820 C   0  0  0  0  0
   -0.2289   25.6117   62.7035 C   0  0  0  0  0
    0.8942   27.1395   61.8461 C   0  0  0  0  0
    1.3794   28.4596   61.4285 C   0  0  0  0  0
    1.1151   30.8111   61.3825 C   0  0  0  0  0
    2.2883   30.9386   60.6406 C   0  0  0  0  0
    2.9905   29.7808   60.3078 C   0  0  0  0  0
   -0.5622   22.8665   64.9206 C   0  0  0  0  0
   -0.4939   22.0871   63.6122 C   0  0  0  0  0
    0.6199   22.4702   65.8072 C   0  0  0  0  0
    1.8741   23.1845   65.4113 C   0  0  0  0  0
    4.5745   24.6348   66.0716 C   0  0  0  0  0
    5.8651   25.0833   65.9171 C   0  0  0  0  0
    8.0268   24.5073   66.6698 C   0  0  0  0  0
    8.5477   25.5878   65.9444 C   0  0  0  0  0
    7.6624   26.4015   65.2087 C   0  0  0  0  0
    4.6934   23.5385   66.9300 C   0  0  0  0  0
    2.0594   24.5803   65.7285 N   0  0  0  0  0
   -0.6414   24.3212   64.7001 N   0  0  0  0  0
    1.5111   25.9825   61.5330 N   0  0  0  0  0
    0.6830   29.5803   61.7624 N   0  0  0  0  0
    2.5263   28.5668   60.7044 N   0  0  0  0  0
   -0.2161   26.9528   62.5904 N   0  0  0  0  0
    6.6889   24.3040   66.6211 N   0  0  0  0  0
    6.3221   26.1416   65.2024 N   0  0  0  0  0
    6.0039   23.3601   67.2428 N   0  0  0  0  0
    0.7842   25.0592   62.0837 O   0  0  0  0  0
    2.7676   22.5423   64.7965 O   0  0  0  0  0
    3.3894   26.2948   64.8725 O   0  0  0  0  0
  1 25  1  0  0  0
  1 19  1  0  0  0
  2  3  1  0  0  0
  3 26  1  0  0  0
  4  5  1  0  0  0
  6  7  1  0  0  0
  8 26  1  0  0  0
  8  9  1  0  0  0
  9 34  1  0  0  0
 10 11  1  0  0  0
 10 30  1  0  0  0
 11 29  1  0  0  0
 12 28  1  0  0  0
 13 14  1  0  0  0
 15 26  1  0  0  0
 15 16  1  0  0  0
 15 17  1  0  0  0
 17 18  1  0  0  0
 18 25  1  0  0  0
 20 31  1  0  0  0
 20 32  1  0  0  0
 22 23  1  0  0  0
 24 19  1  0  0  0
 25  2  1  0  0  0
 31 21  1  0  0  0
 31 33  1  0  0  0
 34 27  1  0  0  0
  1 36  2  0  0  0
  3  4  2  0  0  0
  5  6  2  0  0  0
  7  2  2  0  0  0
  9 30  2  0  0  0
 10 27  2  0  0  0
 11 28  2  0  0  0
 12 13  2  0  0  0
 14 29  2  0  0  0
 18 35  2  0  0  0
 19 20  2  0  0  0
 21 22  2  0  0  0
 23 32  2  0  0  0
 24 33  2  0  0  0
M  END
> <rmsd>
0.636296034

$$$$
ISZNPHVOBBZJLB-UHFFFAOYSA-N


 34 37  0  0  0  0  0  0  0  0999 V2000
    0.4929   26.5069   62.0594 C   0  0  0  0  0
    1.3049   24.4883   63.3282 C   0  0  0  0  0
    2.2060   23.2951   63.2950 C   0  0  0  0  0
    2.8471   21.9198   65.1419 C   0  0  0  0  0
    3.4586   20.7836   64.3200 C   0  0  0  0  0
    4.9363   21.0507   64.1050 C   0  0  0  0  0
    5.1090   22.3835   63.3898 C   0  0  0  0  0
    4.4233   23.5219   64.1611 C   0  0  0  0  0
    5.2090   23.9397   65.3635 C   0  0  0  0  0
    6.3603   25.0348   66.7034 C   0  0  0  0  0
    7.1439   26.1225   67.3455 C   0  0  0  0  0
    2.9064   25.8825   62.0562 C   0  0  0  0  0
    3.7863   26.5967   62.8888 C   0  0  0  0  0
    4.1154   27.8842   64.9793 C   0  0  0  0  0
    5.1054   26.8242   62.4640 C   0  0  0  0  0
    5.5409   26.3450   61.2261 C   0  0  0  0  0
    4.6620   25.6380   60.4018 C   0  0  0  0  0
    3.3480   25.4076   60.8146 C   0  0  0  0  0
    0.7476   27.6758   61.1539 C   0  0  0  0  0
    2.5810   29.2933   61.3346 C   0  0  0  0  0
    3.2239   30.3304   62.0076 C   0  0  0  0  0
    2.6845   30.8085   63.1967 C   0  0  0  0  0
    1.5093   30.2420   63.6814 C   0  0  0  0  0
    1.5590   25.6270   62.4802 N   0  0  0  0  0
    3.0183   23.2371   64.5065 N   0  0  0  0  0
    6.1440   23.8363   67.2760 N   0  0  0  0  0
    5.7887   25.1473   65.4885 N   0  0  0  0  0
    1.4388   28.7529   61.8578 N   0  0  0  0  0
    0.9175   29.2324   62.9915 N   0  0  0  0  0
    5.4258   23.1856   66.4137 O   0  0  0  0  0
    0.3168   24.4788   64.1088 O   0  0  0  0  0
    3.3253   27.0748   64.1207 O   0  0  0  0  0
   -0.6917   26.2989   62.4341 O   0  0  0  0  0
    3.0637   28.8642   60.2520 O   0  0  0  0  0
  1 24  1  0  0  0
  3  2  1  0  0  0
  3 25  1  0  0  0
  4 25  1  0  0  0
  4  5  1  0  0  0
  5  6  1  0  0  0
  6  7  1  0  0  0
  7  8  1  0  0  0
  8  9  1  0  0  0
  8 25  1  0  0  0
  9 30  1  0  0  0
 10 27  1  0  0  0
 11 10  1  0  0  0
 13 32  1  0  0  0
 13 15  1  0  0  0
 14 32  1  0  0  0
 16 17  1  0  0  0
 18 12  1  0  0  0
 19  1  1  0  0  0
 19 28  1  0  0  0
 20 21  1  0  0  0
 22 23  1  0  0  0
 24  2  1  0  0  0
 24 12  1  0  0  0
 28 20  1  0  0  0
 28 29  1  0  0  0
 30 26  1  0  0  0
  1 33  2  0  0  0
  2 31  2  0  0  0
  9 27  2  0  0  0
 10 26  2  0  0  0
 12 13  2  0  0  0
 15 16  2  0  0  0
 17 18  2  0  0  0
 20 34  2  0  0  0
 21 22  2  0  0  0
 23 29  2  0  0  0
M  END
> <rmsd>
0.66835618

$$$$
NNSGNACUOPISCL-UHFFFAOYSA-N


 35 39  0  0  0  0  0  0  0  0999 V2000
    5.0834   23.4883   66.9142 C   0  0  0  0  0
    5.2349   25.6845   65.7794 C   0  0  0  0  0
    4.8117   27.1079   65.6003 C   0  0  0  0  0
    4.1690   27.4409   63.3547 C   0  0  0  0  0
    3.6629   28.8658   63.3466 C   0  0  0  0  0
    2.5136   29.0091   62.3977 C   0  0  0  0  0
    1.3617   29.1436   60.6654 C   0  0  0  0  0
    0.9174   29.1630   59.2404 C   0  0  0  0  0
    1.5947   30.2945   58.4923 C   0  0  0  0  0
    1.2343   27.8415   58.5677 C   0  0  0  0  0
    3.1776   28.5491   64.7451 C   0  0  0  0  0
    3.7860   25.4224   67.8315 C   0  0  0  0  0
    2.5974   24.5208   68.1382 C   0  0  0  0  0
    2.4074   25.7443   67.2745 C   0  0  0  0  0
    4.3436   22.3733   66.2458 C   0  0  0  0  0
    4.9404   22.2285   63.8663 C   0  0  0  0  0
    4.7077   22.5779   62.5385 C   0  0  0  0  0
    3.6269   23.3974   62.2301 C   0  0  0  0  0
    2.7942   23.8521   63.2570 C   0  0  0  0  0
    1.6448   24.7367   62.9725 C   0  0  0  0  0
    1.3148   25.0886   61.6556 C   0  0  0  0  0
    0.2196   25.9207   61.4154 C   0  0  0  0  0
   -0.2212   26.0707   63.7422 C   0  0  0  0  0
    0.8643   25.2377   64.0229 C   0  0  0  0  0
    4.6298   24.8429   66.7809 N   0  0  0  0  0
    3.6689   27.1790   64.6997 N   0  0  0  0  0
    0.5304   29.3744   61.6991 N   0  0  0  0  0
    2.6328   28.9115   61.0592 N   0  0  0  0  0
    4.1012   22.6883   64.8424 N   0  0  0  0  0
   -0.5200   26.3907   62.4549 N   0  0  0  0  0
    3.0640   23.4734   64.5365 N   0  0  0  0  0
    1.2810   29.2816   62.7538 O   0  0  0  0  0
    6.1138   25.2174   65.0062 O   0  0  0  0  0
    6.0934   23.2306   67.6195 O   0  0  0  0  0
    5.9241   21.4938   64.1516 O   0  0  0  0  0
  1 25  1  0  0  0
  3  2  1  0  0  0
  3 26  1  0  0  0
  4 26  1  0  0  0
  4  5  1  0  0  0
  5  6  1  0  0  0
  5 11  1  0  0  0
  6 32  1  0  0  0
  7 28  1  0  0  0
  8  7  1  0  0  0
  8  9  1  0  0  0
  8 10  1  0  0  0
 11 26  1  0  0  0
 12 25  1  0  0  0
 12 13  1  0  0  0
 13 14  1  0  0  0
 14 12  1  0  0  0
 15  1  1  0  0  0
 15 29  1  0  0  0
 16 17  1  0  0  0
 18 19  1  0  0  0
 19 20  1  0  0  0
 21 22  1  0  0  0
 23 30  1  0  0  0
 24 20  1  0  0  0
 25  2  1  0  0  0
 29 16  1  0  0  0
 29 31  1  0  0  0
 32 27  1  0  0  0
  1 34  2  0  0  0
  2 33  2  0  0  0
  6 28  2  0  0  0
  7 27  2  0  0  0
 16 35  2  0  0  0
 17 18  2  0  0  0
 19 31  2  0  0  0
 20 21  2  0  0  0
 22 30  2  0  0  0
 23 24  2  0  0  0
M  END
> <rmsd>
0.645240605

$$$$
YBCJVZFCDNJNSJ-UHFFFAOYSA-N


 32 35  0  0  0  0  0  0  0  0999 V2000
    2.9362   25.8435   64.1208 C   0  0  0  0  0
    0.8938   26.7371   62.9322 C   0  0  0  0  0
    0.9181   28.0224   63.7016 C   0  0  0  0  0
    0.4625   30.3044   63.4657 C   0  0  0  0  0
    1.2712   31.5174   63.0652 C   0  0  0  0  0
    2.6137   30.9700   62.6479 C   0  0  0  0  0
    2.4531   29.4620   62.6331 C   0  0  0  0  0
    2.9730   28.8898   61.3547 C   0  0  0  0  0
    3.2588   28.4057   59.3521 C   0  0  0  0  0
    3.1255   28.3337   57.8736 C   0  0  0  0  0
    1.8146   24.4930   62.3423 C   0  0  0  0  0
    2.6772   24.6847   61.1090 C   0  0  0  0  0
    2.6332   23.4302   60.2629 C   0  0  0  0  0
    3.3853   24.7018   64.9587 C   0  0  0  0  0
    2.5147   23.6171   65.1835 C   0  0  0  0  0
    4.1170   22.5720   66.5315 C   0  0  0  0  0
    6.1929   22.2729   67.6701 C   0  0  0  0  0
    7.3741   21.8470   68.4655 C   0  0  0  0  0
    4.6572   24.6651   65.5767 C   0  0  0  0  0
    1.8587   25.6929   63.1737 N   0  0  0  0  0
    1.0357   29.1519   62.7891 N   0  0  0  0  0
    4.1796   27.7151   60.0493 N   0  0  0  0  0
    2.4684   29.1666   60.1357 N   0  0  0  0  0
    2.8891   22.5659   65.9629 N   0  0  0  0  0
    4.9800   23.5919   66.3470 N   0  0  0  0  0
    6.1418   23.4358   66.9780 N   0  0  0  0  0
    0.6729   32.1223   61.9761 F   0  0  0  0  0
    3.9691   28.0423   61.2875 O   0  0  0  0  0
   -0.0154   26.5671   62.0748 O   0  0  0  0  0
    3.5104   26.9600   64.2356 O   0  0  0  0  0
    5.4891   25.5997   65.4156 O   0  0  0  0  0
    4.7620   21.3757   67.5194 S   0  0  0  0  0
  1 20  1  0  0  0
  1 14  1  0  0  0
  3  2  1  0  0  0
  3 21  1  0  0  0
  4 21  1  0  0  0
  4  5  1  0  0  0
  5 27  1  0  0  0
  5  6  1  0  0  0
  6  7  1  0  0  0
  7  8  1  0  0  0
  7 21  1  0  0  0
  8 28  1  0  0  0
  9 23  1  0  0  0
 10  9  1  0  0  0
 11 20  1  0  0  0
 11 12  1  0  0  0
 12 13  1  0  0  0
 15 24  1  0  0  0
 16 25  1  0  0  0
 16 32  1  0  0  0
 17 32  1  0  0  0
 18 17  1  0  0  0
 19 14  1  0  0  0
 20  2  1  0  0  0
 25 26  1  0  0  0
 25 19  1  0  0  0
 28 22  1  0  0  0
  1 30  2  0  0  0
  2 29  2  0  0  0
  8 23  2  0  0  0
  9 22  2  0  0  0
 14 15  2  0  0  0
 16 24  2  0  0  0
 17 26  2  0  0  0
 19 31  2  0  0  0
M  END
> <rmsd>
0.530592918

$$$$
UFJNTTSVGNHSAU-UHFFFAOYSA-N


 35 38  0  0  0  0  0  0  0  0999 V2000
    3.7801   26.1071   64.4875 C   0  0  0  0  0
    3.0336   23.8252   65.1545 C   0  0  0  0  0
    1.5802   24.1739   65.0692 C   0  0  0  0  0
    0.4314   22.9553   63.4175 C   0  0  0  0  0
    0.1093   22.8524   61.9237 C   0  0  0  0  0
   -0.8717   24.1377   60.0126 C   0  0  0  0  0
   -0.3293   25.3351   62.1487 C   0  0  0  0  0
    0.2022   25.2980   63.5462 C   0  0  0  0  0
    5.3070   24.6661   65.8098 C   0  0  0  0  0
    6.7652   23.6209   67.1809 C   0  0  0  0  0
    7.2902   22.6104   68.1122 C   0  0  0  0  0
    8.5883   22.7232   68.6305 C   0  0  0  0  0
    9.0811   21.7580   69.5145 C   0  0  0  0  0
    8.2795   20.6744   69.8854 C   0  0  0  0  0
    6.9848   20.5556   69.3722 C   0  0  0  0  0
    6.4918   21.5207   68.4887 C   0  0  0  0  0
    3.4963   26.1640   63.0407 C   0  0  0  0  0
    3.8075   25.0779   62.2112 C   0  0  0  0  0
    3.5252   25.1307   60.8445 C   0  0  0  0  0
    2.9281   26.2695   60.2982 C   0  0  0  0  0
    2.6079   27.3623   61.1103 C   0  0  0  0  0
    1.4837   29.5930   61.1950 C   0  0  0  0  0
    0.9807   30.7494   60.4088 C   0  0  0  0  0
    2.9032   27.3035   62.4819 C   0  0  0  0  0
    4.0466   24.8526   65.1371 N   0  0  0  0  0
    1.1518   24.1972   63.6810 N   0  0  0  0  0
   -0.3962   24.1186   61.3859 N   0  0  0  0  0
    6.3347   25.5478   65.6456 N   0  0  0  0  0
    5.5242   23.6036   66.6499 N   0  0  0  0  0
   -0.7482   26.4221   61.6691 O   0  0  0  0  0
    3.3593   22.6103   65.2311 O   0  0  0  0  0
    3.8033   27.1716   65.1634 O   0  0  0  0  0
    2.0085   28.4837   60.5164 O   0  0  0  0  0
    1.4062   29.6246   62.4521 O   0  0  0  0  0
    7.5620   24.9581   66.5951 S   0  0  0  0  0
  1 25  1  0  0  0
  1 17  1  0  0  0
  3  2  1  0  0  0
  3 26  1  0  0  0
  4 26  1  0  0  0
  4  5  1  0  0  0
  5 27  1  0  0  0
  6 27  1  0  0  0
  8  7  1  0  0  0
  8 26  1  0  0  0
  9 29  1  0  0  0
 10 35  1  0  0  0
 10 11  1  0  0  0
 12 13  1  0  0  0
 14 15  1  0  0  0
 16 11  1  0  0  0
 18 19  1  0  0  0
 20 21  1  0  0  0
 21 33  1  0  0  0
 22 33  1  0  0  0
 23 22  1  0  0  0
 24 17  1  0  0  0
 25  2  1  0  0  0
 25  9  1  0  0  0
 27  7  1  0  0  0
 28 35  1  0  0  0
  1 32  2  0  0  0
  2 31  2  0  0  0
  7 30  2  0  0  0
  9 28  2  0  0  0
 10 29  2  0  0  0
 11 12  2  0  0  0
 13 14  2  0  0  0
 15 16  2  0  0  0
 17 18  2  0  0  0
 19 20  2  0  0  0
 21 24  2  0  0  0
 22 34  2  0  0  0
M  END
> <rmsd>
0.721681058

$$$$
UWZCFRBUCQDGHV-UHFFFAOYSA-N


 27 28  0  0  0  0  0  0  0  0999 V2000
    1.2334   26.1088   62.6270 C   0  0  0  0  0
    1.9192   25.6736   65.0119 C   0  0  0  0  0
    1.8430   24.8069   66.2280 C   0  0  0  0  0
    3.9413   23.9838   66.8408 C   0  0  0  0  0
    5.1675   23.3553   66.1781 C   0  0  0  0  0
    6.7873   24.7665   67.0478 C   0  0  0  0  0
    7.0711   25.2723   65.6309 C   0  0  0  0  0
    5.4521   23.9451   64.7847 C   0  0  0  0  0
    2.0972   22.5538   66.7562 C   0  0  0  0  0
   -0.1925   24.6839   64.0964 C   0  0  0  0  0
   -1.2937   25.5607   64.6644 C   0  0  0  0  0
    2.5936   26.3206   62.0877 C   0  0  0  0  0
    2.9696   27.5022   61.3986 C   0  0  0  0  0
    4.2479   27.5780   60.8229 C   0  0  0  0  0
    5.1478   26.5176   60.9353 C   0  0  0  0  0
    4.7830   25.3651   61.6283 C   0  0  0  0  0
    3.5126   25.2669   62.1958 C   0  0  0  0  0
    1.0244   25.4670   63.9004 N   0  0  0  0  0
    2.7379   23.6710   66.0846 N   0  0  0  0  0
    2.1026   28.6459   61.3148 N   0  0  0  0  0
    6.3108   23.4351   67.0115 O   0  0  0  0  0
    5.8750   25.2826   64.8935 O   0  0  0  0  0
    2.7879   26.5860   64.9746 O   0  0  0  0  0
    0.2381   26.4339   61.9233 O   0  0  0  0  0
    1.2761   28.9733   62.3650 O   0  0  0  0  0
    2.2399   29.4644   60.3820 O   0  0  0  0  0
    6.8806   26.6515   60.1556 Br  0  0  0  0  0
  1 18  1  0  0  0
  1 12  1  0  0  0
  3  2  1  0  0  0
  3 19  1  0  0  0
  4 19  1  0  0  0
  4  5  1  0  0  0
  5 21  1  0  0  0
  6 21  1  0  0  0
  6  7  1  0  0  0
  7 22  1  0  0  0
  8 22  1  0  0  0
  8  5  1  0  0  0
  9 19  1  0  0  0
 10 18  1  0  0  0
 10 11  1  0  0  0
 13 20  1  0  0  0
 13 14  1  0  0  0
 15 27  1  0  0  0
 15 16  1  0  0  0
 17 12  1  0  0  0
 18  2  1  0  0  0
 20 25  1  0  0  0
  1 24  2  0  0  0
  2 23  2  0  0  0
 12 13  2  0  0  0
 14 15  2  0  0  0
 16 17  2  0  0  0
 20 26  2  0  0  0
M  CHG  2  20   1  25  -1
M  END
> <rmsd>
0.602193058

$$$$
UEIYPDSRCIPDHW-UHFFFAOYSA-N


 30 32  0  0  0  0  0  0  0  0999 V2000
    3.0910   25.9154   64.2255 C   0  0  0  0  0
    2.2467   27.3695   62.3955 C   0  0  0  0  0
    2.9454   27.8814   61.2833 C   0  0  0  0  0
    1.7335   29.9078   61.4283 C   0  0  0  0  0
    1.4519   31.2691   60.9033 C   0  0  0  0  0
    1.3017   28.2100   63.0164 C   0  0  0  0  0
    2.4544   24.9035   62.0274 C   0  0  0  0  0
    0.2642   25.3857   60.7981 C   0  0  0  0  0
   -0.4629   25.3322   59.4996 C   0  0  0  0  0
    1.9566   23.6074   60.1797 C   0  0  0  0  0
    3.1214   23.0267   60.9836 C   0  0  0  0  0
    3.0014   24.6511   64.9886 C   0  0  0  0  0
    0.5692   24.1929   64.5830 C   0  0  0  0  0
    0.1040   23.0448   63.7071 C   0  0  0  0  0
    3.4100   22.9609   66.3633 C   0  0  0  0  0
    3.9871   24.0675   65.7648 C   0  0  0  0  0
    2.5130   26.0464   62.9089 N   0  0  0  0  0
    2.6696   29.1309   60.8291 N   0  0  0  0  0
    1.0641   29.4489   62.5145 N   0  0  0  0  0
    1.5613   24.7885   60.9258 N   0  0  0  0  0
    3.3296   23.9598   62.0812 N   0  0  0  0  0
    1.8873   23.9048   65.1309 N   0  0  0  0  0
    2.1234   22.8986   65.9597 N   0  0  0  0  0
    5.3596   24.4616   65.8916 N   0  0  0  0  0
    4.2314   26.9804   60.4946 Cl  0  0  0  0  0
    0.3797   27.6883   64.4181 Cl  0  0  0  0  0
   -0.2928   25.9291   61.7864 O   0  0  0  0  0
    3.6694   26.9035   64.7546 O   0  0  0  0  0
    5.9221   25.3502   65.0058 O   0  0  0  0  0
    6.0895   23.9059   66.7378 O   0  0  0  0  0
  1 17  1  0  0  0
  1 12  1  0  0  0
  3 25  1  0  0  0
  3 18  1  0  0  0
  4 19  1  0  0  0
  5  4  1  0  0  0
  6 26  1  0  0  0
  6  2  1  0  0  0
  7 20  1  0  0  0
  9  8  1  0  0  0
 10 20  1  0  0  0
 10 11  1  0  0  0
 11 21  1  0  0  0
 12 22  1  0  0  0
 13 22  1  0  0  0
 13 14  1  0  0  0
 15 16  1  0  0  0
 16 24  1  0  0  0
 17  2  1  0  0  0
 17  7  1  0  0  0
 20  8  1  0  0  0
 22 23  1  0  0  0
 24 29  1  0  0  0
  1 28  2  0  0  0
  2  3  2  0  0  0
  4 18  2  0  0  0
  6 19  2  0  0  0
  7 21  2  0  0  0
  8 27  2  0  0  0
 15 23  2  0  0  0
 16 12  2  0  0  0
 24 30  2  0  0  0
M  CHG  2  24   1  29  -1
M  END
> <rmsd>
0.548003614

$$$$
JFMZFXLOHVWNDE-UHFFFAOYSA-N


 31 35  0  0  0  0  0  0  0  0999 V2000
    3.1997   25.2286   64.5932 C   0  0  0  0  0
    1.1031   25.7474   63.2778 C   0  0  0  0  0
    0.4474   27.3722   62.1714 C   0  0  0  0  0
    0.3930   28.6999   61.4887 C   0  0  0  0  0
    2.1605   30.0669   62.5405 C   0  0  0  0  0
    3.1000   29.5503   61.6370 C   0  0  0  0  0
    4.4591   29.8293   61.8032 C   0  0  0  0  0
    4.8764   30.6473   62.8587 C   0  0  0  0  0
    3.9359   31.1833   63.7461 C   0  0  0  0  0
    2.5764   30.8932   63.5878 C   0  0  0  0  0
    1.2735   28.6882   60.2322 C   0  0  0  0  0
    3.9366   24.2481   65.4190 C   0  0  0  0  0
    5.2219   24.5087   65.9471 C   0  0  0  0  0
    7.1679   26.0226   66.1824 C   0  0  0  0  0
    8.2025   25.3335   65.3126 C   0  0  0  0  0
    5.2498   22.3575   66.9487 C   0  0  0  0  0
    3.9706   22.0967   66.4249 C   0  0  0  0  0
    3.3491   20.8704   66.6749 C   0  0  0  0  0
    4.0031   19.9043   67.4469 C   0  0  0  0  0
    5.2762   20.1637   67.9679 C   0  0  0  0  0
    5.9009   21.3908   67.7195 C   0  0  0  0  0
    1.9017   24.8861   64.0927 N   0  0  0  0  0
   -0.5345   26.4523   62.1103 N   0  0  0  0  0
   -0.1165   25.4143   62.8191 N   0  0  0  0  0
    5.8394   23.5527   66.6976 N   0  0  0  0  0
    3.3521   23.0449   65.6775 N   0  0  0  0  0
    1.4605   26.9451   62.8858 O   0  0  0  0  0
    0.8105   29.7344   62.3867 O   0  0  0  0  0
    2.6595   28.7516   60.5790 O   0  0  0  0  0
    3.7025   26.3542   64.3275 O   0  0  0  0  0
    5.8582   25.7322   65.7098 O   0  0  0  0  0
  1 22  1  0  0  0
  1 12  1  0  0  0
  2 27  1  0  0  0
  3 27  1  0  0  0
  4  3  1  0  0  0
  4 28  1  0  0  0
  5 28  1  0  0  0
  6  7  1  0  0  0
  6 29  1  0  0  0
  8  9  1  0  0  0
 10  5  1  0  0  0
 11 29  1  0  0  0
 11  4  1  0  0  0
 12 26  1  0  0  0
 13 31  1  0  0  0
 13 25  1  0  0  0
 14 31  1  0  0  0
 14 15  1  0  0  0
 16 17  1  0  0  0
 17 18  1  0  0  0
 19 20  1  0  0  0
 21 16  1  0  0  0
 22  2  1  0  0  0
 23 24  1  0  0  0
  1 30  2  0  0  0
  2 24  2  0  0  0
  3 23  2  0  0  0
  5  6  2  0  0  0
  7  8  2  0  0  0
  9 10  2  0  0  0
 12 13  2  0  0  0
 16 25  2  0  0  0
 17 26  2  0  0  0
 18 19  2  0  0  0
 20 21  2  0  0  0
M  END
> <rmsd>
0.525297046

$$$$
RSAHCABQISMXDI-UHFFFAOYSA-N


 29 31  0  0  0  0  0  0  0  0999 V2000
    3.6532   26.9224   63.5461 C   0  0  0  0  0
    5.6033   25.4148   63.9910 C   0  0  0  0  0
    6.1460   24.0377   63.7363 C   0  0  0  0  0
    4.9545   22.8328   65.5479 C   0  0  0  0  0
    3.7451   22.0502   65.9300 C   0  0  0  0  0
    1.9549   23.6257   65.2131 C   0  0  0  0  0
    2.2054   23.4193   63.8473 C   0  0  0  0  0
    1.5037   24.1469   62.8833 C   0  0  0  0  0
    0.5372   25.0872   63.2727 C   0  0  0  0  0
    0.0315   25.7354   60.9290 C   0  0  0  0  0
   -0.6772   24.5053   60.3940 C   0  0  0  0  0
    0.2781   25.2810   64.6332 C   0  0  0  0  0
    0.9824   24.5542   65.5977 C   0  0  0  0  0
    6.3706   23.8430   62.2401 C   0  0  0  0  0
    5.0965   24.1647   61.4665 C   0  0  0  0  0
    4.7396   25.6358   61.6533 C   0  0  0  0  0
    2.9663   27.8878   62.6541 C   0  0  0  0  0
    3.4896   28.2605   61.4121 C   0  0  0  0  0
    1.6734   29.7262   61.0491 C   0  0  0  0  0
    1.7729   28.4941   63.0615 C   0  0  0  0  0
    4.6589   25.9992   63.0722 N   0  0  0  0  0
    2.8375   29.1632   60.6345 N   0  0  0  0  0
    1.1492   29.3927   62.2566 N   0  0  0  0  0
    5.9406   26.0266   65.0397 O   0  0  0  0  0
    5.2165   23.0614   64.1958 O   0  0  0  0  0
    5.6935   23.3217   66.4439 O   0  0  0  0  0
    2.6574   22.9296   66.2050 O   0  0  0  0  0
   -0.1698   25.8464   62.3337 O   0  0  0  0  0
    3.3255   26.8990   64.7648 O   0  0  0  0  0
  1 21  1  0  0  0
  1 17  1  0  0  0
  3  2  1  0  0  0
  3 25  1  0  0  0
  3 14  1  0  0  0
  4 25  1  0  0  0
  5  4  1  0  0  0
  5 27  1  0  0  0
  6 27  1  0  0  0
  7  8  1  0  0  0
  9 28  1  0  0  0
  9 12  1  0  0  0
 10 28  1  0  0  0
 10 11  1  0  0  0
 13  6  1  0  0  0
 14 15  1  0  0  0
 15 16  1  0  0  0
 16 21  1  0  0  0
 18 22  1  0  0  0
 19 23  1  0  0  0
 20 17  1  0  0  0
 21  2  1  0  0  0
  1 29  2  0  0  0
  2 24  2  0  0  0
  4 26  2  0  0  0
  6  7  2  0  0  0
  8  9  2  0  0  0
 12 13  2  0  0  0
 17 18  2  0  0  0
 19 22  2  0  0  0
 20 23  2  0  0  0
M  END
> <rmsd>
0.582285762

$$$$
MQGGGXHAOSMJHH-UHFFFAOYSA-N


 35 38  0  0  0  0  0  0  0  0999 V2000
    4.7683   23.6236   66.4761 C   0  0  0  0  0
    5.1003   25.9931   65.7140 C   0  0  0  0  0
    4.5906   27.3912   65.5724 C   0  0  0  0  0
    2.3623   27.3558   65.7227 C   0  0  0  0  0
    1.1424   28.0336   65.1169 C   0  0  0  0  0
    0.7415   28.0378   62.6853 C   0  0  0  0  0
    0.3187   27.2975   61.4805 C   0  0  0  0  0
    0.7519   27.6209   60.1663 C   0  0  0  0  0
    1.8171   28.5984   59.8598 C   0  0  0  0  0
    2.8108   30.1953   58.2699 C   0  0  0  0  0
    0.1914   26.9215   59.0909 C   0  0  0  0  0
   -0.7422   25.9110   59.3060 C   0  0  0  0  0
   -1.1115   25.5972   60.6104 C   0  0  0  0  0
    2.0244   25.9203   66.1223 C   0  0  0  0  0
    3.0779   25.3649   67.0754 C   0  0  0  0  0
    3.8317   22.4798   66.4318 C   0  0  0  0  0
    1.6551   21.6290   65.9839 C   0  0  0  0  0
    2.0673   20.3349   66.3029 C   0  0  0  0  0
    3.3940   20.1061   66.6913 C   0  0  0  0  0
    3.0880   17.6655   66.9996 C   0  0  0  0  0
    3.8630   16.5864   67.3766 C   0  0  0  0  0
    5.1322   17.0783   67.6338 C   0  0  0  0  0
    5.0845   18.4392   67.4042 C   0  0  0  0  0
    4.2791   21.1912   66.7515 C   0  0  0  0  0
    4.3000   24.9822   66.3637 N   0  0  0  0  0
   -0.5813   26.2887   61.6524 N   0  0  0  0  0
    2.5365   22.6616   66.0519 N   0  0  0  0  0
    3.8408   18.7802   67.0210 N   0  0  0  0  0
    6.2182   25.7048   65.2091 O   0  0  0  0  0
    3.4212   27.3788   64.8043 O   0  0  0  0  0
    0.7525   27.3789   63.9159 O   0  0  0  0  0
    1.0277   29.2649   62.6211 O   0  0  0  0  0
    1.8011   29.2655   58.6324 O   0  0  0  0  0
    2.7684   28.7836   60.6676 O   0  0  0  0  0
    6.0023   23.3994   66.6152 O   0  0  0  0  0
  1 25  1  0  0  0
  1 16  1  0  0  0
  3  2  1  0  0  0
  3 30  1  0  0  0
  4 30  1  0  0  0
  4  5  1  0  0  0
  4 14  1  0  0  0
  5 31  1  0  0  0
  6 31  1  0  0  0
  6  7  1  0  0  0
  7 26  1  0  0  0
  8  9  1  0  0  0
  8 11  1  0  0  0
  9 33  1  0  0  0
 10 33  1  0  0  0
 12 13  1  0  0  0
 14 15  1  0  0  0
 15 25  1  0  0  0
 17 27  1  0  0  0
 18 19  1  0  0  0
 19 28  1  0  0  0
 21 22  1  0  0  0
 23 28  1  0  0  0
 24 16  1  0  0  0
 25  2  1  0  0  0
 28 20  1  0  0  0
  1 35  2  0  0  0
  2 29  2  0  0  0
  6 32  2  0  0  0
  7  8  2  0  0  0
  9 34  2  0  0  0
 11 12  2  0  0  0
 13 26  2  0  0  0
 16 27  2  0  0  0
 17 18  2  0  0  0
 19 24  2  0  0  0
 20 21  2  0  0  0
 22 23  2  0  0  0
M  END
> <rmsd>
0.533726513

$$$$
LZMOLKRJWYICMM-UHFFFAOYSA-N


 32 34  0  0  0  0  0  0  0  0999 V2000
    3.7872   24.3049   65.1690 C   0  0  0  0  0
    3.4244   26.6113   64.2501 C   0  0  0  0  0
    3.0684   27.4878   63.0817 C   0  0  0  0  0
    4.3234   27.8336   62.2907 C   0  0  0  0  0
    4.1079   29.0476   61.4517 C   0  0  0  0  0
    4.6456   31.4175   61.0086 C   0  0  0  0  0
    3.3594   32.1013   61.4340 C   0  0  0  0  0
    0.2043   26.9422   64.4544 C   0  0  0  0  0
   -0.3534   25.7209   64.8510 C   0  0  0  0  0
   -0.5239   25.4348   66.2085 C   0  0  0  0  0
   -0.1406   26.3709   67.1734 C   0  0  0  0  0
   -0.3192   26.0657   68.6165 C   0  0  0  0  0
    0.4073   27.5956   66.7806 C   0  0  0  0  0
    0.5781   27.8814   65.4231 C   0  0  0  0  0
    2.2135   25.4622   61.9642 C   0  0  0  0  0
    2.2315   24.6626   63.2621 C   0  0  0  0  0
    5.1932   24.4162   65.5991 C   0  0  0  0  0
    6.9285   23.7759   67.0773 C   0  0  0  0  0
    7.8270   24.5859   66.3868 C   0  0  0  0  0
    7.3665   25.3028   65.2851 C   0  0  0  0  0
    3.2365   25.1881   64.1777 N   0  0  0  0  0
    2.0458   26.9037   62.1972 N   0  0  0  0  0
    5.6339   23.7034   66.6720 N   0  0  0  0  0
    6.0646   25.2040   64.9106 N   0  0  0  0  0
    3.8982   27.1435   65.2901 O   0  0  0  0  0
    4.8249   30.2109   61.7396 O   0  0  0  0  0
    3.2986   29.0106   60.4850 O   0  0  0  0  0
   -0.5705   26.5263   61.9410 O   0  0  0  0  0
    0.1939   28.7640   62.5230 O   0  0  0  0  0
    3.0659   23.3936   65.6588 O   0  0  0  0  0
    0.4380   27.2978   62.7468 S   0  0  0  0  0
    9.4996   24.6967   66.8898 Cl  0  0  0  0  0
  1 21  1  0  0  0
  1 17  1  0  0  0
  3  2  1  0  0  0
  3  4  1  0  0  0
  3 22  1  0  0  0
  4  5  1  0  0  0
  5 26  1  0  0  0
  6 26  1  0  0  0
  6  7  1  0  0  0
  9 10  1  0  0  0
 11 13  1  0  0  0
 12 11  1  0  0  0
 14  8  1  0  0  0
 15 22  1  0  0  0
 15 16  1  0  0  0
 16 21  1  0  0  0
 17 24  1  0  0  0
 18 23  1  0  0  0
 19 32  1  0  0  0
 19 20  1  0  0  0
 21  2  1  0  0  0
 31 22  1  0  0  0
 31  8  1  0  0  0
  1 30  2  0  0  0
  2 25  2  0  0  0
  5 27  2  0  0  0
  8  9  2  0  0  0
 10 11  2  0  0  0
 13 14  2  0  0  0
 17 23  2  0  0  0
 18 19  2  0  0  0
 20 24  2  0  0  0
 31 28  2  0  0  0
 31 29  2  0  0  0
M  END
> <rmsd>
0.601699293

$$$$
