PubChem-71719656 CHEMBL2303767


 30 32  0  0  0  0  0  0  0  0999 V2000
    1.7145   28.6878   60.5225 O   0  0  0  0  0
    1.3029   29.7110   62.5325 O   0  0  0  0  0
   -0.6830   27.2221   61.5588 O   0  0  0  0  0
    2.1988   21.8140   65.6419 O   0  0  0  0  0
    3.3398   23.6044   64.7918 O   0  0  0  0  0
    2.9179   26.3882   64.2498 O   0  0  0  0  0
    6.5673   25.0677   65.5933 O   0  0  0  0  0
    5.6323   23.4454   67.5742 O   0  0  0  0  0
    4.4757   21.0237   67.0780 O   0  0  0  0  0
    1.2428   28.6118   61.6866 C   0  0  0  0  0
    0.6026   27.3527   62.1509 C   0  0  0  0  0
   -1.5352   26.1511   61.8408 C   0  0  0  0  0
   -2.7621   26.0687   61.1769 C   0  0  0  0  0
   -3.6340   25.0092   61.4360 C   0  0  0  0  0
   -3.2824   24.0255   62.3631 C   0  0  0  0  0
   -2.0559   24.0904   63.0438 C   0  0  0  0  0
   -1.6811   23.0454   64.0261 C   0  0  0  0  0
   -2.5077   21.9275   64.2330 C   0  0  0  0  0
   -2.1480   20.9355   65.1501 C   0  0  0  0  0
   -0.9591   21.0519   65.8738 C   0  0  0  0  0
   -0.1329   22.1639   65.6866 C   0  0  0  0  0
    1.1468   22.2743   66.4372 C   0  0  0  0  0
    3.2442   22.7103   65.8756 C   0  0  0  0  0
    4.2309   24.6257   65.1726 C   0  0  0  0  0
    4.1571   25.7550   64.1596 C   0  0  0  0  0
    5.6586   24.0636   65.2477 C   0  0  0  0  0
    5.7112   22.9271   66.2761 C   0  0  0  0  0
    4.5635   21.9413   66.0280 C   0  0  0  0  0
   -0.4888   23.1505   64.7617 C   0  0  0  0  0
   -1.1881   25.1605   62.7730 C   0  0  0  0  0
 10  2  1  0  0  0
 11 10  1  0  0  0
 11  3  1  0  0  0
 12  3  1  0  0  0
 13 14  1  0  0  0
 15 16  1  0  0  0
 16 17  1  0  0  0
 18 19  1  0  0  0
 20 21  1  0  0  0
 22 21  1  0  0  0
 22  4  1  0  0  0
 23  4  1  0  0  0
 23  5  1  0  0  0
 24  5  1  0  0  0
 24 25  1  0  0  0
 24 26  1  0  0  0
 25  6  1  0  0  0
 26  7  1  0  0  0
 26 27  1  0  0  0
 27  8  1  0  0  0
 27 28  1  0  0  0
 28  9  1  0  0  0
 28 23  1  0  0  0
 29 17  1  0  0  0
 30 12  1  0  0  0
 10  1  2  0  0  0
 12 13  2  0  0  0
 14 15  2  0  0  0
 16 30  2  0  0  0
 17 18  2  0  0  0
 19 20  2  0  0  0
 21 29  2  0  0  0
M  END
> <rmsd>
0.886604428

$$$$
PubChem-54378575


 24 25  0  0  0  0  0  0  0  0999 V2000
   -2.1498   27.0163   65.3886 C   0  0  0  0  0
   -1.1230   27.6907   66.2888 C   0  0  0  0  0
    0.1363   28.0183   65.4909 C   0  0  0  0  0
    0.7423   26.7624   64.8568 C   0  0  0  0  0
   -0.2893   25.9697   64.0377 C   0  0  0  0  0
   -1.5773   25.7174   64.8279 C   0  0  0  0  0
    0.3402   26.1591   61.7926 C   0  0  0  0  0
    0.5225   27.1849   60.6874 C   0  0  0  0  0
    1.4254   28.2865   61.1302 C   0  0  0  0  0
    2.5949   24.8622   64.8816 C   0  0  0  0  0
    3.9569   25.5376   64.6592 C   0  0  0  0  0
    4.8667   25.3233   65.8642 C   0  0  0  0  0
    4.8954   23.8465   66.2474 C   0  0  0  0  0
    3.4570   23.3226   66.3720 C   0  0  0  0  0
    3.4328   21.8562   66.7864 C   0  0  0  0  0
   -0.5868   26.6629   62.7935 N   0  0  0  0  0
    2.5286   28.4609   60.5514 O   0  0  0  0  0
    1.0484   29.1314   62.1665 O   0  0  0  0  0
    2.7442   23.4841   65.1618 O   0  0  0  0  0
    4.0120   21.0568   65.7986 O   0  0  0  0  0
    5.5631   23.7005   67.4653 O   0  0  0  0  0
    6.1585   25.7555   65.5606 O   0  0  0  0  0
    3.8011   26.9008   64.4010 O   0  0  0  0  0
    1.5345   25.7110   66.1161 S   0  0  0  0  0
  1  2  1  0  0  0
  2  3  1  0  0  0
  3  4  1  0  0  0
  4  5  1  0  0  0
  4 24  1  0  0  0
  5  6  1  0  0  0
  5 16  1  0  0  0
  6  1  1  0  0  0
  7 16  1  0  0  0
  7  8  1  0  0  0
  8  9  1  0  0  0
  9 18  1  0  0  0
 10 24  1  0  0  0
 10 11  1  0  0  0
 10 19  1  0  0  0
 11 12  1  0  0  0
 11 23  1  0  0  0
 12 13  1  0  0  0
 12 22  1  0  0  0
 13 14  1  0  0  0
 13 21  1  0  0  0
 14 19  1  0  0  0
 14 15  1  0  0  0
 15 20  1  0  0  0
  9 17  2  0  0  0
M  END
> <rmsd>
0.595120192

$$$$
PubChem-100955587


 34 38  0  0  0  0  0  0  0  0999 V2000
    4.7171   28.7943   61.4008 C   0  0  0  0  0
    3.2413   28.8459   61.7598 C   0  0  0  0  0
    1.6214   28.5160   60.2460 C   0  0  0  0  0
    0.1916   28.8740   60.7001 C   0  0  0  0  0
   -0.7067   27.6470   60.6382 C   0  0  0  0  0
    1.0612   26.0999   60.9433 C   0  0  0  0  0
    2.1264   27.2092   60.7985 C   0  0  0  0  0
    1.6137   24.9398   61.7223 C   0  0  0  0  0
    2.3970   24.0090   63.8615 C   0  0  0  0  0
    2.5445   24.4425   65.3255 C   0  0  0  0  0
    3.6509   25.4794   65.6020 C   0  0  0  0  0
    4.9250   24.8678   66.1173 C   0  0  0  0  0
    5.0864   23.3993   65.7130 C   0  0  0  0  0
    3.8205   22.5826   65.8940 C   0  0  0  0  0
    5.4718   21.6737   67.0894 C   0  0  0  0  0
    5.7860   21.6783   68.5720 C   0  0  0  0  0
    6.0527   20.4092   66.4799 C   0  0  0  0  0
    5.3848   26.3853   64.5308 C   0  0  0  0  0
    5.7193   27.8478   64.7533 C   0  0  0  0  0
    5.9754   25.9526   63.2024 C   0  0  0  0  0
   -1.1918   25.5453   61.4726 C   0  0  0  0  0
   -0.3804   30.6736   61.8596 C   0  0  0  0  0
    3.0886   29.6596   63.0304 C   0  0  0  0  0
    2.5257   29.4743   60.7134 O   0  0  0  0  0
    2.7626   27.5402   61.9891 O   0  0  0  0  0
    1.8480   23.8525   61.1282 O   0  0  0  0  0
    1.8502   25.0693   63.0918 O   0  0  0  0  0
    2.6653   23.3431   66.2070 O   0  0  0  0  0
    4.0748   21.6776   66.9198 O   0  0  0  0  0
    6.0724   22.7999   66.4937 O   0  0  0  0  0
    5.9612   25.6177   65.5653 O   0  0  0  0  0
    3.9856   26.2333   64.4805 O   0  0  0  0  0
    0.1759   29.4009   61.9967 O   0  0  0  0  0
   -0.1934   26.6045   61.5212 N   0  0  0  0  0
  1  2  1  0  0  0
  2 24  1  0  0  0
  2 23  1  0  0  0
  2 25  1  0  0  0
  3 24  1  0  0  0
  3  4  1  0  0  0
  4  5  1  0  0  0
  4 33  1  0  0  0
  5 34  1  0  0  0
  6 34  1  0  0  0
  6  7  1  0  0  0
  6  8  1  0  0  0
  7 25  1  0  0  0
  7  3  1  0  0  0
  8 27  1  0  0  0
  9 27  1  0  0  0
 10  9  1  0  0  0
 10 11  1  0  0  0
 10 28  1  0  0  0
 11 12  1  0  0  0
 11 32  1  0  0  0
 12 13  1  0  0  0
 12 31  1  0  0  0
 13 14  1  0  0  0
 13 30  1  0  0  0
 14 28  1  0  0  0
 14 29  1  0  0  0
 15 29  1  0  0  0
 15 30  1  0  0  0
 15 16  1  0  0  0
 15 17  1  0  0  0
 18 31  1  0  0  0
 18 32  1  0  0  0
 18 19  1  0  0  0
 18 20  1  0  0  0
 21 34  1  0  0  0
 22 33  1  0  0  0
  8 26  2  0  0  0
M  END
> <rmsd>
0.66141063

$$$$
PubChem-11212120


 29 31  0  0  0  0  0  0  0  0999 V2000
   -0.5334   27.7309   63.9638 C   0  0  0  0  0
   -0.4170   27.5454   62.4572 C   0  0  0  0  0
    0.4606   28.4950   60.5487 C   0  0  0  0  0
    1.9555   28.2051   60.4090 C   0  0  0  0  0
    2.4573   26.9732   61.1230 C   0  0  0  0  0
    1.7152   26.6570   62.4316 C   0  0  0  0  0
    2.3459   25.4490   63.1045 C   0  0  0  0  0
    1.8806   25.3498   64.5468 C   0  0  0  0  0
    2.6193   24.2620   65.2565 C   0  0  0  0  0
    3.9908   24.3676   65.5804 C   0  0  0  0  0
    4.6004   23.2676   66.2113 C   0  0  0  0  0
    2.5466   22.0834   66.1871 C   0  0  0  0  0
    0.4527   20.7880   66.2050 C   0  0  0  0  0
    6.6077   22.2376   67.2072 C   0  0  0  0  0
    3.9116   28.6649   61.3478 C   0  0  0  0  0
    4.2171   29.2004   62.7340 C   0  0  0  0  0
    5.0617   29.0283   60.4272 C   0  0  0  0  0
   -1.8306   27.3259   61.9364 C   0  0  0  0  0
    0.1247   28.7312   61.8953 O   0  0  0  0  0
    0.3571   26.3894   62.1689 O   0  0  0  0  0
    1.8336   20.9268   66.5040 O   0  0  0  0  0
    5.9516   23.3198   66.5635 O   0  0  0  0  0
    4.2240   26.6855   65.3800 O   0  0  0  0  0
    6.0813   25.4703   64.9548 O   0  0  0  0  0
    3.7934   27.2586   61.4097 O   0  0  0  0  0
    2.7276   29.2641   60.8728 O   0  0  0  0  0
    3.8647   22.1585   66.4960 N   0  0  0  0  0
    1.9376   23.1313   65.5729 N   0  0  0  0  0
    4.7492   25.5568   65.2875 N   0  0  0  0  0
  1  2  1  0  0  0
  2 19  1  0  0  0
  2 18  1  0  0  0
  2 20  1  0  0  0
  3 19  1  0  0  0
  4  3  1  0  0  0
  4  5  1  0  0  0
  4 26  1  0  0  0
  5  6  1  0  0  0
  5 25  1  0  0  0
  6 20  1  0  0  0
  6  7  1  0  0  0
  7  8  1  0  0  0
  8  9  1  0  0  0
  9 28  1  0  0  0
 10 11  1  0  0  0
 10 29  1  0  0  0
 11 22  1  0  0  0
 12 27  1  0  0  0
 12 21  1  0  0  0
 13 21  1  0  0  0
 14 22  1  0  0  0
 15 25  1  0  0  0
 15 26  1  0  0  0
 15 16  1  0  0  0
 15 17  1  0  0  0
 29 24  1  0  0  0
  9 10  2  0  0  0
 11 27  2  0  0  0
 12 28  2  0  0  0
 29 23  2  0  0  0
M  CHG  2  29   1  24  -1
M  END
> <rmsd>
0.69341296

$$$$
PubChem-121868146 CSC057523064 MCULE-7883001231 ZINC000263451362


 20 20  0  0  0  0  0  0  0  0999 V2000
    4.5056   27.5800   63.7234 C   0  0  0  0  0
    4.5344   25.4403   64.9518 C   0  0  0  0  0
    6.4080   24.8768   66.2876 C   0  0  0  0  0
    4.5925   23.3595   66.1772 C   0  0  0  0  0
    4.6920   21.2336   67.4266 C   0  0  0  0  0
    3.9012   24.2275   65.3037 C   0  0  0  0  0
    2.5559   23.8725   64.7744 C   0  0  0  0  0
    0.7602   24.1582   63.0203 C   0  0  0  0  0
    0.5185   24.9866   61.7729 C   0  0  0  0  0
    1.0774   27.0127   61.0911 C   0  0  0  0  0
    1.5574   28.3436   61.5672 C   0  0  0  0  0
    3.8983   26.3556   64.1080 O   0  0  0  0  0
    4.0287   22.1363   66.5538 O   0  0  0  0  0
    1.8364   23.0325   65.3808 O   0  0  0  0  0
    0.4104   26.3359   62.1139 O   0  0  0  0  0
    2.1717   29.1013   60.7726 O   0  0  0  0  0
    1.3350   28.7548   62.8765 O   0  0  0  0  0
    5.7673   25.7282   65.4513 N   0  0  0  0  0
    5.8224   23.7083   66.6437 N   0  0  0  0  0
    2.0678   24.4741   63.5729 N   0  0  0  0  0
  1 12  1  0  0  0
  2 12  1  0  0  0
  3 18  1  0  0  0
  4 19  1  0  0  0
  4 13  1  0  0  0
  5 13  1  0  0  0
  6  7  1  0  0  0
  6  2  1  0  0  0
  7 20  1  0  0  0
  8 20  1  0  0  0
  8  9  1  0  0  0
  9 15  1  0  0  0
 10 15  1  0  0  0
 10 11  1  0  0  0
 11 17  1  0  0  0
  2 18  2  0  0  0
  3 19  2  0  0  0
  4  6  2  0  0  0
  7 14  2  0  0  0
 11 16  2  0  0  0
M  END
> <rmsd>
0.719087064

$$$$
