NVEWSLUOTFWPJU-UHFFFAOYSA-N


 33 36  0  0  0  0  0  0  0  0999 V2000
    4.5137   23.7027   66.0270 C   0  0  0  0  0
    4.8648   25.9415   64.9254 C   0  0  0  0  0
    4.2551   27.1667   64.3096 C   0  0  0  0  0
    2.1694   26.4011   64.7002 C   0  0  0  0  0
    0.7345   26.8116   64.9894 C   0  0  0  0  0
    0.1355   27.6288   62.7360 C   0  0  0  0  0
   -0.0213   28.7931   61.8181 C   0  0  0  0  0
    2.3496   29.5072   61.7133 C   0  0  0  0  0
    4.9803   29.0152   61.0681 C   0  0  0  0  0
    4.6493   30.2084   61.7069 C   0  0  0  0  0
    3.3179   30.4573   62.0328 C   0  0  0  0  0
    2.5626   25.2261   65.5957 C   0  0  0  0  0
    3.7039   22.4716   66.0785 C   0  0  0  0  0
    0.9487   20.4408   65.3595 C   0  0  0  0  0
    0.0062   21.1539   64.6038 C   0  0  0  0  0
   -1.1835   20.5416   64.1991 C   0  0  0  0  0
   -1.4389   19.2123   64.5470 C   0  0  0  0  0
   -2.7035   18.5616   64.1167 C   0  0  0  0  0
   -0.5049   18.4951   65.2997 C   0  0  0  0  0
    0.6850   19.1070   65.7048 C   0  0  0  0  0
    3.9940   24.9258   65.4669 N   0  0  0  0  0
    2.7257   28.3576   61.0868 N   0  0  0  0  0
    4.0015   28.1196   60.7746 N   0  0  0  0  0
    4.0970   21.3372   66.6936 N   0  0  0  0  0
    3.1123   20.4776   66.4880 N   0  0  0  0  0
    2.1682   21.0690   65.7746 N   0  0  0  0  0
    2.5002   22.3179   65.4931 N   0  0  0  0  0
    6.1139   25.7832   64.8861 O   0  0  0  0  0
    3.0374   27.4811   64.9404 O   0  0  0  0  0
    0.3316   27.8478   64.1017 O   0  0  0  0  0
    0.0957   26.4595   62.2679 O   0  0  0  0  0
    1.0130   29.7455   62.0461 O   0  0  0  0  0
    5.6875   23.6692   66.4862 O   0  0  0  0  0
  1 21  1  0  0  0
  1 13  1  0  0  0
  3  2  1  0  0  0
  3 29  1  0  0  0
  4 29  1  0  0  0
  4  5  1  0  0  0
  4 12  1  0  0  0
  5 30  1  0  0  0
  6 30  1  0  0  0
  7  6  1  0  0  0
  7 32  1  0  0  0
  8 32  1  0  0  0
  9 10  1  0  0  0
 11  8  1  0  0  0
 12 21  1  0  0  0
 13 24  1  0  0  0
 15 16  1  0  0  0
 17 19  1  0  0  0
 18 17  1  0  0  0
 20 14  1  0  0  0
 21  2  1  0  0  0
 22 23  1  0  0  0
 26 25  1  0  0  0
 26 14  1  0  0  0
 26 27  1  0  0  0
  1 33  2  0  0  0
  2 28  2  0  0  0
  6 31  2  0  0  0
  8 22  2  0  0  0
  9 23  2  0  0  0
 10 11  2  0  0  0
 13 27  2  0  0  0
 14 15  2  0  0  0
 16 17  2  0  0  0
 19 20  2  0  0  0
 24 25  2  0  0  0
M  END
> <rmsd>
0.709610999

$$$$
NVEWSLUOTFWPJU-UHFFFAOYSA-N


 33 36  0  0  0  0  0  0  0  0999 V2000
    4.7345   23.9118   66.0704 C   0  0  0  0  0
    4.9821   26.1351   64.9107 C   0  0  0  0  0
    4.3162   27.3211   64.2765 C   0  0  0  0  0
    2.2678   26.4865   64.7198 C   0  0  0  0  0
    0.8230   26.8491   65.0233 C   0  0  0  0  0
    0.1575   27.5884   62.7616 C   0  0  0  0  0
   -0.0583   28.7234   61.8193 C   0  0  0  0  0
    2.2815   29.5243   61.6582 C   0  0  0  0  0
    4.9186   29.1171   60.9808 C   0  0  0  0  0
    4.5522   30.3120   61.5968 C   0  0  0  0  0
    3.2175   30.5179   61.9390 C   0  0  0  0  0
    2.7199   25.3492   65.6360 C   0  0  0  0  0
    3.9735   22.6526   66.1642 C   0  0  0  0  0
    1.2872   20.5018   65.5393 C   0  0  0  0  0
    0.3063   21.1602   64.7830 C   0  0  0  0  0
   -0.8653   20.4935   64.4127 C   0  0  0  0  0
   -1.0640   19.1643   64.7960 C   0  0  0  0  0
   -2.3094   18.4559   64.4023 C   0  0  0  0  0
   -0.0915   18.5015   65.5496 C   0  0  0  0  0
    1.0804   19.1677   65.9202 C   0  0  0  0  0
    4.1595   25.1005   65.4903 N   0  0  0  0  0
    2.6915   28.3750   61.0526 N   0  0  0  0  0
    3.9703   28.1781   60.7248 N   0  0  0  0  0
    4.4196   21.5490   66.7992 N   0  0  0  0  0
    3.4654   20.6480   66.6303 N   0  0  0  0  0
    2.4881   21.1857   65.9191 N   0  0  0  0  0
    2.7675   22.4392   65.6028 N   0  0  0  0  0
    6.2356   26.0235   64.8542 O   0  0  0  0  0
    3.0974   27.6042   64.9201 O   0  0  0  0  0
    0.3667   27.8476   64.1183 O   0  0  0  0  0
    0.1552   26.4075   62.3218 O   0  0  0  0  0
    0.9421   29.7196   62.0076 O   0  0  0  0  0
    5.9159   23.9341   66.5105 O   0  0  0  0  0
  1 21  1  0  0  0
  1 13  1  0  0  0
  3  2  1  0  0  0
  3 29  1  0  0  0
  4 29  1  0  0  0
  4  5  1  0  0  0
  4 12  1  0  0  0
  5 30  1  0  0  0
  6 30  1  0  0  0
  7  6  1  0  0  0
  7 32  1  0  0  0
  8 32  1  0  0  0
  9 10  1  0  0  0
 11  8  1  0  0  0
 12 21  1  0  0  0
 13 24  1  0  0  0
 15 16  1  0  0  0
 17 19  1  0  0  0
 18 17  1  0  0  0
 20 14  1  0  0  0
 21  2  1  0  0  0
 22 23  1  0  0  0
 26 25  1  0  0  0
 26 14  1  0  0  0
 26 27  1  0  0  0
  1 33  2  0  0  0
  2 28  2  0  0  0
  6 31  2  0  0  0
  8 22  2  0  0  0
  9 23  2  0  0  0
 10 11  2  0  0  0
 13 27  2  0  0  0
 14 15  2  0  0  0
 16 17  2  0  0  0
 19 20  2  0  0  0
 24 25  2  0  0  0
M  END
> <rmsd>
0.779057086

$$$$
CUMCBBDOFADIOW-UHFFFAOYSA-N


 37 41  0  0  0  0  0  0  0  0999 V2000
    4.4602   24.9347   64.8271 C   0  0  0  0  0
    2.8389   24.5657   63.0312 C   0  0  0  0  0
    1.6710   24.9460   62.3382 C   0  0  0  0  0
    1.2298   24.1950   61.2378 C   0  0  0  0  0
    1.9447   23.0727   60.8173 C   0  0  0  0  0
    3.1068   22.6945   61.4897 C   0  0  0  0  0
    3.5517   23.4356   62.5859 C   0  0  0  0  0
    0.9859   26.0902   62.7533 C   0  0  0  0  0
    0.8019   28.0841   64.1606 C   0  0  0  0  0
    1.3499   29.1736   63.3052 C   0  0  0  0  0
    3.4870   29.9902   62.4077 C   0  0  0  0  0
    3.9431   28.7768   61.6695 C   0  0  0  0  0
    3.5519   27.1547   59.9783 C   0  0  0  0  0
    4.6696   26.4253   60.3894 C   0  0  0  0  0
    5.4262   26.8881   61.4673 C   0  0  0  0  0
    5.0609   28.0681   62.1175 C   0  0  0  0  0
    2.5856   26.4352   64.4778 C   0  0  0  0  0
    4.5114   23.6813   65.5931 C   0  0  0  0  0
    6.0326   21.2390   67.5782 C   0  0  0  0  0
    7.3783   21.5648   67.8032 C   0  0  0  0  0
    8.1877   20.7274   68.5765 C   0  0  0  0  0
    7.6573   19.5589   69.1298 C   0  0  0  0  0
    8.5179   18.6691   69.9518 C   0  0  0  0  0
    6.3175   19.2275   68.9106 C   0  0  0  0  0
    5.5076   20.0646   68.1374 C   0  0  0  0  0
    3.2707   25.3079   64.1018 N   0  0  0  0  0
    1.4569   26.8221   63.8061 N   0  0  0  0  0
    3.2113   28.3023   60.6247 N   0  0  0  0  0
    3.4643   22.8477   65.7588 N   0  0  0  0  0
    3.9297   21.8631   66.5098 N   0  0  0  0  0
    5.2025   22.0971   66.7851 N   0  0  0  0  0
    5.6073   23.2282   66.2311 N   0  0  0  0  0
   -0.0602   26.4532   62.1441 O   0  0  0  0  0
    2.6664   29.5920   63.4969 O   0  0  0  0  0
    0.6614   29.6291   62.3535 O   0  0  0  0  0
    2.9967   27.1244   65.4554 O   0  0  0  0  0
    5.4593   25.7032   64.8261 O   0  0  0  0  0
  1 26  1  0  0  0
  1 18  1  0  0  0
  2  3  1  0  0  0
  3  8  1  0  0  0
  4  5  1  0  0  0
  6  7  1  0  0  0
  8 27  1  0  0  0
  9 27  1  0  0  0
  9 10  1  0  0  0
 10 34  1  0  0  0
 11 34  1  0  0  0
 11 12  1  0  0  0
 13 28  1  0  0  0
 14 15  1  0  0  0
 16 12  1  0  0  0
 17 26  1  0  0  0
 18 29  1  0  0  0
 20 21  1  0  0  0
 22 24  1  0  0  0
 23 22  1  0  0  0
 25 19  1  0  0  0
 26  2  1  0  0  0
 27 17  1  0  0  0
 31 30  1  0  0  0
 31 19  1  0  0  0
 31 32  1  0  0  0
  1 37  2  0  0  0
  3  4  2  0  0  0
  5  6  2  0  0  0
  7  2  2  0  0  0
  8 33  2  0  0  0
 10 35  2  0  0  0
 12 28  2  0  0  0
 13 14  2  0  0  0
 15 16  2  0  0  0
 17 36  2  0  0  0
 18 32  2  0  0  0
 19 20  2  0  0  0
 21 22  2  0  0  0
 24 25  2  0  0  0
 29 30  2  0  0  0
M  END
> <rmsd>
0.744790196

$$$$
PCHKTWGFMBZSPP-UHFFFAOYSA-N


 33 35  0  0  0  0  0  0  0  0999 V2000
    4.0499   25.6183   64.3491 C   0  0  0  0  0
    3.8060   24.2163   62.2154 C   0  0  0  0  0
    3.1660   24.4993   60.8446 C   0  0  0  0  0
    1.1517   25.9488   60.3717 C   0  0  0  0  0
    0.1337   25.1444   61.1207 C   0  0  0  0  0
   -0.2947   23.8929   60.6487 C   0  0  0  0  0
   -1.2157   23.1636   61.4012 C   0  0  0  0  0
   -1.7113   23.6776   62.6045 C   0  0  0  0  0
   -2.6673   22.8828   63.4447 C   0  0  0  0  0
   -1.2399   24.9178   63.0490 C   0  0  0  0  0
    2.8253   26.3221   62.2284 C   0  0  0  0  0
    4.3335   24.4744   65.2440 C   0  0  0  0  0
    3.4254   23.4070   65.3673 C   0  0  0  0  0
    1.2794   22.3648   64.7369 C   0  0  0  0  0
    4.8556   22.3508   66.9316 C   0  0  0  0  0
    5.5075   24.4362   66.0166 C   0  0  0  0  0
    7.6479   25.4715   66.6737 C   0  0  0  0  0
    3.5634   25.4078   63.0142 N   0  0  0  0  0
    2.4791   25.7836   60.9591 N   0  0  0  0  0
   -0.3421   25.6168   62.3053 N   0  0  0  0  0
    2.4664   27.4965   62.6651 N   0  0  0  0  0
    1.8290   28.4789   61.8888 N   0  0  0  0  0
    3.7123   22.3713   66.2025 N   0  0  0  0  0
    5.7394   23.3758   66.8377 N   0  0  0  0  0
    0.2919   23.2182   59.1365 Cl  0  0  0  0  0
   -3.3432   21.9562   62.6688 F   0  0  0  0  0
   -3.5945   23.7235   64.0351 F   0  0  0  0  0
   -1.9671   22.2174   64.4336 F   0  0  0  0  0
    1.1352   29.4793   62.5262 O   0  0  0  0  0
    2.1191   28.6212   60.6822 O   0  0  0  0  0
    4.2396   26.7923   64.7680 O   0  0  0  0  0
    2.2226   23.4221   64.6545 O   0  0  0  0  0
    6.4404   25.4737   65.9272 O   0  0  0  0  0
  1 18  1  0  0  0
  1 12  1  0  0  0
  2 18  1  0  0  0
  2  3  1  0  0  0
  3 19  1  0  0  0
  4 19  1  0  0  0
  4  5  1  0  0  0
  5 20  1  0  0  0
  6 25  1  0  0  0
  6  7  1  0  0  0
  8 10  1  0  0  0
  9  8  1  0  0  0
  9 26  1  0  0  0
  9 27  1  0  0  0
  9 28  1  0  0  0
 11 18  1  0  0  0
 13 32  1  0  0  0
 13 23  1  0  0  0
 14 32  1  0  0  0
 15 24  1  0  0  0
 16 33  1  0  0  0
 16 12  1  0  0  0
 17 33  1  0  0  0
 19 11  1  0  0  0
 22 21  1  0  0  0
 22 29  1  0  0  0
  1 31  2  0  0  0
  5  6  2  0  0  0
  7  8  2  0  0  0
 10 20  2  0  0  0
 11 21  2  0  0  0
 12 13  2  0  0  0
 15 23  2  0  0  0
 16 24  2  0  0  0
 22 30  2  0  0  0
M  CHG  2  22   1  29  -1
M  END
> <rmsd>
0.756960928

$$$$
CQFPZDWTPPRXKY-UHFFFAOYSA-N


 28 31  0  0  0  0  0  0  0  0999 V2000
    3.3532   25.1189   64.5020 C   0  0  0  0  0
    1.5411   25.4848   62.7738 C   0  0  0  0  0
    0.9163   27.1048   61.6426 C   0  0  0  0  0
    0.8013   28.4784   61.0670 C   0  0  0  0  0
    2.9632   29.5807   61.5259 C   0  0  0  0  0
    2.4928   29.9832   62.7839 C   0  0  0  0  0
    3.3643   30.5761   63.7012 C   0  0  0  0  0
    4.7016   30.7902   63.3505 C   0  0  0  0  0
    5.1653   30.4106   62.0855 C   0  0  0  0  0
    4.2962   29.8051   61.1717 C   0  0  0  0  0
    0.1937   29.4391   62.0978 C   0  0  0  0  0
    4.0427   24.1844   65.4312 C   0  0  0  0  0
    3.3917   23.0398   65.9402 C   0  0  0  0  0
    1.3729   21.6292   66.0916 C   0  0  0  0  0
    5.3351   22.4482   67.1587 C   0  0  0  0  0
    5.3751   24.4134   65.8376 C   0  0  0  0  0
    7.4228   25.7867   65.7394 C   0  0  0  0  0
    2.2584   24.6626   63.6974 N   0  0  0  0  0
    0.1117   26.0777   61.3084 N   0  0  0  0  0
    0.5119   25.0415   62.0301 N   0  0  0  0  0
    4.0557   22.2052   66.7856 N   0  0  0  0  0
    5.9819   23.5415   66.6883 N   0  0  0  0  0
    1.7975   26.7491   62.5462 O   0  0  0  0  0
    2.0868   28.9438   60.6408 O   0  0  0  0  0
    1.1493   29.7774   63.1064 O   0  0  0  0  0
    3.7364   26.3175   64.4150 O   0  0  0  0  0
    2.0644   22.7663   65.5970 O   0  0  0  0  0
    6.0806   25.5220   65.3596 O   0  0  0  0  0
  1 18  1  0  0  0
  1 12  1  0  0  0
  2 23  1  0  0  0
  3 23  1  0  0  0
  4  3  1  0  0  0
  4 24  1  0  0  0
  5 24  1  0  0  0
  6  7  1  0  0  0
  6 25  1  0  0  0
  8  9  1  0  0  0
 10  5  1  0  0  0
 11 25  1  0  0  0
 11  4  1  0  0  0
 13 27  1  0  0  0
 13 21  1  0  0  0
 14 27  1  0  0  0
 15 22  1  0  0  0
 16 28  1  0  0  0
 16 12  1  0  0  0
 17 28  1  0  0  0
 18  2  1  0  0  0
 19 20  1  0  0  0
  1 26  2  0  0  0
  2 20  2  0  0  0
  3 19  2  0  0  0
  5  6  2  0  0  0
  7  8  2  0  0  0
  9 10  2  0  0  0
 12 13  2  0  0  0
 15 21  2  0  0  0
 16 22  2  0  0  0
M  END
> <rmsd>
0.721520007

$$$$
