PubChem-129135120


 21 21  0  0  0  0  0  0  0  0999 V2000
    0.5988   25.5683   59.7501 C   0  0  0  0  0
    0.3943   25.4619   61.2503 C   0  0  0  0  0
    2.0747   26.1674   62.5471 C   0  0  0  0  0
    0.9092   27.1011   62.6817 C   0  0  0  0  0
    1.3152   28.5643   62.4763 C   0  0  0  0  0
    1.6643   28.8876   61.0274 C   0  0  0  0  0
    2.5998   25.7529   63.9185 C   0  0  0  0  0
    3.7418   24.7575   63.7629 C   0  0  0  0  0
    4.0814   24.1251   65.0729 C   0  0  0  0  0
    5.4019   24.3387   65.6769 C   0  0  0  0  0
   -0.6706   24.4162   61.5175 C   0  0  0  0  0
    1.5982   25.0546   61.8564 O   0  0  0  0  0
   -0.0463   26.7034   61.7475 O   0  0  0  0  0
    0.2752   29.3940   62.8936 O   0  0  0  0  0
    3.2319   23.3959   65.6518 O   0  0  0  0  0
    5.6905   23.7985   66.7772 O   0  0  0  0  0
    6.3424   25.1394   65.0402 O   0  0  0  0  0
    3.0575   26.8755   64.6132 O   0  0  0  0  0
    3.0017   28.4172   60.7151 N   0  0  0  0  0
    3.4588   28.5673   59.5833 N   0  0  0  0  0
    3.9165   28.7169   58.4514 N   0  0  0  0  0
  1  2  1  0  0  0
  2 12  1  0  0  0
  2 11  1  0  0  0
  2 13  1  0  0  0
  3 12  1  0  0  0
  3  4  1  0  0  0
  3  7  1  0  0  0
  4 13  1  0  0  0
  4  5  1  0  0  0
  5  6  1  0  0  0
  5 14  1  0  0  0
  6 19  1  0  0  0
  7  8  1  0  0  0
  7 18  1  0  0  0
  8  9  1  0  0  0
  9 10  1  0  0  0
 10 17  1  0  0  0
  9 15  2  0  0  0
 10 16  2  0  0  0
 19 20  2  0  0  0
 20 21  2  0  0  0
M  CHG  2  20   1  21  -1
M  END
> <rmsd>
0.612629354

$$$$
PubChem-148385368


 26 29  0  0  0  0  0  0  0  0999 V2000
    2.2553   26.2571   61.1975 C   0  0  0  0  0
    1.3879   25.7179   62.3270 C   0  0  0  0  0
    0.7171   26.9055   63.0025 C   0  0  0  0  0
    1.4052   28.1399   62.4355 C   0  0  0  0  0
    1.9360   27.7323   61.0812 C   0  0  0  0  0
    3.2381   29.2740   59.6509 C   0  0  0  0  0
    2.1834   29.4202   58.7345 C   0  0  0  0  0
    2.3338   30.2403   57.6127 C   0  0  0  0  0
    3.5370   30.9185   57.3999 C   0  0  0  0  0
    4.5896   30.7766   58.3084 C   0  0  0  0  0
    4.4394   29.9564   59.4306 C   0  0  0  0  0
    2.0181   23.6589   63.6202 C   0  0  0  0  0
    3.6841   24.3227   64.7581 C   0  0  0  0  0
    4.7753   24.4888   65.5992 C   0  0  0  0  0
    4.9071   26.7554   64.8583 C   0  0  0  0  0
    3.2459   25.3564   64.0088 C   0  0  0  0  0
    3.1185   28.4621   60.7821 O   0  0  0  0  0
    0.5274   29.2197   62.3146 O   0  0  0  0  0
   -0.6422   26.8978   62.6781 O   0  0  0  0  0
    3.7259   31.9455   55.9956 Cl  0  0  0  0  0
    2.1930   24.9609   63.2806 N   0  0  0  0  0
    2.9301   23.2296   64.5386 N   0  0  0  0  0
    5.3705   25.7199   65.6306 N   0  0  0  0  0
    3.8309   26.5788   64.0332 N   0  0  0  0  0
    5.2591   23.4128   66.4019 N   0  0  0  0  0
    6.3607   23.5828   67.2497 N   0  0  0  0  0
  1  2  1  0  0  0
  2  3  1  0  0  0
  2 21  1  0  0  0
  3  4  1  0  0  0
  3 19  1  0  0  0
  4  5  1  0  0  0
  4 18  1  0  0  0
  5 17  1  0  0  0
  5  1  1  0  0  0
  6 17  1  0  0  0
  7  8  1  0  0  0
  9 10  1  0  0  0
  9 20  1  0  0  0
 11  6  1  0  0  0
 13 22  1  0  0  0
 14 23  1  0  0  0
 14 25  1  0  0  0
 15 24  1  0  0  0
 16 21  1  0  0  0
 16 13  1  0  0  0
 21 12  1  0  0  0
 25 26  1  0  0  0
  6  7  2  0  0  0
  8  9  2  0  0  0
 10 11  2  0  0  0
 12 22  2  0  0  0
 13 14  2  0  0  0
 15 23  2  0  0  0
 16 24  2  0  0  0
M  END
> <rmsd>
0.735922635

$$$$
PubChem-87971902 PubChem-88798443


 34 39  0  0  0  0  0  0  0  0999 V2000
    5.0303   31.9095   61.3635 C   0  0  0  0  0
    3.7160   31.7464   61.8080 C   0  0  0  0  0
    3.3180   30.5357   62.3819 C   0  0  0  0  0
    4.2270   29.4750   62.5108 C   0  0  0  0  0
    5.5461   29.6526   62.0689 C   0  0  0  0  0
    5.9462   30.8628   61.4952 C   0  0  0  0  0
    3.8203   28.1955   63.1359 C   0  0  0  0  0
    2.6442   27.5770   63.0193 C   0  0  0  0  0
    2.7482   26.3577   63.8107 C   0  0  0  0  0
    1.7795   25.4526   63.9689 C   0  0  0  0  0
    1.8820   24.2239   64.7697 C   0  0  0  0  0
    2.5746   22.6360   66.0351 C   0  0  0  0  0
    3.3646   21.8994   66.8173 C   0  0  0  0  0
    4.7463   22.2447   67.1839 C   0  0  0  0  0
    6.6428   23.2281   67.3823 C   0  0  0  0  0
    7.6145   24.1309   67.2472 C   0  0  0  0  0
    7.5131   25.3670   66.4560 C   0  0  0  0  0
    6.8236   26.9577   65.1927 C   0  0  0  0  0
    6.0412   27.6933   64.4030 C   0  0  0  0  0
    4.6643   27.3517   64.0020 C   0  0  0  0  0
    8.1799   27.3237   65.5661 C   0  0  0  0  0
    8.6044   26.3381   66.3471 C   0  0  0  0  0
    6.7570   22.0111   68.1692 C   0  0  0  0  0
    5.5826   21.4044   68.0449 C   0  0  0  0  0
    1.2099   22.2797   65.6841 C   0  0  0  0  0
    0.7837   23.2634   64.9017 C   0  0  0  0  0
    2.9356   23.8682   65.4281 N   0  0  0  0  0
    5.3559   23.3139   66.7903 N   0  0  0  0  0
    6.4655   25.7183   65.7845 N   0  0  0  0  0
    4.0425   26.2858   64.3984 N   0  0  0  0  0
    1.2750   28.0566   62.0109 S   0  0  0  0  0
    0.5163   29.1657   62.6827 O   0  0  0  0  0
    0.3552   26.8873   61.8006 O   0  0  0  0  0
    1.8290   28.5728   60.5111 O   0  0  0  0  0
  2  3  1  0  0  0
  4  5  1  0  0  0
  4  7  1  0  0  0
  6  1  1  0  0  0
  8  9  1  0  0  0
  9 30  1  0  0  0
 10 11  1  0  0  0
 12 27  1  0  0  0
 12 25  1  0  0  0
 13 14  1  0  0  0
 15 28  1  0  0  0
 15 23  1  0  0  0
 16 17  1  0  0  0
 18 29  1  0  0  0
 18 21  1  0  0  0
 19 20  1  0  0  0
 20  7  1  0  0  0
 22 17  1  0  0  0
 24 14  1  0  0  0
 26 11  1  0  0  0
 31  8  1  0  0  0
 31 34  1  0  0  0
  1  2  2  0  0  0
  3  4  2  0  0  0
  5  6  2  0  0  0
  7  8  2  0  0  0
  9 10  2  0  0  0
 11 27  2  0  0  0
 12 13  2  0  0  0
 14 28  2  0  0  0
 15 16  2  0  0  0
 17 29  2  0  0  0
 18 19  2  0  0  0
 20 30  2  0  0  0
 21 22  2  0  0  0
 23 24  2  0  0  0
 25 26  2  0  0  0
 31 32  2  0  0  0
 31 33  2  0  0  0
M  END
> <rmsd>
0.722333729

$$$$
PubChem-10500215


 26 29  0  0  0  0  0  0  0  0999 V2000
    6.2234   23.7216   68.9330 C   0  0  0  0  0
    6.6423   23.9112   67.4899 C   0  0  0  0  0
    5.0261   24.6675   65.7959 C   0  0  0  0  0
    5.0644   26.8952   64.9314 C   0  0  0  0  0
    3.4697   25.3816   64.1557 C   0  0  0  0  0
    3.9478   24.4106   64.9620 C   0  0  0  0  0
    2.3097   23.6182   63.8667 C   0  0  0  0  0
    1.5897   25.5794   62.4719 C   0  0  0  0  0
    2.4320   26.1314   61.3213 C   0  0  0  0  0
    1.9799   27.5622   61.1404 C   0  0  0  0  0
    1.5156   27.9836   62.5283 C   0  0  0  0  0
    0.8497   26.7522   63.1118 C   0  0  0  0  0
    2.4762   29.6359   60.3901 C   0  0  0  0  0
    2.0344   31.2246   64.1106 C   0  0  0  0  0
    2.9835   31.6351   65.2169 C   0  0  0  0  0
    5.5305   23.6767   66.6392 O   0  0  0  0  0
   -0.4947   26.6983   62.7363 O   0  0  0  0  0
    0.6701   29.1074   62.4856 O   0  0  0  0  0
    0.7423   31.5113   61.3940 O   0  0  0  0  0
    3.0414   28.3897   60.7322 O   0  0  0  0  0
    2.7667   30.8951   62.9694 O   0  0  0  0  0
    5.5687   25.9239   65.7592 N   0  0  0  0  0
    4.0004   26.6280   64.1159 N   0  0  0  0  0
    3.2375   23.2781   64.8066 N   0  0  0  0  0
    2.4350   24.9039   63.4513 N   0  0  0  0  0
    1.6216   30.3637   61.8370 P   0  0  0  0  0
  1  2  1  0  0  0
  2 16  1  0  0  0
  3 16  1  0  0  0
  4 22  1  0  0  0
  5 23  1  0  0  0
  6 24  1  0  0  0
  6  3  1  0  0  0
  7 25  1  0  0  0
  8 25  1  0  0  0
  8  9  1  0  0  0
 10  9  1  0  0  0
 10 11  1  0  0  0
 10 20  1  0  0  0
 11 12  1  0  0  0
 11 18  1  0  0  0
 12 17  1  0  0  0
 12  8  1  0  0  0
 13 20  1  0  0  0
 14 21  1  0  0  0
 14 15  1  0  0  0
 25  5  1  0  0  0
 26 18  1  0  0  0
 26 13  1  0  0  0
 26 21  1  0  0  0
  3 22  2  0  0  0
  4 23  2  0  0  0
  5  6  2  0  0  0
  7 24  2  0  0  0
 26 19  2  0  0  0
M  END
> <rmsd>
0.730850399

$$$$
PubChem-11733287


 32 33  0  0  0  0  0  0  0  0999 V2000
    7.4718   24.4618   71.1807 C   0  0  0  0  0
    6.6733   23.7953   70.0804 C   0  0  0  0  0
    7.5177   23.7118   68.8243 C   0  0  0  0  0
    6.7196   23.0838   67.6967 C   0  0  0  0  0
    5.1806   23.3568   66.1381 C   0  0  0  0  0
    4.4576   24.3933   65.2934 C   0  0  0  0  0
    3.6758   23.7137   64.1586 C   0  0  0  0  0
    2.9440   24.7899   63.3475 C   0  0  0  0  0
    3.9361   25.8712   62.9206 C   0  0  0  0  0
    4.7263   26.3731   64.1370 C   0  0  0  0  0
    4.5036   28.3276   65.1576 C   0  0  0  0  0
    3.9631   27.1262   61.0980 C   0  0  0  0  0
    3.8499   28.5762   60.6670 C   0  0  0  0  0
    2.2626   30.1009   60.8652 C   0  0  0  0  0
    0.8659   30.0951   61.4563 C   0  0  0  0  0
   -0.5013   28.6234   62.6588 C   0  0  0  0  0
   -0.5116   27.2935   61.9222 C   0  0  0  0  0
    0.1750   25.1948   61.8604 C   0  0  0  0  0
    0.9862   24.0968   62.5265 C   0  0  0  0  0
    3.0644   21.5845   64.1165 C   0  0  0  0  0
    1.9318   20.6050   64.3587 C   0  0  0  0  0
    2.2628   19.2533   63.7525 C   0  0  0  0  0
    3.2697   18.5180   64.6169 C   0  0  0  0  0
    5.7296   23.9677   67.2653 O   0  0  0  0  0
    5.4030   25.3071   64.7746 O   0  0  0  0  0
    3.9088   27.0714   65.0372 O   0  0  0  0  0
    3.2733   26.9319   62.2974 O   0  0  0  0  0
    2.5356   28.8574   60.2935 O   0  0  0  0  0
    0.3107   26.3805   62.5820 O   0  0  0  0  0
    2.3444   24.2291   62.2124 O   0  0  0  0  0
    2.7452   22.8156   64.6915 O   0  0  0  0  0
    0.8267   29.2126   62.6108 N   0  0  0  0  0
  1  2  1  0  0  0
  2  3  1  0  0  0
  3  4  1  0  0  0
  4 24  1  0  0  0
  5 24  1  0  0  0
  6  5  1  0  0  0
  6  7  1  0  0  0
  6 25  1  0  0  0
  7  8  1  0  0  0
  7 31  1  0  0  0
  8  9  1  0  0  0
  8 30  1  0  0  0
  9 10  1  0  0  0
  9 27  1  0  0  0
 10 25  1  0  0  0
 10 26  1  0  0  0
 11 26  1  0  0  0
 12 27  1  0  0  0
 12 13  1  0  0  0
 13 28  1  0  0  0
 14 28  1  0  0  0
 14 15  1  0  0  0
 15 32  1  0  0  0
 16 32  1  0  0  0
 16 17  1  0  0  0
 17 29  1  0  0  0
 18 29  1  0  0  0
 18 19  1  0  0  0
 19 30  1  0  0  0
 20 31  1  0  0  0
 20 21  1  0  0  0
 21 22  1  0  0  0
 22 23  1  0  0  0
M  END
> <rmsd>
0.641765237

$$$$
PubChem-125128308 263618493 ZINC000263618493


 25 28  0  0  0  0  0  0  0  0999 V2000
    7.4992   24.3714   66.9119 C   0  0  0  0  0
    7.1860   25.5613   66.2533 C   0  0  0  0  0
    5.0237   24.7220   65.7595 C   0  0  0  0  0
    3.7038   24.9114   65.1438 C   0  0  0  0  0
    2.0798   25.7353   64.1202 C   0  0  0  0  0
    1.1875   26.6312   63.3550 C   0  0  0  0  0
   -0.0844   26.1724   63.0009 C   0  0  0  0  0
   -0.5587   28.2100   61.9098 C   0  0  0  0  0
    1.5533   27.9309   62.9497 C   0  0  0  0  0
    3.3109   29.7577   62.7926 C   0  0  0  0  0
    4.0104   29.6079   61.4453 C   0  0  0  0  0
    5.2534   28.7123   61.5736 C   0  0  0  0  0
    5.0449   28.1155   59.3916 C   0  0  0  0  0
    3.8145   29.0212   59.2562 C   0  0  0  0  0
    5.3410   23.5302   66.4203 C   0  0  0  0  0
    5.9570   25.7103   65.6924 N   0  0  0  0  0
    2.7252   23.9853   65.1608 N   0  0  0  0  0
   -0.9293   26.9618   62.2905 N   0  0  0  0  0
    0.6695   28.6843   62.2395 N   0  0  0  0  0
    2.8350   28.4713   63.2872 N   0  0  0  0  0
    3.3392   26.0364   64.4952 N   0  0  0  0  0
    6.5702   23.3818   66.9810 N   0  0  0  0  0
    1.7393   24.5325   64.5181 O   0  0  0  0  0
    5.9320   28.6609   60.3402 O   0  0  0  0  0
    3.1264   29.0751   60.4843 O   0  0  0  0  0
  1 22  1  0  0  0
  2 16  1  0  0  0
  3  4  1  0  0  0
  3 15  1  0  0  0
  4 21  1  0  0  0
  5 23  1  0  0  0
  5  6  1  0  0  0
  7 18  1  0  0  0
  8 19  1  0  0  0
  9 20  1  0  0  0
  9  6  1  0  0  0
 10 20  1  0  0  0
 11 10  1  0  0  0
 11 12  1  0  0  0
 11 25  1  0  0  0
 12 24  1  0  0  0
 13 24  1  0  0  0
 13 14  1  0  0  0
 14 25  1  0  0  0
 17 23  1  0  0  0
  1  2  2  0  0  0
  3 16  2  0  0  0
  4 17  2  0  0  0
  5 21  2  0  0  0
  6  7  2  0  0  0
  8 18  2  0  0  0
  9 19  2  0  0  0
 15 22  2  0  0  0
M  END
> <rmsd>
0.667042851

$$$$
PubChem-58747814


 27 29  0  0  0  0  0  0  0  0999 V2000
    1.9689   26.7710   64.1045 C   0  0  0  0  0
    1.3674   26.4578   62.7295 C   0  0  0  0  0
    1.5647   27.6334   61.7760 C   0  0  0  0  0
    3.0507   27.9774   61.7051 C   0  0  0  0  0
    3.6164   28.2453   63.1060 C   0  0  0  0  0
    4.1815   25.9671   63.5932 C   0  0  0  0  0
    4.4316   25.0286   64.7626 C   0  0  0  0  0
    4.9357   23.6713   64.2547 C   0  0  0  0  0
    5.4284   22.8253   65.4379 C   0  0  0  0  0
    5.5371   24.6923   66.7052 C   0  0  0  0  0
    6.2320   25.3568   67.8464 C   0  0  0  0  0
    5.5886   25.4449   69.0853 C   0  0  0  0  0
    6.2255   26.0656   70.1643 C   0  0  0  0  0
    7.5079   26.6001   70.0064 C   0  0  0  0  0
    8.1541   26.5141   68.7696 C   0  0  0  0  0
    7.5178   25.8935   67.6903 C   0  0  0  0  0
    3.3966   27.1211   64.0270 N   0  0  0  0  0
    6.2832   23.5817   66.2620 O   0  0  0  0  0
    5.3662   25.6047   65.6448 O   0  0  0  0  0
    4.0184   23.0100   63.4033 O   0  0  0  0  0
    2.9821   21.0511   64.7991 O   0  0  0  0  0
    1.5103   22.3148   63.3114 O   0  0  0  0  0
    2.2293   23.4279   65.5305 O   0  0  0  0  0
    3.2537   29.0906   60.8891 O   0  0  0  0  0
    0.8232   28.7415   62.2015 O   0  0  0  0  0
    0.0110   26.1595   62.8604 O   0  0  0  0  0
    2.6706   22.4187   64.2597 S   0  0  0  0  0
  1  2  1  0  0  0
  1 17  1  0  0  0
  2  3  1  0  0  0
  2 26  1  0  0  0
  3  4  1  0  0  0
  3 25  1  0  0  0
  4  5  1  0  0  0
  4 24  1  0  0  0
  5 17  1  0  0  0
  6 17  1  0  0  0
  7  6  1  0  0  0
  7  8  1  0  0  0
  7 19  1  0  0  0
  8  9  1  0  0  0
  8 20  1  0  0  0
  9 18  1  0  0  0
 10 18  1  0  0  0
 10 19  1  0  0  0
 10 11  1  0  0  0
 12 13  1  0  0  0
 14 15  1  0  0  0
 16 11  1  0  0  0
 27 20  1  0  0  0
 27 23  1  0  0  0
 11 12  2  0  0  0
 13 14  2  0  0  0
 15 16  2  0  0  0
 27 21  2  0  0  0
 27 22  2  0  0  0
M  END
> <rmsd>
0.767121911

$$$$
PubChem-132155370


 33 34  0  0  0  0  0  0  0  0999 V2000
    0.9422   31.5588   59.2929 C   0  0  0  0  0
    0.1910   30.5546   60.1455 C   0  0  0  0  0
    1.0950   29.9974   61.2384 C   0  0  0  0  0
    2.0192   28.8705   60.7237 C   0  0  0  0  0
    1.2936   27.6798   60.0740 C   0  0  0  0  0
    0.3214   26.6773   62.1695 C   0  0  0  0  0
    1.4970   27.0139   63.0405 C   0  0  0  0  0
    1.1106   28.0998   64.0454 C   0  0  0  0  0
    1.1710   29.4926   63.4239 C   0  0  0  0  0
    3.2275   25.7621   64.4020 C   0  0  0  0  0
    3.6175   24.5211   65.1071 C   0  0  0  0  0
    3.0325   22.2835   65.6809 C   0  0  0  0  0
    4.2186   22.1244   66.3899 C   0  0  0  0  0
    5.1320   23.1834   66.4632 C   0  0  0  0  0
    4.8462   24.3926   65.7962 C   0  0  0  0  0
    7.1125   25.3721   65.5937 C   0  0  0  0  0
    7.9938   26.5316   65.8870 C   0  0  0  0  0
    6.6565   21.8775   67.9173 C   0  0  0  0  0
    2.2722   26.5637   59.7440 C   0  0  0  0  0
    4.1837   29.3204   60.5711 C   0  0  0  0  0
    5.3420   29.4532   59.6399 C   0  0  0  0  0
    5.5938   28.5064   58.7396 C   0  0  0  0  0
    6.2722   30.6072   59.7792 C   0  0  0  0  0
    0.2116   27.1683   60.8596 O   0  0  0  0  0
   -0.6361   26.0155   62.6516 O   0  0  0  0  0
    0.3103   29.5706   62.3202 O   0  0  0  0  0
    3.9970   26.7610   64.3718 O   0  0  0  0  0
    5.7399   25.4729   65.8444 O   0  0  0  0  0
    7.6065   24.3320   65.0813 O   0  0  0  0  0
    6.3073   23.0624   67.2142 O   0  0  0  0  0
    2.9846   29.3907   59.8563 O   0  0  0  0  0
    1.9619   25.8225   63.7372 N   0  0  0  0  0
    2.7601   23.4633   65.0686 N   0  0  0  0  0
  1  2  1  0  0  0
  3  2  1  0  0  0
  3  4  1  0  0  0
  3 26  1  0  0  0
  4  5  1  0  0  0
  4 31  1  0  0  0
  5 24  1  0  0  0
  5 19  1  0  0  0
  6 24  1  0  0  0
  7  6  1  0  0  0
  7  8  1  0  0  0
  7 32  1  0  0  0
  8  9  1  0  0  0
  9 26  1  0  0  0
 10 11  1  0  0  0
 12 33  1  0  0  0
 13 14  1  0  0  0
 14 30  1  0  0  0
 15 28  1  0  0  0
 15 11  1  0  0  0
 16 28  1  0  0  0
 17 16  1  0  0  0
 18 30  1  0  0  0
 20 31  1  0  0  0
 20 21  1  0  0  0
 23 21  1  0  0  0
 32 10  1  0  0  0
  6 25  2  0  0  0
 10 27  2  0  0  0
 11 33  2  0  0  0
 12 13  2  0  0  0
 14 15  2  0  0  0
 16 29  2  0  0  0
 21 22  2  0  0  0
M  END
> <rmsd>
0.645441473

$$$$
PubChem-165503943 MCULE-1433831583


 34 38  0  0  0  0  0  0  0  0999 V2000
    0.6152   29.4572   61.9669 O   0  0  0  0  0
   -0.2006   26.6734   61.9590 O   0  0  0  0  0
    5.7596   21.2199   66.7667 O   0  0  0  0  0
    6.8959   23.2266   66.8565 O   0  0  0  0  0
    5.2307   26.7015   65.5075 O   0  0  0  0  0
    2.0586   23.6159   64.9611 O   0  0  0  0  0
    2.2561   28.5872   60.6243 O   0  0  0  0  0
    1.3740   28.3911   61.4996 C   0  0  0  0  0
    1.1626   27.0200   62.0430 C   0  0  0  0  0
   -0.2948   25.3008   62.2590 C   0  0  0  0  0
    0.0148   25.0736   63.7386 C   0  0  0  0  0
    2.3220   24.8222   64.7034 C   0  0  0  0  0
    3.6374   25.3639   65.1155 C   0  0  0  0  0
    4.6888   24.6792   65.6774 C   0  0  0  0  0
    5.8482   22.5959   66.5458 C   0  0  0  0  0
    6.8379   20.4604   67.3013 C   0  0  0  0  0
    7.9317   20.2684   66.2556 C   0  0  0  0  0
    7.5126   19.2575   65.2210 C   0  0  0  0  0
    8.3303   18.1420   65.2385 C   0  0  0  0  0
    8.1477   17.0778   64.3569 C   0  0  0  0  0
    7.0962   17.1645   63.4309 C   0  0  0  0  0
    6.2627   18.2996   63.4006 C   0  0  0  0  0
    6.4695   19.3602   64.2981 C   0  0  0  0  0
    9.3269   18.3284   66.2653 C   0  0  0  0  0
    9.1079   19.5560   66.8639 C   0  0  0  0  0
    9.9444   20.0092   67.8857 C   0  0  0  0  0
   11.0048   19.1846   68.2972 C   0  0  0  0  0
   11.2171   17.9336   67.6855 C   0  0  0  0  0
   10.3730   17.4931   66.6539 C   0  0  0  0  0
    1.6346   26.9548   63.4980 C   0  0  0  0  0
    1.3359   25.6265   64.0286 N   0  0  0  0  0
    4.7328   23.2770   65.9642 N   0  0  0  0  0
    5.6850   25.5488   65.9137 N   0  0  0  0  0
    4.0189   26.6509   65.0260 N   0  0  0  0  0
  5 34  1  0  0  0
  8  1  1  0  0  0
  9  8  1  0  0  0
  9  2  1  0  0  0
 10  2  1  0  0  0
 10 11  1  0  0  0
 11 31  1  0  0  0
 12 13  1  0  0  0
 13 14  1  0  0  0
 14 32  1  0  0  0
 15  3  1  0  0  0
 16  3  1  0  0  0
 16 17  1  0  0  0
 17 18  1  0  0  0
 17 25  1  0  0  0
 18 19  1  0  0  0
 19 24  1  0  0  0
 20 21  1  0  0  0
 22 23  1  0  0  0
 25 26  1  0  0  0
 27 28  1  0  0  0
 29 24  1  0  0  0
 30 31  1  0  0  0
 30  9  1  0  0  0
 31 12  1  0  0  0
 32 15  1  0  0  0
 33  5  1  0  0  0
  8  7  2  0  0  0
 12  6  2  0  0  0
 13 34  2  0  0  0
 14 33  2  0  0  0
 15  4  2  0  0  0
 19 20  2  0  0  0
 21 22  2  0  0  0
 23 18  2  0  0  0
 24 25  2  0  0  0
 26 27  2  0  0  0
 28 29  2  0  0  0
M  END
> <rmsd>
0.667137146

$$$$
PubChem-87971901


 34 39  0  0  0  0  0  0  0  0999 V2000
    5.0303   31.9095   61.3635 C   0  0  0  0  0
    3.7160   31.7464   61.8080 C   0  0  0  0  0
    3.3180   30.5357   62.3819 C   0  0  0  0  0
    4.2270   29.4750   62.5108 C   0  0  0  0  0
    5.5461   29.6526   62.0689 C   0  0  0  0  0
    5.9462   30.8628   61.4952 C   0  0  0  0  0
    3.8203   28.1955   63.1359 C   0  0  0  0  0
    2.6442   27.5770   63.0193 C   0  0  0  0  0
    2.7482   26.3577   63.8107 C   0  0  0  0  0
    1.7795   25.4526   63.9689 C   0  0  0  0  0
    1.8820   24.2239   64.7697 C   0  0  0  0  0
    2.5746   22.6360   66.0351 C   0  0  0  0  0
    3.3646   21.8994   66.8173 C   0  0  0  0  0
    4.7463   22.2447   67.1839 C   0  0  0  0  0
    6.6428   23.2281   67.3823 C   0  0  0  0  0
    7.6145   24.1309   67.2472 C   0  0  0  0  0
    7.5131   25.3670   66.4560 C   0  0  0  0  0
    6.8236   26.9577   65.1927 C   0  0  0  0  0
    6.0412   27.6933   64.4030 C   0  0  0  0  0
    4.6643   27.3517   64.0020 C   0  0  0  0  0
    8.1799   27.3237   65.5661 C   0  0  0  0  0
    8.6044   26.3381   66.3471 C   0  0  0  0  0
    6.7570   22.0111   68.1692 C   0  0  0  0  0
    5.5826   21.4044   68.0449 C   0  0  0  0  0
    1.2099   22.2797   65.6841 C   0  0  0  0  0
    0.7837   23.2634   64.9017 C   0  0  0  0  0
    2.9356   23.8682   65.4281 N   0  0  0  0  0
    5.3559   23.3139   66.7903 N   0  0  0  0  0
    6.4655   25.7183   65.7845 N   0  0  0  0  0
    4.0425   26.2858   64.3984 N   0  0  0  0  0
    1.2750   28.0566   62.0109 S   0  0  0  0  0
    0.5163   29.1657   62.6827 O   0  0  0  0  0
    0.3552   26.8873   61.8006 O   0  0  0  0  0
    1.8290   28.5728   60.5111 O   0  0  0  0  0
  2  3  1  0  0  0
  4  5  1  0  0  0
  4  7  1  0  0  0
  6  1  1  0  0  0
  8  9  1  0  0  0
  9 30  1  0  0  0
 10 11  1  0  0  0
 12 27  1  0  0  0
 12 25  1  0  0  0
 13 14  1  0  0  0
 15 28  1  0  0  0
 15 23  1  0  0  0
 16 17  1  0  0  0
 18 29  1  0  0  0
 18 21  1  0  0  0
 19 20  1  0  0  0
 20  7  1  0  0  0
 22 17  1  0  0  0
 24 14  1  0  0  0
 26 11  1  0  0  0
 31  8  1  0  0  0
 31 34  1  0  0  0
  1  2  2  0  0  0
  3  4  2  0  0  0
  5  6  2  0  0  0
  7  8  2  0  0  0
  9 10  2  0  0  0
 11 27  2  0  0  0
 12 13  2  0  0  0
 14 28  2  0  0  0
 15 16  2  0  0  0
 17 29  2  0  0  0
 18 19  2  0  0  0
 20 30  2  0  0  0
 21 22  2  0  0  0
 23 24  2  0  0  0
 25 26  2  0  0  0
 31 32  2  0  0  0
 31 33  2  0  0  0
M  CHG  1  34  -1
M  END
> <rmsd>
0.722333729

$$$$
PubChem-16219616 PubChem-5163192 MolPort-003-958-639


 27 30  0  0  0  0  0  0  0  0999 V2000
    7.1954   20.0955   66.3845 C   0  0  0  0  0
    5.8504   20.2507   67.0694 C   0  0  0  0  0
    5.8668   21.4439   68.0118 C   0  0  0  0  0
    5.7948   22.7276   67.2554 C   0  0  0  0  0
    4.4357   24.2092   65.6913 C   0  0  0  0  0
    5.1856   26.3249   64.8690 C   0  0  0  0  0
    3.0954   25.5144   64.2330 C   0  0  0  0  0
    3.2664   24.3940   64.9666 C   0  0  0  0  0
    1.3773   24.2762   64.0035 C   0  0  0  0  0
    1.3515   26.4448   62.6909 C   0  0  0  0  0
    1.7708   26.1910   61.2473 C   0  0  0  0  0
    0.5629   26.6432   60.4769 C   0  0  0  0  0
   -0.5143   26.9340   61.5249 C   0  0  0  0  0
   -0.8806   28.4185   61.5892 C   0  0  0  0  0
    6.7547   23.5398   67.3280 O   0  0  0  0  0
   -0.0544   26.4845   62.7778 O   0  0  0  0  0
    0.2556   29.2015   61.8221 O   0  0  0  0  0
    0.7405   30.3111   59.4975 O   0  0  0  0  0
    0.8333   27.6824   59.5505 O   0  0  0  0  0
    2.7926   29.2601   60.7281 O   0  0  0  0  0
    1.9697   24.8291   61.0078 O   0  0  0  0  0
    4.6332   23.0237   66.4710 N   0  0  0  0  0
    5.3818   25.1958   65.6240 N   0  0  0  0  0
    4.0290   26.4935   64.1594 N   0  0  0  0  0
    2.1971   23.5851   64.8460 N   0  0  0  0  0
    1.9082   25.4679   63.6229 N   0  0  0  0  0
    1.1422   29.1486   60.3761 P   0  0  0  0  0
  1  2  1  0  0  0
  2  3  1  0  0  0
  3  4  1  0  0  0
  4 22  1  0  0  0
  6 23  1  0  0  0
  7 24  1  0  0  0
  8 25  1  0  0  0
  8  5  1  0  0  0
  9 26  1  0  0  0
 10 26  1  0  0  0
 10 11  1  0  0  0
 10 16  1  0  0  0
 11 12  1  0  0  0
 11 21  1  0  0  0
 12 13  1  0  0  0
 12 19  1  0  0  0
 13 16  1  0  0  0
 13 14  1  0  0  0
 14 17  1  0  0  0
 22  5  1  0  0  0
 26  7  1  0  0  0
 27 17  1  0  0  0
 27 19  1  0  0  0
 27 20  1  0  0  0
  4 15  2  0  0  0
  5 23  2  0  0  0
  6 24  2  0  0  0
  7  8  2  0  0  0
  9 25  2  0  0  0
 27 18  2  0  0  0
M  END
> <rmsd>
0.769707084

$$$$
PubChem-86632489


 27 28  0  0  0  0  0  0  0  0999 V2000
    7.8338   27.2073   69.8486 C   0  0  0  0  0
    8.0285   28.2119   68.7291 C   0  0  0  0  0
    8.5068   29.5304   69.3059 C   0  0  0  0  0
    9.8977   29.7214   68.7660 C   0  0  0  0  0
    9.9513   28.8239   67.5561 C   0  0  0  0  0
    8.3645   27.4510   66.5319 C   0  0  0  0  0
    8.0034   25.9786   66.4418 C   0  0  0  0  0
    7.2027   25.7046   65.1798 C   0  0  0  0  0
    5.5304   27.5108   64.6870 C   0  0  0  0  0
    4.1033   27.3772   64.1468 C   0  0  0  0  0
    4.6735   25.4334   65.2955 C   0  0  0  0  0
    4.5874   24.1866   65.8196 C   0  0  0  0  0
    3.4149   23.3681   65.6419 C   0  0  0  0  0
    5.6609   23.6022   66.5820 C   0  0  0  0  0
    2.2009   25.9671   65.0277 C   0  0  0  0  0
    1.3019   25.8989   63.8036 C   0  0  0  0  0
    1.0399   27.2899   63.2615 C   0  0  0  0  0
   -0.1482   28.4522   59.6082 C   0  0  0  0  0
    9.0362   27.7172   67.7935 N   0  0  0  0  0
    5.8522   26.2373   65.3117 N   0  0  0  0  0
    3.6003   26.1017   64.6354 N   0  0  0  0  0
    2.4755   22.7070   65.4998 N   0  0  0  0  0
    6.5183   23.1266   67.1973 N   0  0  0  0  0
    0.2808   27.1997   62.0931 O   0  0  0  0  0
    0.4564   29.7999   61.8369 O   0  0  0  0  0
    2.2277   28.4186   60.8338 O   0  0  0  0  0
    0.7569   28.5038   61.1362 S   0  0  0  0  0
  2  1  1  0  0  0
  2  3  1  0  0  0
  2 19  1  0  0  0
  3  4  1  0  0  0
  4  5  1  0  0  0
  5 19  1  0  0  0
  6 19  1  0  0  0
  6  7  1  0  0  0
  7  8  1  0  0  0
  8 20  1  0  0  0
  9 20  1  0  0  0
  9 10  1  0  0  0
 10 21  1  0  0  0
 11 20  1  0  0  0
 12 13  1  0  0  0
 12 14  1  0  0  0
 15 21  1  0  0  0
 15 16  1  0  0  0
 16 17  1  0  0  0
 17 24  1  0  0  0
 21 11  1  0  0  0
 27 24  1  0  0  0
 27 18  1  0  0  0
 11 12  2  0  0  0
 27 25  2  0  0  0
 27 26  2  0  0  0
 13 22  3  0  0  0
 14 23  3  0  0  0
M  END
> <rmsd>
0.73602742

$$$$
PubChem-90205793


 16 15  0  0  0  0  0  0  0  0999 V2000
    3.1563   25.2212   66.9176 C   0  0  0  0  0
    3.9506   25.0062   65.6232 C   0  0  0  0  0
    5.3798   24.7461   66.0203 C   0  0  0  0  0
    3.4451   23.7970   64.8607 C   0  0  0  0  0
    2.5926   26.4685   64.4367 C   0  0  0  0  0
    2.6038   27.3850   63.2291 C   0  0  0  0  0
    1.1827   27.6938   62.7895 C   0  0  0  0  0
    1.1828   28.8219   61.8153 C   0  0  0  0  0
    5.6693   23.7578   66.7479 O   0  0  0  0  0
    6.3964   25.5907   65.5881 O   0  0  0  0  0
    3.9639   23.4908   63.7540 O   0  0  0  0  0
    2.4080   23.0177   65.3627 O   0  0  0  0  0
    3.9165   26.1726   64.8134 O   0  0  0  0  0
    0.5725   29.8864   62.0932 O   0  0  0  0  0
    1.8490   28.7050   60.6009 O   0  0  0  0  0
    0.5825   26.5193   62.1781 N   0  0  0  0  0
  1  2  1  0  0  0
  2  3  1  0  0  0
  2  4  1  0  0  0
  2 13  1  0  0  0
  3 10  1  0  0  0
  4 12  1  0  0  0
  5 13  1  0  0  0
  5  6  1  0  0  0
  7  6  1  0  0  0
  7  8  1  0  0  0
  7 16  1  0  0  0
  8 15  1  0  0  0
  3  9  2  0  0  0
  4 11  2  0  0  0
  8 14  2  0  0  0
M  END
> <rmsd>
0.683919489

$$$$
PubChem-59052259


 33 37  0  0  0  0  0  0  0  0999 V2000
   -0.7628   25.7307   55.1924 C   0  0  0  0  0
   -0.4769   25.7207   56.6505 C   0  0  0  0  0
    0.6278   25.0183   57.1414 C   0  0  0  0  0
    0.8969   25.0091   58.5134 C   0  0  0  0  0
    0.0623   25.7027   59.3965 C   0  0  0  0  0
   -1.0441   26.4039   58.9033 C   0  0  0  0  0
   -1.3132   26.4131   57.5314 C   0  0  0  0  0
    2.5883   27.3149   61.1891 C   0  0  0  0  0
    1.8680   28.1254   60.1165 C   0  0  0  0  0
    1.4791   29.9010   61.5601 C   0  0  0  0  0
    2.5363   28.0552   62.5122 C   0  0  0  0  0
    2.4136   26.9702   63.5538 C   0  0  0  0  0
    2.3858   25.6378   62.7884 C   0  0  0  0  0
    3.6679   24.8126   62.9035 C   0  0  0  0  0
    2.8064   23.0888   64.5340 C   0  0  0  0  0
    4.2452   23.2198   66.0905 C   0  0  0  0  0
    4.5759   24.1128   65.1337 C   0  0  0  0  0
    6.4544   24.7967   66.3335 C   0  0  0  0  0
    5.0365   23.0958   67.2233 C   0  0  0  0  0
    2.2433   31.0858   62.1246 C   0  0  0  0  0
    0.0726   30.3770   61.2445 C   0  0  0  0  0
    0.4095   25.6911   61.1169 S   0  0  0  0  0
   -0.0077   24.3574   61.6720 O   0  0  0  0  0
   -0.3802   26.7714   61.8036 O   0  0  0  0  0
    2.1091   29.4927   60.3475 O   0  0  0  0  0
    1.3959   28.8846   62.5575 O   0  0  0  0  0
    3.4730   27.0556   64.4603 O   0  0  0  0  0
    2.1245   25.9289   61.3821 N   0  0  0  0  0
    3.6793   24.0536   64.1459 N   0  0  0  0  0
    3.1283   22.5514   65.7456 N   0  0  0  0  0
    5.6680   24.9107   65.2199 N   0  0  0  0  0
    6.1380   23.8978   67.3218 N   0  0  0  0  0
    4.7202   22.1655   68.2529 N   0  0  0  0  0
  1  2  1  0  0  0
  3  4  1  0  0  0
  5  6  1  0  0  0
  7  2  1  0  0  0
  8 28  1  0  0  0
  8  9  1  0  0  0
  9 25  1  0  0  0
 10 25  1  0  0  0
 10 26  1  0  0  0
 10 20  1  0  0  0
 10 21  1  0  0  0
 11 26  1  0  0  0
 11 12  1  0  0  0
 11  8  1  0  0  0
 12 13  1  0  0  0
 12 27  1  0  0  0
 13 14  1  0  0  0
 13 28  1  0  0  0
 14 29  1  0  0  0
 16 30  1  0  0  0
 17 31  1  0  0  0
 17 29  1  0  0  0
 18 32  1  0  0  0
 19 33  1  0  0  0
 19 16  1  0  0  0
 22  5  1  0  0  0
 22 28  1  0  0  0
 29 15  1  0  0  0
  2  3  2  0  0  0
  4  5  2  0  0  0
  6  7  2  0  0  0
 15 30  2  0  0  0
 16 17  2  0  0  0
 18 31  2  0  0  0
 19 32  2  0  0  0
 22 23  2  0  0  0
 22 24  2  0  0  0
M  END
> <rmsd>
0.675829589

$$$$
PubChem-66570897


 29 33  0  0  0  0  0  0  0  0999 V2000
    0.8397   31.4809   60.8496 B   0  0  0  0  0
    1.8567   30.0261   61.4774 P   0  0  0  0  0
    2.5976   29.2362   60.1523 O   0  0  0  0  0
    0.8303   28.9176   62.2695 O   0  0  0  0  0
    2.5049   25.8592   61.5566 O   0  0  0  0  0
    5.5316   23.5395   66.8566 O   0  0  0  0  0
   -0.3996   26.6073   62.8695 O   0  0  0  0  0
    3.0398   30.5872   62.5494 O   0  0  0  0  0
    3.1377   28.0171   60.6170 C   0  0  0  0  0
    2.0488   27.1376   61.2177 C   0  0  0  0  0
    1.6345   27.7934   62.5013 C   0  0  0  0  0
    0.9529   26.6668   63.2152 C   0  0  0  0  0
    1.6720   25.4530   62.6268 C   0  0  0  0  0
    2.2898   23.5194   64.1093 C   0  0  0  0  0
    3.9654   24.2818   65.1687 C   0  0  0  0  0
    3.5260   25.2413   64.3272 C   0  0  0  0  0
    5.2013   26.7054   65.0234 C   0  0  0  0  0
    5.0640   24.5201   65.9812 C   0  0  0  0  0
    6.6542   23.7590   67.6979 C   0  0  0  0  0
    6.9140   22.5424   68.5125 C   0  0  0  0  0
    6.2889   22.3848   69.7541 C   0  0  0  0  0
    6.5132   21.2291   70.5087 C   0  0  0  0  0
    7.3579   20.2276   70.0195 C   0  0  0  0  0
    7.9764   20.3806   68.7746 C   0  0  0  0  0
    7.7521   21.5362   68.0197 C   0  0  0  0  0
    2.4668   24.7833   63.6493 N   0  0  0  0  0
    3.2064   23.1756   65.0589 N   0  0  0  0  0
    4.1175   26.4565   64.2277 N   0  0  0  0  0
    5.6656   25.7465   65.8885 N   0  0  0  0  0
  2  1  1  0  0  0
  2  3  1  0  0  0
  2  8  1  0  0  0
  2  4  1  0  0  0
  9  3  1  0  0  0
 10  9  1  0  0  0
 10 11  1  0  0  0
 10  5  1  0  0  0
 11  4  1  0  0  0
 11 12  1  0  0  0
 12 13  1  0  0  0
 12  7  1  0  0  0
 13  5  1  0  0  0
 13 26  1  0  0  0
 15 27  1  0  0  0
 16 28  1  0  0  0
 16 26  1  0  0  0
 17 29  1  0  0  0
 18  6  1  0  0  0
 18 15  1  0  0  0
 19  6  1  0  0  0
 19 20  1  0  0  0
 21 22  1  0  0  0
 23 24  1  0  0  0
 25 20  1  0  0  0
 26 14  1  0  0  0
 14 27  2  0  0  0
 15 16  2  0  0  0
 17 28  2  0  0  0
 18 29  2  0  0  0
 20 21  2  0  0  0
 22 23  2  0  0  0
 24 25  2  0  0  0
M  CHG  1   2   1
M  END
> <rmsd>
0.654399157

$$$$
PubChem-66570897


 29 33  0  0  0  0  0  0  0  0999 V2000
    0.8428   31.4812   60.8504 B   0  0  0  0  0
    1.8585   30.0255   61.4783 P   0  0  0  0  0
    2.5990   29.2351   60.1534 O   0  0  0  0  0
    0.8308   28.9178   62.2699 O   0  0  0  0  0
    2.5034   25.8579   61.5573 O   0  0  0  0  0
    5.5338   23.5381   66.8559 O   0  0  0  0  0
   -0.4009   26.6078   62.8686 O   0  0  0  0  0
    3.0417   30.5854   62.5507 O   0  0  0  0  0
    3.1380   28.0156   60.6182 C   0  0  0  0  0
    2.0483   27.1368   61.2184 C   0  0  0  0  0
    1.6340   27.7928   62.5019 C   0  0  0  0  0
    0.9514   26.6667   63.2154 C   0  0  0  0  0
    1.6703   25.4525   62.6278 C   0  0  0  0  0
    2.2894   23.5192   64.1102 C   0  0  0  0  0
    3.9642   24.2829   65.1700 C   0  0  0  0  0
    3.5240   25.2422   64.3287 C   0  0  0  0  0
    5.1992   26.7068   65.0235 C   0  0  0  0  0
    5.0645   24.5207   65.9804 C   0  0  0  0  0
    6.6974   23.7170   67.6554 C   0  0  0  0  0
    7.9281   23.5226   66.8357 C   0  0  0  0  0
    8.2953   22.2399   66.4134 C   0  0  0  0  0
    9.4418   22.0615   65.6330 C   0  0  0  0  0
   10.2209   23.1652   65.2725 C   0  0  0  0  0
    9.8536   24.4476   65.6918 C   0  0  0  0  0
    8.7072   24.6262   66.4723 C   0  0  0  0  0
    2.4652   24.7835   63.6506 N   0  0  0  0  0
    3.2065   23.1760   65.0595 N   0  0  0  0  0
    4.1152   26.4575   64.2284 N   0  0  0  0  0
    5.6643   25.7479   65.8880 N   0  0  0  0  0
  2  1  1  0  0  0
  2  3  1  0  0  0
  2  8  1  0  0  0
  2  4  1  0  0  0
  9  3  1  0  0  0
 10  9  1  0  0  0
 10 11  1  0  0  0
 10  5  1  0  0  0
 11  4  1  0  0  0
 11 12  1  0  0  0
 12 13  1  0  0  0
 12  7  1  0  0  0
 13  5  1  0  0  0
 13 26  1  0  0  0
 15 27  1  0  0  0
 16 28  1  0  0  0
 16 26  1  0  0  0
 17 29  1  0  0  0
 18  6  1  0  0  0
 18 15  1  0  0  0
 19  6  1  0  0  0
 19 20  1  0  0  0
 21 22  1  0  0  0
 23 24  1  0  0  0
 25 20  1  0  0  0
 26 14  1  0  0  0
 14 27  2  0  0  0
 15 16  2  0  0  0
 17 28  2  0  0  0
 18 29  2  0  0  0
 20 21  2  0  0  0
 22 23  2  0  0  0
 24 25  2  0  0  0
M  CHG  1   2   1
M  END
> <rmsd>
0.65396899

$$$$
PubChem-66570897


 29 33  0  0  0  0  0  0  0  0999 V2000
    0.8428   31.4812   60.8503 B   0  0  0  0  0
    1.8585   30.0254   61.4784 P   0  0  0  0  0
    2.5990   29.2351   60.1535 O   0  0  0  0  0
    0.8308   28.9178   62.2699 O   0  0  0  0  0
    2.5034   25.8580   61.5574 O   0  0  0  0  0
    5.5338   23.5381   66.8559 O   0  0  0  0  0
   -0.4009   26.6077   62.8686 O   0  0  0  0  0
    3.0416   30.5854   62.5508 O   0  0  0  0  0
    3.1381   28.0156   60.6182 C   0  0  0  0  0
    2.0484   27.1368   61.2184 C   0  0  0  0  0
    1.6341   27.7928   62.5020 C   0  0  0  0  0
    0.9514   26.6666   63.2154 C   0  0  0  0  0
    1.6704   25.4525   62.6277 C   0  0  0  0  0
    2.2895   23.5193   64.1102 C   0  0  0  0  0
    3.9642   24.2829   65.1700 C   0  0  0  0  0
    3.5241   25.2422   64.3287 C   0  0  0  0  0
    5.1992   26.7068   65.0236 C   0  0  0  0  0
    5.0644   24.5207   65.9804 C   0  0  0  0  0
    6.6974   23.7171   67.6554 C   0  0  0  0  0
    7.9280   23.5226   66.8357 C   0  0  0  0  0
    8.7072   24.6262   66.4722 C   0  0  0  0  0
    9.8535   24.4477   65.6918 C   0  0  0  0  0
   10.2209   23.1653   65.2724 C   0  0  0  0  0
    9.4419   22.0615   65.6330 C   0  0  0  0  0
    8.2953   22.2399   66.4133 C   0  0  0  0  0
    2.4651   24.7834   63.6506 N   0  0  0  0  0
    3.2065   23.1760   65.0595 N   0  0  0  0  0
    4.1152   26.4575   64.2283 N   0  0  0  0  0
    5.6643   25.7479   65.8880 N   0  0  0  0  0
  2  1  1  0  0  0
  2  3  1  0  0  0
  2  8  1  0  0  0
  2  4  1  0  0  0
  9  3  1  0  0  0
 10  9  1  0  0  0
 10 11  1  0  0  0
 10  5  1  0  0  0
 11  4  1  0  0  0
 11 12  1  0  0  0
 12 13  1  0  0  0
 12  7  1  0  0  0
 13  5  1  0  0  0
 13 26  1  0  0  0
 15 27  1  0  0  0
 16 28  1  0  0  0
 16 26  1  0  0  0
 17 29  1  0  0  0
 18  6  1  0  0  0
 18 15  1  0  0  0
 19  6  1  0  0  0
 19 20  1  0  0  0
 21 22  1  0  0  0
 23 24  1  0  0  0
 25 20  1  0  0  0
 26 14  1  0  0  0
 14 27  2  0  0  0
 15 16  2  0  0  0
 17 28  2  0  0  0
 18 29  2  0  0  0
 20 21  2  0  0  0
 22 23  2  0  0  0
 24 25  2  0  0  0
M  CHG  1   2   1
M  END
> <rmsd>
0.65396899

$$$$
PubChem-89076242


 29 30  0  0  0  0  0  0  0  0999 V2000
    0.1103   24.7397   61.5117 C   0  0  0  0  0
    0.7635   26.0655   61.1807 C   0  0  0  0  0
    2.1146   28.3233   63.2517 C   0  0  0  0  0
    3.0882   27.1650   63.0635 C   0  0  0  0  0
    4.0425   27.0156   64.2395 C   0  0  0  0  0
    5.1833   26.1005   63.8451 C   0  0  0  0  0
    5.2980   25.1320   64.9838 C   0  0  0  0  0
    4.3207   25.6731   66.0030 C   0  0  0  0  0
    3.8962   24.5418   68.0888 C   0  0  0  0  0
    3.3200   23.5402   68.8659 C   0  0  0  0  0
    2.5044   22.5963   68.2348 C   0  0  0  0  0
    2.8640   23.6618   66.1508 C   0  0  0  0  0
    3.5828   23.4985   70.3322 C   0  0  0  0  0
    7.0882   23.8678   65.2937 C   0  0  0  0  0
    7.6938   23.3260   66.5754 C   0  0  0  0  0
    7.3597   22.6505   68.6490 C   0  0  0  0  0
   -0.0031   27.1065   61.7073 O   0  0  0  0  0
    0.1879   29.6984   61.9291 O   0  0  0  0  0
    3.3679   26.4608   65.3406 O   0  0  0  0  0
    1.9615   21.6708   68.8948 O   0  0  0  0  0
    2.6383   23.7029   64.9112 O   0  0  0  0  0
    6.5915   25.1558   65.5086 O   0  0  0  0  0
    6.6856   23.0803   67.5072 O   0  0  0  0  0
    1.9701   28.5765   60.3919 O   0  0  0  0  0
    1.0309   28.4511   61.7957 P   0  0  0  0  0
    3.6728   24.5941   66.7484 N   0  0  0  0  0
    2.2940   22.6787   66.8963 N   0  0  0  0  0
    2.8186   29.5057   63.3946 F   0  0  0  0  0
    1.3327   28.1163   64.3740 F   0  0  0  0  0
  1  2  1  0  0  0
  2 17  1  0  0  0
  3  4  1  0  0  0
  3 28  1  0  0  0
  3 29  1  0  0  0
  5  4  1  0  0  0
  5  6  1  0  0  0
  5 19  1  0  0  0
  6  7  1  0  0  0
  7  8  1  0  0  0
  7 22  1  0  0  0
  8 19  1  0  0  0
  8 26  1  0  0  0
 10 11  1  0  0  0
 11 27  1  0  0  0
 12 26  1  0  0  0
 13 10  1  0  0  0
 14 22  1  0  0  0
 14 15  1  0  0  0
 15 23  1  0  0  0
 16 23  1  0  0  0
 25 17  1  0  0  0
 25  3  1  0  0  0
 25 24  1  0  0  0
 26  9  1  0  0  0
 27 12  1  0  0  0
  9 10  2  0  0  0
 11 20  2  0  0  0
 12 21  2  0  0  0
 25 18  2  0  0  0
M  END
> <rmsd>
0.763062894

$$$$
PubChem-10762562


 26 29  0  0  0  0  0  0  0  0999 V2000
    6.1360   24.7143   68.7246 C   0  0  0  0  0
    6.6034   23.8731   67.5509 C   0  0  0  0  0
    5.0300   24.6550   65.8084 C   0  0  0  0  0
    5.0797   26.8894   64.9614 C   0  0  0  0  0
    3.4829   25.3875   64.1671 C   0  0  0  0  0
    3.9547   24.4084   64.9674 C   0  0  0  0  0
    2.3199   23.6291   63.8580 C   0  0  0  0  0
    1.6147   25.6027   62.4729 C   0  0  0  0  0
    2.4653   26.1570   61.3308 C   0  0  0  0  0
    1.9831   27.5738   61.1247 C   0  0  0  0  0
    1.5108   28.0102   62.5050 C   0  0  0  0  0
    0.8728   26.7744   63.1127 C   0  0  0  0  0
    2.4310   29.6389   60.3270 C   0  0  0  0  0
   -0.2305   31.9910   62.3194 C   0  0  0  0  0
   -1.2140   33.0720   61.9238 C   0  0  0  0  0
    5.5316   23.6514   66.6422 O   0  0  0  0  0
   -0.4783   26.6984   62.7659 O   0  0  0  0  0
    0.6388   29.1135   62.4431 O   0  0  0  0  0
    2.5440   30.9178   62.7515 O   0  0  0  0  0
    3.0260   28.4167   60.7022 O   0  0  0  0  0
    0.5272   31.6217   61.2071 O   0  0  0  0  0
    5.5768   25.9100   65.7841 N   0  0  0  0  0
    4.0181   26.6324   64.1389 N   0  0  0  0  0
    3.2424   23.2790   64.7992 N   0  0  0  0  0
    2.4501   24.9181   63.4544 N   0  0  0  0  0
    1.5458   30.3802   61.7494 P   0  0  0  0  0
  1  2  1  0  0  0
  2 16  1  0  0  0
  3 16  1  0  0  0
  4 22  1  0  0  0
  5 23  1  0  0  0
  6 24  1  0  0  0
  6  3  1  0  0  0
  7 25  1  0  0  0
  8 25  1  0  0  0
  8  9  1  0  0  0
 10  9  1  0  0  0
 10 11  1  0  0  0
 10 20  1  0  0  0
 11 12  1  0  0  0
 11 18  1  0  0  0
 12 17  1  0  0  0
 12  8  1  0  0  0
 13 20  1  0  0  0
 14 21  1  0  0  0
 14 15  1  0  0  0
 25  5  1  0  0  0
 26 18  1  0  0  0
 26 13  1  0  0  0
 26 21  1  0  0  0
  3 22  2  0  0  0
  4 23  2  0  0  0
  5  6  2  0  0  0
  7 24  2  0  0  0
 26 19  2  0  0  0
M  END
> <rmsd>
0.727319479

$$$$
PubChem-140927125


 28 31  0  0  0  0  0  0  0  0999 V2000
   -1.5128   27.0791   62.9827 C   0  0  0  0  0
    0.6729   27.6782   62.6173 C   0  0  0  0  0
    1.8761   27.4493   61.6947 C   0  0  0  0  0
    1.9667   28.7364   60.9590 C   0  0  0  0  0
    1.0365   29.5859   61.3302 C   0  0  0  0  0
    1.1213   27.5924   64.0811 C   0  0  0  0  0
    2.8916   25.9632   64.8364 C   0  0  0  0  0
    3.2904   24.6685   65.1354 C   0  0  0  0  0
    4.5590   24.4264   65.5284 C   0  0  0  0  0
    5.1089   26.6858   65.3533 C   0  0  0  0  0
    3.4975   22.5803   65.4623 C   0  0  0  0  0
    5.9128   22.3752   66.1330 C   0  0  0  0  0
    6.7815   22.0035   64.9439 C   0  0  0  0  0
    8.1520   21.9541   65.5488 C   0  0  0  0  0
    7.9886   22.5852   66.9222 C   0  0  0  0  0
    9.0025   23.6991   67.1152 C   0  0  0  0  0
   -0.3309   26.7314   62.3077 O   0  0  0  0  0
    0.2489   29.0065   62.3082 O   0  0  0  0  0
    2.9205   29.0172   59.9907 O   0  0  0  0  0
    6.6897   23.1080   67.0413 O   0  0  0  0  0
   10.2843   23.1620   67.2373 O   0  0  0  0  0
    8.5510   20.6257   65.6945 O   0  0  0  0  0
    6.7594   23.0038   63.9688 O   0  0  0  0  0
    1.5578   26.2427   64.4096 N   0  0  0  0  0
    5.4897   25.4050   65.6443 N   0  0  0  0  0
    3.8244   26.9573   64.9544 N   0  0  0  0  0
    4.7119   23.1142   65.7482 N   0  0  0  0  0
    2.5875   23.5220   65.0821 N   0  0  0  0  0
  1 17  1  0  0  0
  2 17  1  0  0  0
  2  3  1  0  0  0
  2  6  1  0  0  0
  2 18  1  0  0  0
  3  4  1  0  0  0
  4 19  1  0  0  0
  5 18  1  0  0  0
  6 24  1  0  0  0
  7 26  1  0  0  0
  8  9  1  0  0  0
  8 28  1  0  0  0
  9 27  1  0  0  0
 10 25  1  0  0  0
 12 27  1  0  0  0
 12 13  1  0  0  0
 12 20  1  0  0  0
 13 14  1  0  0  0
 13 23  1  0  0  0
 14 15  1  0  0  0
 14 22  1  0  0  0
 15 20  1  0  0  0
 15 16  1  0  0  0
 16 21  1  0  0  0
 24  7  1  0  0  0
 27 11  1  0  0  0
  4  5  2  0  0  0
  7  8  2  0  0  0
  9 25  2  0  0  0
 10 26  2  0  0  0
 11 28  2  0  0  0
M  END
> <rmsd>
0.541953683

$$$$
PubChem-141190291


 25 26  0  0  0  0  0  0  0  0999 V2000
   10.7103   23.4674   69.1096 C   0  0  0  0  0
    9.2720   23.3019   69.5599 C   0  0  0  0  0
    8.3444   24.0881   68.6519 C   0  0  0  0  0
    6.0815   23.9840   66.5145 C   0  0  0  0  0
    5.2185   24.8861   65.7304 C   0  0  0  0  0
    3.8499   24.6706   65.5626 C   0  0  0  0  0
    3.1135   25.5395   64.8354 C   0  0  0  0  0
    4.9814   26.8580   64.3936 C   0  0  0  0  0
    1.8346   23.9859   65.5368 C   0  0  0  0  0
    0.7220   25.7364   64.1077 C   0  0  0  0  0
    0.7351   25.3257   62.6434 C   0  0  0  0  0
    0.1223   23.9467   62.4895 C   0  0  0  0  0
    0.9415   26.8539   61.0565 C   0  0  0  0  0
    8.2939   23.4910   67.3889 O   0  0  0  0  0
    5.6053   22.9525   67.0605 O   0  0  0  0  0
    0.0025   26.2478   61.8948 O   0  0  0  0  0
    1.3350   28.9051   62.8060 O   0  0  0  0  0
    2.1168   29.3677   60.3538 O   0  0  0  0  0
   -0.5576   29.2933   61.0396 O   0  0  0  0  0
    7.4718   24.2847   66.6599 N   0  0  0  0  0
    3.6428   26.6342   64.2389 N   0  0  0  0  0
    5.7521   25.9943   65.1300 N   0  0  0  0  0
    1.8421   25.1307   64.8109 N   0  0  0  0  0
    3.0687   23.6736   66.0241 N   0  0  0  0  0
    0.9694   28.6432   61.3629 P   0  0  0  0  0
  1  2  1  0  0  0
  2  3  1  0  0  0
  3 14  1  0  0  0
  4  5  1  0  0  0
  5 22  1  0  0  0
  6  7  1  0  0  0
  6 24  1  0  0  0
  7 23  1  0  0  0
  8 21  1  0  0  0
 10 23  1  0  0  0
 10 11  1  0  0  0
 11 12  1  0  0  0
 11 16  1  0  0  0
 13 16  1  0  0  0
 13 25  1  0  0  0
 20 14  1  0  0  0
 20  4  1  0  0  0
 23  9  1  0  0  0
 25 18  1  0  0  0
 25 19  1  0  0  0
  4 15  2  0  0  0
  5  6  2  0  0  0
  7 21  2  0  0  0
  8 22  2  0  0  0
  9 24  2  0  0  0
 25 17  2  0  0  0
M  END
> <rmsd>
0.632154167

$$$$
PubChem-90086103


 29 33  0  0  0  0  0  0  0  0999 V2000
    0.8392   31.4775   60.8358 B   0  0  0  0  0
    1.8567   30.0259   61.4712 P   0  0  0  0  0
    2.5999   29.2314   60.1499 O   0  0  0  0  0
    0.8295   28.9197   62.2656 O   0  0  0  0  0
    2.5045   25.8586   61.5631 O   0  0  0  0  0
    5.5390   23.5337   66.8521 O   0  0  0  0  0
   -0.4025   26.6109   62.8674 O   0  0  0  0  0
    3.0378   30.5920   62.5428 O   0  0  0  0  0
    3.1399   28.0144   60.6204 C   0  0  0  0  0
    2.0498   27.1365   61.2206 C   0  0  0  0  0
    1.6331   27.7957   62.5019 C   0  0  0  0  0
    0.9492   26.6709   63.2166 C   0  0  0  0  0
    1.6692   25.4555   62.6329 C   0  0  0  0  0
    2.2893   23.5203   64.1125 C   0  0  0  0  0
    3.9632   24.2835   65.1740 C   0  0  0  0  0
    3.5201   25.2453   64.3370 C   0  0  0  0  0
    5.1969   26.7084   65.0312 C   0  0  0  0  0
    5.0656   24.5193   65.9820 C   0  0  0  0  0
    6.7030   23.7120   67.6514 C   0  0  0  0  0
    7.9337   23.5390   66.8268 C   0  0  0  0  0
    8.3008   22.2676   66.3699 C   0  0  0  0  0
    9.4483   22.1097   65.5864 C   0  0  0  0  0
   10.2285   23.2224   65.2575 C   0  0  0  0  0
    9.8614   24.4936   65.7119 C   0  0  0  0  0
    8.7142   24.6517   66.4956 C   0  0  0  0  0
    2.4618   24.7869   63.6580 N   0  0  0  0  0
    3.2080   23.1751   65.0593 N   0  0  0  0  0
    4.1109   26.4609   64.2381 N   0  0  0  0  0
    5.6643   25.7473   65.8920 N   0  0  0  0  0
  2  1  1  0  0  0
  2  3  1  0  0  0
  2  8  1  0  0  0
  2  4  1  0  0  0
  9  3  1  0  0  0
 10  9  1  0  0  0
 10 11  1  0  0  0
 10  5  1  0  0  0
 11  4  1  0  0  0
 11 12  1  0  0  0
 12 13  1  0  0  0
 12  7  1  0  0  0
 13  5  1  0  0  0
 13 26  1  0  0  0
 15 27  1  0  0  0
 16 28  1  0  0  0
 16 26  1  0  0  0
 17 29  1  0  0  0
 18  6  1  0  0  0
 18 15  1  0  0  0
 19  6  1  0  0  0
 19 20  1  0  0  0
 21 22  1  0  0  0
 23 24  1  0  0  0
 25 20  1  0  0  0
 26 14  1  0  0  0
 14 27  2  0  0  0
 15 16  2  0  0  0
 17 28  2  0  0  0
 18 29  2  0  0  0
 20 21  2  0  0  0
 22 23  2  0  0  0
 24 25  2  0  0  0
M  CHG  1   2   1
M  END
> <rmsd>
0.652198017

$$$$
PubChem-67589764


 21 21  0  0  0  0  0  0  0  0999 V2000
    5.4015   24.3718   61.9297 C   0  0  0  0  0
    4.7173   25.7261   61.7961 C   0  0  0  0  0
    3.5580   25.8204   62.7827 C   0  0  0  0  0
    4.0573   25.5638   64.1862 C   0  0  0  0  0
    4.9126   24.3299   64.4440 C   0  0  0  0  0
    5.9807   24.2159   63.3371 C   0  0  0  0  0
    4.0235   23.1011   64.4521 C   0  0  0  0  0
    5.6576   24.4597   65.7565 C   0  0  0  0  0
    2.8565   27.1698   62.6491 C   0  0  0  0  0
    2.0120   27.2311   61.3814 C   0  0  0  0  0
    0.7923   26.3725   61.4962 C   0  0  0  0  0
    1.6408   28.6430   61.0686 C   0  0  0  0  0
    3.7236   26.2978   65.1077 O   0  0  0  0  0
    2.9637   23.0920   65.1346 O   0  0  0  0  0
    4.3834   21.9556   63.7496 O   0  0  0  0  0
    5.5255   23.6038   66.6732 O   0  0  0  0  0
    6.5158   25.5356   65.9578 O   0  0  0  0  0
    0.5995   25.4500   60.6628 O   0  0  0  0  0
   -0.1282   26.5837   62.5162 O   0  0  0  0  0
    1.9796   29.1461   59.9662 O   0  0  0  0  0
    0.9230   29.4057   61.9828 O   0  0  0  0  0
  1  2  1  0  0  0
  2  3  1  0  0  0
  3  4  1  0  0  0
  3  9  1  0  0  0
  5  4  1  0  0  0
  5  6  1  0  0  0
  5  7  1  0  0  0
  5  8  1  0  0  0
  6  1  1  0  0  0
  7 15  1  0  0  0
  8 17  1  0  0  0
  9 10  1  0  0  0
 10 11  1  0  0  0
 10 12  1  0  0  0
 11 19  1  0  0  0
 12 21  1  0  0  0
  4 13  2  0  0  0
  7 14  2  0  0  0
  8 16  2  0  0  0
 11 18  2  0  0  0
 12 20  2  0  0  0
M  END
> <rmsd>
0.634776235

$$$$
PubChem-66570854


 23 26  0  0  0  0  0  0  0  0999 V2000
    0.8388   31.4815   60.8503 B   0  0  0  0  0
    1.8563   30.0268   61.4777 P   0  0  0  0  0
    2.5964   29.2367   60.1522 O   0  0  0  0  0
    0.8302   28.9184   62.2705 O   0  0  0  0  0
    2.5045   25.8598   61.5569 O   0  0  0  0  0
    5.5322   23.5388   66.8571 O   0  0  0  0  0
   -0.3996   26.6080   62.8712 O   0  0  0  0  0
    3.0399   30.5879   62.5491 O   0  0  0  0  0
    3.1367   28.0177   60.6168 C   0  0  0  0  0
    2.0483   27.1382   61.2181 C   0  0  0  0  0
    1.6345   27.7940   62.5019 C   0  0  0  0  0
    0.9532   26.6674   63.2161 C   0  0  0  0  0
    1.6718   25.4537   62.6273 C   0  0  0  0  0
    2.2899   23.5194   64.1088 C   0  0  0  0  0
    3.9654   24.2815   65.1688 C   0  0  0  0  0
    3.5260   25.2412   64.3276 C   0  0  0  0  0
    5.2008   26.7055   65.0244 C   0  0  0  0  0
    5.0642   24.5196   65.9818 C   0  0  0  0  0
    6.6541   23.7585   67.6982 C   0  0  0  0  0
    2.4667   24.7835   63.6493 N   0  0  0  0  0
    3.2065   23.1754   65.0583 N   0  0  0  0  0
    4.1172   26.4567   64.2285 N   0  0  0  0  0
    5.6653   25.7463   65.8892 N   0  0  0  0  0
  2  1  1  0  0  0
  2  3  1  0  0  0
  2  8  1  0  0  0
  2  4  1  0  0  0
  9  3  1  0  0  0
 10  9  1  0  0  0
 10 11  1  0  0  0
 10  5  1  0  0  0
 11  4  1  0  0  0
 11 12  1  0  0  0
 12 13  1  0  0  0
 12  7  1  0  0  0
 13  5  1  0  0  0
 13 20  1  0  0  0
 15 21  1  0  0  0
 16 22  1  0  0  0
 16 20  1  0  0  0
 17 23  1  0  0  0
 18  6  1  0  0  0
 18 15  1  0  0  0
 19  6  1  0  0  0
 20 14  1  0  0  0
 14 21  2  0  0  0
 15 16  2  0  0  0
 17 22  2  0  0  0
 18 23  2  0  0  0
M  CHG  1   2   1
M  END
> <rmsd>
0.655350268

$$$$
PubChem-66570854


 23 26  0  0  0  0  0  0  0  0999 V2000
    3.1438   30.7268   62.6685 B   0  0  0  0  0
    1.8545   30.0234   61.4797 P   0  0  0  0  0
    2.6163   29.2288   60.1675 O   0  0  0  0  0
    0.8334   28.9143   62.2812 O   0  0  0  0  0
    2.4874   25.8466   61.5553 O   0  0  0  0  0
    5.5342   23.5483   66.8538 O   0  0  0  0  0
   -0.4099   26.6056   62.8653 O   0  0  0  0  0
    0.9185   31.2980   60.8813 O   0  0  0  0  0
    3.1414   28.0032   60.6328 C   0  0  0  0  0
    2.0422   27.1308   61.2222 C   0  0  0  0  0
    1.6305   27.7834   62.5073 C   0  0  0  0  0
    0.9415   26.6591   63.2169 C   0  0  0  0  0
    1.6581   25.4439   62.6297 C   0  0  0  0  0
    2.2828   23.5156   64.1164 C   0  0  0  0  0
    3.9613   24.2832   65.1677 C   0  0  0  0  0
    3.5182   25.2393   64.3244 C   0  0  0  0  0
    5.1940   26.7077   65.0103 C   0  0  0  0  0
    5.0625   24.5254   65.9762 C   0  0  0  0  0
    6.6587   23.7724   67.6904 C   0  0  0  0  0
    2.4571   24.7781   63.6515 N   0  0  0  0  0
    3.2030   23.1760   65.0641 N   0  0  0  0  0
    4.1080   26.4550   64.2189 N   0  0  0  0  0
    5.6621   25.7522   65.8771 N   0  0  0  0  0
  2  1  1  0  0  0
  2  3  1  0  0  0
  2  8  1  0  0  0
  2  4  1  0  0  0
  9  3  1  0  0  0
 10  9  1  0  0  0
 10 11  1  0  0  0
 10  5  1  0  0  0
 11  4  1  0  0  0
 11 12  1  0  0  0
 12 13  1  0  0  0
 12  7  1  0  0  0
 13  5  1  0  0  0
 13 20  1  0  0  0
 15 21  1  0  0  0
 16 22  1  0  0  0
 16 20  1  0  0  0
 17 23  1  0  0  0
 18  6  1  0  0  0
 18 15  1  0  0  0
 19  6  1  0  0  0
 20 14  1  0  0  0
 14 21  2  0  0  0
 15 16  2  0  0  0
 17 22  2  0  0  0
 18 23  2  0  0  0
M  CHG  1   2   1
M  END
> <rmsd>
0.651352167

$$$$
PubChem-54378575


 24 25  0  0  0  0  0  0  0  0999 V2000
   -2.2023   26.4379   65.0999 C   0  0  0  0  0
   -1.2628   27.0727   66.1167 C   0  0  0  0  0
   -0.0018   27.5763   65.4195 C   0  0  0  0  0
    0.7186   26.4469   64.6765 C   0  0  0  0  0
   -0.2200   25.6852   63.7267 C   0  0  0  0  0
   -1.5150   25.2551   64.4233 C   0  0  0  0  0
    0.4783   26.1760   61.5486 C   0  0  0  0  0
    0.6261   27.3329   60.5756 C   0  0  0  0  0
    1.4281   28.4354   61.1808 C   0  0  0  0  0
    2.7039   24.6887   64.5721 C   0  0  0  0  0
    4.0199   25.4774   64.4902 C   0  0  0  0  0
    4.8967   25.1883   65.7039 C   0  0  0  0  0
    5.0196   23.6825   65.9191 C   0  0  0  0  0
    3.6200   23.0500   65.9176 C   0  0  0  0  0
    3.6883   21.5473   66.1626 C   0  0  0  0  0
   -0.5206   26.4956   62.5562 N   0  0  0  0  0
    2.5365   28.7511   60.6767 O   0  0  0  0  0
    0.9509   29.1267   62.2873 O   0  0  0  0  0
    2.9435   23.3010   64.7018 O   0  0  0  0  0
    4.3617   20.9094   65.1186 O   0  0  0  0  0
    5.6497   23.4429   67.1422 O   0  0  0  0  0
    6.1637   25.7406   65.5107 O   0  0  0  0  0
    3.7740   26.8473   64.3804 O   0  0  0  0  0
    1.5379   25.3139   65.8443 S   0  0  0  0  0
  1  2  1  0  0  0
  2  3  1  0  0  0
  3  4  1  0  0  0
  4  5  1  0  0  0
  4 24  1  0  0  0
  5  6  1  0  0  0
  5 16  1  0  0  0
  6  1  1  0  0  0
  7 16  1  0  0  0
  7  8  1  0  0  0
  8  9  1  0  0  0
  9 18  1  0  0  0
 10 24  1  0  0  0
 10 11  1  0  0  0
 10 19  1  0  0  0
 11 12  1  0  0  0
 11 23  1  0  0  0
 12 13  1  0  0  0
 12 22  1  0  0  0
 13 14  1  0  0  0
 13 21  1  0  0  0
 14 19  1  0  0  0
 14 15  1  0  0  0
 15 20  1  0  0  0
  9 17  2  0  0  0
M  END
> <rmsd>
0.474514693

$$$$
PubChem-122192519 CHEMBL3623474


 31 34  0  0  0  0  0  0  0  0999 V2000
    2.9263   23.2648   64.4905 N   0  0  0  0  0
    2.0328   23.6848   63.5909 N   0  0  0  0  0
    2.2201   24.9676   63.2912 N   0  0  0  0  0
    3.8430   26.6022   64.0653 N   0  0  0  0  0
    5.3754   25.7162   65.6589 N   0  0  0  0  0
    5.2609   23.3957   66.3934 N   0  0  0  0  0
    6.3580   23.5540   67.2469 N   0  0  0  0  0
    3.2648   25.3789   64.0223 C   0  0  0  0  0
    4.9165   26.7655   64.8987 C   0  0  0  0  0
    4.7813   24.4843   65.6060 C   0  0  0  0  0
    3.6974   24.3356   64.7562 C   0  0  0  0  0
    6.7784   22.5561   67.9524 C   0  0  0  0  0
    7.9255   22.6884   68.8565 C   0  0  0  0  0
    8.3392   21.5763   69.5975 C   0  0  0  0  0
    9.4301   21.6759   70.4665 C   0  0  0  0  0
   10.1114   22.8895   70.5974 C   0  0  0  0  0
    9.7025   24.0041   69.8595 C   0  0  0  0  0
    8.6119   23.9047   68.9906 C   0  0  0  0  0
    6.8901   27.9606   63.6575 C   0  0  0  0  0
    6.2415   28.1639   62.2983 C   0  0  0  0  0
    6.1210   29.6431   61.9868 C   0  0  0  0  0
    1.4123   25.7189   62.3358 C   0  0  0  0  0
    2.2790   26.2579   61.2054 C   0  0  0  0  0
    1.9373   27.7260   61.0698 C   0  0  0  0  0
    1.4160   28.1422   62.4251 C   0  0  0  0  0
    0.7405   26.9077   63.0083 C   0  0  0  0  0
   11.4767   23.0135   71.6853 Cl  0  0  0  0  0
    5.7249   28.3565   65.0002 S   0  0  0  0  0
   -0.6218   26.8891   62.6975 O   0  0  0  0  0
    0.5298   29.2152   62.3035 O   0  0  0  0  0
    3.0843   28.4532   60.7554 O   0  0  0  0  0
  3  2  1  0  0  0
  3  8  1  0  0  0
  6  7  1  0  0  0
  9  4  1  0  0  0
  9 28  1  0  0  0
 10  5  1  0  0  0
 10  6  1  0  0  0
 11  1  1  0  0  0
 11  8  1  0  0  0
 12 13  1  0  0  0
 14 15  1  0  0  0
 16 17  1  0  0  0
 16 27  1  0  0  0
 18 13  1  0  0  0
 19 28  1  0  0  0
 19 20  1  0  0  0
 20 21  1  0  0  0
 22  3  1  0  0  0
 22 23  1  0  0  0
 23 24  1  0  0  0
 24 25  1  0  0  0
 24 31  1  0  0  0
 25 26  1  0  0  0
 25 30  1  0  0  0
 26 29  1  0  0  0
 26 22  1  0  0  0
  1  2  2  0  0  0
  8  4  2  0  0  0
  9  5  2  0  0  0
 10 11  2  0  0  0
 12  7  2  0  0  0
 13 14  2  0  0  0
 15 16  2  0  0  0
 17 18  2  0  0  0
M  END
> <rmsd>
0.735272884

$$$$
PubChem-158717411 PubChem-49866598


 24 26  0  0  0  0  0  0  0  0999 V2000
   -2.9145   28.1239   63.0345 C   0  0  0  0  0
   -1.0569   26.9885   63.3786 C   0  0  0  0  0
    0.9788   26.2856   63.8913 C   0  0  0  0  0
    1.2422   24.7898   64.0698 C   0  0  0  0  0
    2.3671   24.5548   65.0709 C   0  0  0  0  0
    3.5684   25.4453   64.6859 C   0  0  0  0  0
    4.7275   25.2089   65.6575 C   0  0  0  0  0
    4.9525   23.7076   65.8504 C   0  0  0  0  0
    3.6023   23.0119   66.1432 C   0  0  0  0  0
    3.7936   21.5279   66.4293 C   0  0  0  0  0
    4.3499   21.2547   67.8083 C   0  0  0  0  0
    5.0993   22.1004   68.5378 C   0  0  0  0  0
    5.4751   23.4829   68.0857 C   0  0  0  0  0
    2.3162   27.0097   63.6395 C   0  0  0  0  0
    2.1092   28.5091   63.4713 C   0  0  0  0  0
    1.8427   28.8545   62.0458 C   0  0  0  0  0
   -1.9058   27.4322   62.3660 O   0  0  0  0  0
    0.1084   26.4674   62.8137 O   0  0  0  0  0
    2.7356   23.1963   65.0538 O   0  0  0  0  0
    5.9894   23.4348   66.7782 O   0  0  0  0  0
    5.8875   25.8001   65.1554 O   0  0  0  0  0
    3.1840   26.7970   64.7267 O   0  0  0  0  0
    0.7577   29.4050   61.7261 O   0  0  0  0  0
    2.7957   28.5861   61.0716 O   0  0  0  0  0
  1 17  1  0  0  0
  2 17  1  0  0  0
  2 18  1  0  0  0
  3 18  1  0  0  0
  3  4  1  0  0  0
  5  4  1  0  0  0
  5  6  1  0  0  0
  5 19  1  0  0  0
  6  7  1  0  0  0
  6 22  1  0  0  0
  7  8  1  0  0  0
  7 21  1  0  0  0
  8  9  1  0  0  0
  8 20  1  0  0  0
  9 19  1  0  0  0
  9 10  1  0  0  0
 10 11  1  0  0  0
 13 12  1  0  0  0
 13 20  1  0  0  0
 14 22  1  0  0  0
 14 15  1  0  0  0
 14  3  1  0  0  0
 15 16  1  0  0  0
 16 24  1  0  0  0
 11 12  2  0  0  0
 16 23  2  0  0  0
M  END
> <rmsd>
0.564584136

$$$$
PubChem-59865431


 22 22  0  0  0  0  0  0  0  0999 V2000
    2.4769   28.5283   58.4540 C   0  0  0  0  0
    1.5638   28.5955   59.6596 C   0  0  0  0  0
    2.0029   27.8783   63.6370 C   0  0  0  0  0
    2.9147   26.6576   63.4961 C   0  0  0  0  0
    2.5497   25.9502   65.7625 C   0  0  0  0  0
    2.0361   24.5219   65.5920 C   0  0  0  0  0
    3.4261   23.3402   67.0787 C   0  0  0  0  0
    4.7030   22.5208   67.2230 C   0  0  0  0  0
    6.2836   24.2454   67.4890 C   0  0  0  0  0
    7.0889   25.2833   66.7172 C   0  0  0  0  0
    5.4114   26.8707   66.2575 C   0  0  0  0  0
    4.3947   27.3625   65.2358 C   0  0  0  0  0
    0.6886   25.8752   61.3854 C   0  0  0  0  0
   -0.1983   24.6578   61.5374 C   0  0  0  0  0
    2.2907   28.2880   60.8115 O   0  0  0  0  0
    0.4525   29.5513   62.1960 O   0  0  0  0  0
   -0.0188   27.0172   61.7657 O   0  0  0  0  0
    1.1490   28.2147   62.0675 P   0  0  0  0  0
    3.5613   26.2627   64.7534 N   0  0  0  0  0
    3.1279   23.5611   65.6717 N   0  0  0  0  0
    5.8288   23.1953   66.5898 N   0  0  0  0  0
    6.2885   25.8782   65.6546 N   0  0  0  0  0
  1  2  1  0  0  0
  2 15  1  0  0  0
  3  4  1  0  0  0
  4 19  1  0  0  0
  5 19  1  0  0  0
  5  6  1  0  0  0
  6 20  1  0  0  0
  7 20  1  0  0  0
  7  8  1  0  0  0
  8 21  1  0  0  0
  9 21  1  0  0  0
  9 10  1  0  0  0
 10 22  1  0  0  0
 11 22  1  0  0  0
 11 12  1  0  0  0
 12 19  1  0  0  0
 13 17  1  0  0  0
 13 14  1  0  0  0
 18 15  1  0  0  0
 18  3  1  0  0  0
 18 17  1  0  0  0
 18 16  2  0  0  0
M  END
> <rmsd>
0.616258144

$$$$
PubChem-163199591 PubChem-163199592


 29 31  0  0  0  0  0  0  0  0999 V2000
    3.1406   28.9937   60.1565 C   0  0  0  0  0
    2.1677   28.4897   62.0762 C   0  0  0  0  0
    1.8853   27.0936   62.6320 C   0  0  0  0  0
    1.9679   27.1352   64.1616 C   0  0  0  0  0
    1.4046   28.4498   64.7317 C   0  0  0  0  0
   -0.0776   28.3812   65.0080 C   0  0  0  0  0
   -0.9806   29.2889   64.4329 C   0  0  0  0  0
   -2.3455   29.2097   64.7236 C   0  0  0  0  0
   -2.8177   28.2270   65.5977 C   0  0  0  0  0
   -1.9247   27.3261   66.1831 C   0  0  0  0  0
   -0.5598   27.4060   65.8922 C   0  0  0  0  0
    3.3037   25.7567   65.2536 C   0  0  0  0  0
    4.3435   24.8119   64.6456 C   0  0  0  0  0
    4.3073   23.4709   65.3799 C   0  0  0  0  0
    4.2801   23.6513   66.9033 C   0  0  0  0  0
    3.3245   24.7764   67.3303 C   0  0  0  0  0
    0.7896   25.3517   61.7981 C   0  0  0  0  0
   -0.1007   24.3883   62.5298 C   0  0  0  0  0
   -0.9563   24.7707   63.4778 C   0  0  0  0  0
    1.9447   28.5217   60.6981 O   0  0  0  0  0
    1.8029   29.5638   63.9461 O   0  0  0  0  0
    1.3139   29.3997   62.7202 O   0  0  0  0  0
    3.2940   26.9742   64.5684 O   0  0  0  0  0
    3.5638   25.9778   66.6224 O   0  0  0  0  0
    1.9869   24.3772   67.2247 O   0  0  0  0  0
    5.5661   23.9264   67.3703 O   0  0  0  0  0
    3.1925   22.7381   64.9699 O   0  0  0  0  0
    5.6209   25.3708   64.7330 O   0  0  0  0  0
    0.6102   26.6656   62.2468 O   0  0  0  0  0
  1 20  1  0  0  0
  2 20  1  0  0  0
  2  3  1  0  0  0
  2 22  1  0  0  0
  3  4  1  0  0  0
  3 29  1  0  0  0
  4  5  1  0  0  0
  4 23  1  0  0  0
  5 21  1  0  0  0
  5  6  1  0  0  0
  7  8  1  0  0  0
  9 10  1  0  0  0
 11  6  1  0  0  0
 12 23  1  0  0  0
 12 13  1  0  0  0
 12 24  1  0  0  0
 13 14  1  0  0  0
 13 28  1  0  0  0
 14 15  1  0  0  0
 14 27  1  0  0  0
 15 16  1  0  0  0
 15 26  1  0  0  0
 16 24  1  0  0  0
 16 25  1  0  0  0
 17 29  1  0  0  0
 17 18  1  0  0  0
 21 22  1  0  0  0
  6  7  2  0  0  0
  8  9  2  0  0  0
 10 11  2  0  0  0
 18 19  2  0  0  0
M  END
> <rmsd>
0.753574491

$$$$
PubChem-11123713


 34 37  0  0  0  0  0  0  0  0999 V2000
    3.5704   22.7280   62.7959 C   0  0  0  0  0
    2.2585   23.0894   64.6502 C   0  0  0  0  0
    2.0561   24.6172   64.4792 C   0  0  0  0  0
    3.3832   25.3852   64.5771 C   0  0  0  0  0
    4.2250   24.8405   65.7250 C   0  0  0  0  0
    4.3534   23.3213   65.5757 C   0  0  0  0  0
    5.3066   22.8437   66.6675 C   0  0  0  0  0
    6.1831   24.9219   66.8368 C   0  0  0  0  0
    7.4042   25.7496   67.1092 C   0  0  0  0  0
    7.2481   27.0873   67.4941 C   0  0  0  0  0
    8.3683   27.8822   67.7554 C   0  0  0  0  0
    9.6519   27.3431   67.6333 C   0  0  0  0  0
    9.8160   26.0085   67.2523 C   0  0  0  0  0
    8.6963   25.2131   66.9920 C   0  0  0  0  0
    3.1609   27.3676   63.5401 C   0  0  0  0  0
    4.5846   27.7118   63.1138 C   0  0  0  0  0
    4.5034   27.6210   60.8873 C   0  0  0  0  0
    3.5113   28.1301   59.8521 C   0  0  0  0  0
    1.2692   27.4606   59.6968 C   0  0  0  0  0
    0.7340   26.3385   60.5709 C   0  0  0  0  0
   -0.5480   25.7772   62.2935 C   0  0  0  0  0
    0.1824   25.4042   63.5733 C   0  0  0  0  0
    1.7896   29.6672   60.2372 C   0  0  0  0  0
    1.9124   30.4589   61.5275 C   0  0  0  0  0
    2.4178   22.3131   63.4775 O   0  0  0  0  0
    3.0995   22.6984   65.7214 O   0  0  0  0  0
    6.5136   23.5674   66.6122 O   0  0  0  0  0
    5.4996   25.4362   65.7164 O   0  0  0  0  0
    3.1464   26.7505   64.7971 O   0  0  0  0  0
    4.5647   28.5106   61.9656 O   0  0  0  0  0
    0.0747   26.8694   61.6841 O   0  0  0  0  0
    1.4384   24.8847   63.2538 O   0  0  0  0  0
    0.9992   29.9811   62.4668 O   0  0  0  0  0
    2.1949   28.2874   60.4543 N   0  0  0  0  0
  1 25  1  0  0  0
  2 25  1  0  0  0
  2  3  1  0  0  0
  2 26  1  0  0  0
  3  4  1  0  0  0
  3 32  1  0  0  0
  4  5  1  0  0  0
  4 29  1  0  0  0
  5  6  1  0  0  0
  5 28  1  0  0  0
  6 26  1  0  0  0
  6  7  1  0  0  0
  7 27  1  0  0  0
  8 27  1  0  0  0
  8 28  1  0  0  0
  8  9  1  0  0  0
 10 11  1  0  0  0
 12 13  1  0  0  0
 14  9  1  0  0  0
 15 29  1  0  0  0
 15 16  1  0  0  0
 16 30  1  0  0  0
 17 30  1  0  0  0
 17 18  1  0  0  0
 18 34  1  0  0  0
 19 34  1  0  0  0
 19 20  1  0  0  0
 20 31  1  0  0  0
 21 31  1  0  0  0
 21 22  1  0  0  0
 22 32  1  0  0  0
 23 34  1  0  0  0
 23 24  1  0  0  0
 24 33  1  0  0  0
  9 10  2  0  0  0
 11 12  2  0  0  0
 13 14  2  0  0  0
M  END
> <rmsd>
0.707553744

$$$$
PubChem-102213761


 19 19  0  0  0  0  0  0  0  0999 V2000
    7.1935   26.2098   64.6982 C   0  0  0  0  0
    5.2918   25.5997   65.6512 C   0  0  0  0  0
    5.0028   24.2755   66.3866 C   0  0  0  0  0
    3.5433   24.1868   66.8465 C   0  0  0  0  0
    2.5872   24.4945   65.6890 C   0  0  0  0  0
    3.2231   25.4400   64.6614 C   0  0  0  0  0
    2.1395   26.2269   63.9476 C   0  0  0  0  0
    2.7240   26.9512   62.7504 C   0  0  0  0  0
    6.0925   25.3697   64.5285 O   0  0  0  0  0
    4.1244   26.3210   65.2937 O   0  0  0  0  0
    0.2000   26.8437   61.3997 O   0  0  0  0  0
    0.7771   29.0268   62.9986 O   0  0  0  0  0
    2.0788   28.7117   60.5782 O   0  0  0  0  0
    2.2155   23.3061   65.0601 O   0  0  0  0  0
    3.3078   25.0825   67.8926 O   0  0  0  0  0
    5.8726   24.1243   67.4673 O   0  0  0  0  0
    1.4215   27.8983   61.9123 P   0  0  0  0  0
   -0.1803   29.6775   62.2966 N   0  0  0  0  0
    2.4537   27.7327   59.7212 N   0  0  0  0  0
  1  9  1  0  0  0
  2  9  1  0  0  0
  2  3  1  0  0  0
  2 10  1  0  0  0
  3  4  1  0  0  0
  3 16  1  0  0  0
  4  5  1  0  0  0
  4 15  1  0  0  0
  5  6  1  0  0  0
  5 14  1  0  0  0
  6 10  1  0  0  0
  6  7  1  0  0  0
  7  8  1  0  0  0
  8 17  1  0  0  0
 17 11  1  0  0  0
 17 12  1  0  0  0
 17 13  1  0  0  0
 18 12  1  0  0  0
 19 13  1  0  0  0
M  CHG  2   9   1  17   1
M  END
> <rmsd>
0.756846428

$$$$
PubChem-144392297


 25 27  0  0  0  0  0  0  0  0999 V2000
    1.1804   29.8996   63.0979 C   0  0  0  0  0
    1.4314   27.7418   62.6646 C   0  0  0  0  0
    1.9703   27.0825   61.4132 C   0  0  0  0  0
    1.3404   25.3900   62.7998 C   0  0  0  0  0
    0.6208   26.6468   63.3000 C   0  0  0  0  0
    0.5879   26.8356   64.8223 C   0  0  0  0  0
   -0.3130   25.8530   65.5014 C   0  0  0  0  0
    0.1532   25.0835   66.4797 C   0  0  0  0  0
    2.1378   23.5278   64.2880 C   0  0  0  0  0
    3.8969   24.3452   65.1511 C   0  0  0  0  0
    3.3593   25.2723   64.3306 C   0  0  0  0  0
    5.0740   26.7792   64.8104 C   0  0  0  0  0
    5.0681   24.6221   65.8408 C   0  0  0  0  0
    6.8352   23.9350   67.4086 C   0  0  0  0  0
    3.3425   27.6323   61.0620 C   0  0  0  0  0
    0.6486   28.8553   62.3398 O   0  0  0  0  0
    2.0568   25.6916   61.6218 O   0  0  0  0  0
   -0.6834   26.6504   62.7899 O   0  0  0  0  0
    5.6376   23.6749   66.6925 O   0  0  0  0  0
    3.2277   28.9371   60.5818 O   0  0  0  0  0
    2.2400   24.7827   63.7817 N   0  0  0  0  0
    3.1506   23.2256   65.1495 N   0  0  0  0  0
    3.9195   26.4906   64.1374 N   0  0  0  0  0
    5.6377   25.8527   65.6515 N   0  0  0  0  0
    5.6943   28.0470   64.6374 N   0  0  0  0  0
  1 16  1  0  0  0
  2 16  1  0  0  0
  2  3  1  0  0  0
  3 17  1  0  0  0
  3 15  1  0  0  0
  4 17  1  0  0  0
  4  5  1  0  0  0
  4 21  1  0  0  0
  5  6  1  0  0  0
  5 18  1  0  0  0
  5  2  1  0  0  0
  6  7  1  0  0  0
 10 22  1  0  0  0
 11 23  1  0  0  0
 11 21  1  0  0  0
 12 24  1  0  0  0
 12 25  1  0  0  0
 13 19  1  0  0  0
 13 10  1  0  0  0
 14 19  1  0  0  0
 15 20  1  0  0  0
 21  9  1  0  0  0
  7  8  2  0  0  0
  9 22  2  0  0  0
 10 11  2  0  0  0
 12 23  2  0  0  0
 13 24  2  0  0  0
M  END
> <rmsd>
0.658229589

$$$$
PubChem-155023165


 28 30  0  0  0  0  0  0  0  0999 V2000
    2.3846   26.6773   56.0243 C   0  0  0  0  0
    3.5655   26.6008   56.9729 C   0  0  0  0  0
    3.3807   27.5733   58.1232 C   0  0  0  0  0
    1.9594   27.8147   60.1910 C   0  0  0  0  0
    0.9689   27.3357   61.0356 C   0  0  0  0  0
    0.1828   26.1974   61.0373 C   0  0  0  0  0
    0.6246   28.0384   62.1400 C   0  0  0  0  0
    2.1900   29.6950   61.6480 C   0  0  0  0  0
   -0.9337   27.7554   64.0820 C   0  0  0  0  0
   -0.1539   27.1804   65.2656 C   0  0  0  0  0
    1.2089   27.8266   65.4009 C   0  0  0  0  0
    2.1657   26.6792   65.3672 C   0  0  0  0  0
    1.3301   25.5273   64.8619 C   0  0  0  0  0
    1.7611   24.2272   65.5189 C   0  0  0  0  0
    3.7432   23.4892   66.1521 C   0  0  0  0  0
    2.3442   27.0903   59.0220 N   0  0  0  0  0
   -0.6020   26.2607   62.1476 N   0  0  0  0  0
   -0.3293   27.3811   62.8086 N   0  0  0  0  0
    1.2129   29.2125   62.4735 N   0  0  0  0  0
    2.5549   29.0013   60.5215 N   0  0  0  0  0
    2.9821   31.2075   62.0316 Cl  0  0  0  0  0
   -0.0201   25.7826   65.1555 O   0  0  0  0  0
    3.0025   23.8299   65.0208 O   0  0  0  0  0
    5.7456   25.2120   65.4939 O   0  0  0  0  0
    6.4017   23.3387   67.1977 O   0  0  0  0  0
    5.9921   22.7941   64.5224 O   0  0  0  0  0
    3.1928   26.9511   64.4640 O   0  0  0  0  0
    5.5070   23.7569   65.8253 P   0  0  0  0  0
  1  2  1  0  0  0
  2  3  1  0  0  0
  3 16  1  0  0  0
  4 20  1  0  0  0
  5  6  1  0  0  0
  7  5  1  0  0  0
  8 19  1  0  0  0
  8 21  1  0  0  0
  9 18  1  0  0  0
 10  9  1  0  0  0
 10 11  1  0  0  0
 10 22  1  0  0  0
 11 12  1  0  0  0
 12 13  1  0  0  0
 12 27  1  0  0  0
 13 22  1  0  0  0
 13 14  1  0  0  0
 14 23  1  0  0  0
 15 23  1  0  0  0
 15 28  1  0  0  0
 16  4  1  0  0  0
 18 17  1  0  0  0
 18  7  1  0  0  0
 28 25  1  0  0  0
 28 26  1  0  0  0
  4  5  2  0  0  0
  6 17  2  0  0  0
  7 19  2  0  0  0
  8 20  2  0  0  0
 28 24  2  0  0  0
M  END
> <rmsd>
0.498163939

$$$$
PubChem-102095882


 26 29  0  0  0  0  0  0  0  0999 V2000
    6.1387   24.7385   68.7121 C   0  0  0  0  0
    6.6112   23.9019   67.5371 C   0  0  0  0  0
    5.0252   24.6670   65.7987 C   0  0  0  0  0
    5.0513   26.9008   64.9492 C   0  0  0  0  0
    3.4654   25.3834   64.1622 C   0  0  0  0  0
    3.9489   24.4096   64.9620 C   0  0  0  0  0
    2.3164   23.6146   63.8604 C   0  0  0  0  0
    1.5878   25.5800   62.4755 C   0  0  0  0  0
    2.4295   26.1262   61.3218 C   0  0  0  0  0
    1.9788   27.5567   61.1355 C   0  0  0  0  0
    1.5194   27.9844   62.5231 C   0  0  0  0  0
    0.8530   26.7567   63.1136 C   0  0  0  0  0
    2.4764   29.6274   60.3767 C   0  0  0  0  0
    2.0517   31.2625   64.0793 C   0  0  0  0  0
    2.8825   31.0354   65.3247 C   0  0  0  0  0
    5.5390   23.6690   66.6316 O   0  0  0  0  0
   -0.4934   26.7045   62.7445 O   0  0  0  0  0
    0.6768   29.1101   62.4784 O   0  0  0  0  0
    3.0402   28.3809   60.7202 O   0  0  0  0  0
    0.6564   31.6547   61.3394 O   0  0  0  0  0
    2.7850   30.8799   62.9558 O   0  0  0  0  0
    5.5603   25.9269   65.7710 N   0  0  0  0  0
    3.9893   26.6331   64.1309 N   0  0  0  0  0
    3.2460   23.2738   64.7982 N   0  0  0  0  0
    2.4334   24.9042   63.4547 N   0  0  0  0  0
    1.6321   30.3615   61.8264 P   0  0  0  0  0
  1  2  1  0  0  0
  2 16  1  0  0  0
  3 16  1  0  0  0
  4 22  1  0  0  0
  5 23  1  0  0  0
  6 24  1  0  0  0
  6  3  1  0  0  0
  7 25  1  0  0  0
  8 25  1  0  0  0
  8  9  1  0  0  0
 10  9  1  0  0  0
 10 11  1  0  0  0
 10 19  1  0  0  0
 11 12  1  0  0  0
 11 18  1  0  0  0
 12 17  1  0  0  0
 12  8  1  0  0  0
 13 19  1  0  0  0
 14 21  1  0  0  0
 14 15  1  0  0  0
 25  5  1  0  0  0
 26 18  1  0  0  0
 26 13  1  0  0  0
 26 20  1  0  0  0
 26 21  1  0  0  0
  3 22  2  0  0  0
  4 23  2  0  0  0
  5  6  2  0  0  0
  7 24  2  0  0  0
M  CHG  2  26   1  20  -1
M  END
> <rmsd>
0.73246187

$$$$
PubChem-10096573


 33 35  0  0  0  0  0  0  0  0999 V2000
    3.5089   30.9777   59.5017 C   0  0  0  0  0
    2.9583   30.4785   60.8207 C   0  0  0  0  0
    3.9293   30.8261   61.9506 C   0  0  0  0  0
    3.8553   29.7922   63.0734 C   0  0  0  0  0
    2.4388   29.2376   63.1948 C   0  0  0  0  0
    1.9249   28.6731   61.8462 C   0  0  0  0  0
    1.9922   27.1289   61.9546 C   0  0  0  0  0
    1.0723   26.5414   62.9904 C   0  0  0  0  0
    3.0161   25.5856   64.3080 C   0  0  0  0  0
    3.2164   24.4975   65.3537 C   0  0  0  0  0
    4.6160   24.6818   65.9677 C   0  0  0  0  0
    5.1925   23.3377   66.4328 C   0  0  0  0  0
    4.0819   22.3727   66.8964 C   0  0  0  0  0
    3.0046   22.2488   65.7705 C   0  0  0  0  0
    1.5516   22.0265   66.2229 C   0  0  0  0  0
    1.4082   20.6720   66.9030 C   0  0  0  0  0
    0.0769   20.5679   67.6270 C   0  0  0  0  0
    4.6848   20.9997   67.1324 C   0  0  0  0  0
    3.4833   22.8702   68.2130 C   0  0  0  0  0
    7.3617   23.1568   66.8567 C   0  0  0  0  0
    5.0397   26.5940   64.7580 C   0  0  0  0  0
    0.1333   28.8469   60.3822 C   0  0  0  0  0
    2.7556   29.0847   60.7579 O   0  0  0  0  0
   -0.1749   26.6660   62.8681 O   0  0  0  0  0
    3.1040   23.2307   64.7512 O   0  0  0  0  0
    0.0710   21.4131   68.7370 O   0  0  0  0  0
    0.6930   22.0814   65.1223 O   0  0  0  0  0
    6.1506   23.5450   67.4325 O   0  0  0  0  0
    5.4784   25.2672   65.0225 O   0  0  0  0  0
    3.6276   26.7703   64.7553 O   0  0  0  0  0
    1.7783   26.5133   60.7186 O   0  0  0  0  0
    0.5882   29.1279   61.6823 O   0  0  0  0  0
    1.5929   25.8090   64.1019 N   0  0  0  0  0
  2  1  1  0  0  0
  2  3  1  0  0  0
  2 23  1  0  0  0
  3  4  1  0  0  0
  4  5  1  0  0  0
  5  6  1  0  0  0
  6 23  1  0  0  0
  6  7  1  0  0  0
  6 32  1  0  0  0
  7  8  1  0  0  0
  7 31  1  0  0  0
  8 33  1  0  0  0
  9 33  1  0  0  0
  9 10  1  0  0  0
  9 30  1  0  0  0
 10 11  1  0  0  0
 10 25  1  0  0  0
 11 12  1  0  0  0
 11 29  1  0  0  0
 12 13  1  0  0  0
 12 28  1  0  0  0
 13 18  1  0  0  0
 13 19  1  0  0  0
 14 13  1  0  0  0
 14 25  1  0  0  0
 14 15  1  0  0  0
 15 16  1  0  0  0
 15 27  1  0  0  0
 16 17  1  0  0  0
 17 26  1  0  0  0
 20 28  1  0  0  0
 21 29  1  0  0  0
 21 30  1  0  0  0
 22 32  1  0  0  0
  8 24  2  0  0  0
M  END
> <rmsd>
0.61639905

$$$$
PubChem-51692850


 29 30  0  0  0  0  0  0  0  0999 V2000
   -1.1570   28.7971   61.3540 C   0  0  0  0  0
    0.3602   28.8020   61.3927 C   0  0  0  0  0
    0.8483   29.8049   60.3461 C   0  0  0  0  0
    2.3184   30.0795   60.4229 C   0  0  0  0  0
    0.8945   27.4024   61.0651 C   0  0  0  0  0
    0.6535   26.4037   62.1533 C   0  0  0  0  0
    1.5823   24.9441   63.9024 C   0  0  0  0  0
    2.9338   24.6082   64.5120 C   0  0  0  0  0
    3.3998   25.7173   65.4722 C   0  0  0  0  0
    4.7641   25.3546   66.0627 C   0  0  0  0  0
    4.7218   23.9310   66.6220 C   0  0  0  0  0
    4.1084   22.9501   65.6099 C   0  0  0  0  0
    5.2299   21.3682   64.5306 C   0  0  0  0  0
    6.6993   21.1493   64.4235 C   0  0  0  0  0
    7.3911   21.5382   63.2700 C   0  0  0  0  0
    8.7702   21.3270   63.1764 C   0  0  0  0  0
    9.4587   20.7253   64.2344 C   0  0  0  0  0
    8.7681   20.3338   65.3855 C   0  0  0  0  0
    7.3889   20.5448   65.4795 C   0  0  0  0  0
    3.1527   29.1779   60.1478 O   0  0  0  0  0
    2.7633   31.3460   60.7763 O   0  0  0  0  0
   -0.5207   26.0281   62.4190 O   0  0  0  0  0
    1.7432   25.8873   62.8528 O   0  0  0  0  0
    2.8239   23.3785   65.1990 O   0  0  0  0  0
    4.9502   22.7363   64.5089 O   0  0  0  0  0
    5.9943   23.5104   67.0147 O   0  0  0  0  0
    5.7645   25.4697   65.0908 O   0  0  0  0  0
    3.4791   26.9493   64.8171 O   0  0  0  0  0
    0.7818   29.2027   62.6645 O   0  0  0  0  0
  2  1  1  0  0  0
  2  3  1  0  0  0
  2  5  1  0  0  0
  2 29  1  0  0  0
  3  4  1  0  0  0
  4 21  1  0  0  0
  5  6  1  0  0  0
  6 23  1  0  0  0
  7 23  1  0  0  0
  8  7  1  0  0  0
  8  9  1  0  0  0
  8 24  1  0  0  0
  9 10  1  0  0  0
  9 28  1  0  0  0
 10 11  1  0  0  0
 10 27  1  0  0  0
 11 12  1  0  0  0
 11 26  1  0  0  0
 12 24  1  0  0  0
 12 25  1  0  0  0
 13 25  1  0  0  0
 13 14  1  0  0  0
 15 16  1  0  0  0
 17 18  1  0  0  0
 19 14  1  0  0  0
  4 20  2  0  0  0
  6 22  2  0  0  0
 14 15  2  0  0  0
 16 17  2  0  0  0
 18 19  2  0  0  0
M  END
> <rmsd>
0.402835637

$$$$
PubChem-154788198


 24 27  0  0  0  0  0  0  0  0999 V2000
    0.3103   31.8399   61.7621 C   0  0  0  0  0
    1.0584   30.5951   61.4449 C   0  0  0  0  0
    1.6665   28.6010   61.3585 C   0  0  0  0  0
    1.7691   27.1173   61.5626 C   0  0  0  0  0
    0.4608   26.4539   61.1741 C   0  0  0  0  0
    0.5503   26.3223   63.5274 C   0  0  0  0  0
    1.9081   26.7347   63.0173 C   0  0  0  0  0
    2.7268   27.6163   63.9330 C   0  0  0  0  0
    2.9738   25.6980   63.2642 C   0  0  0  0  0
    3.6022   26.1022   65.4990 C   0  0  0  0  0
    4.7544   25.2209   65.8558 C   0  0  0  0  0
    7.0815   24.9647   66.2270 C   0  0  0  0  0
    6.8880   23.6149   66.5212 C   0  0  0  0  0
    4.5569   23.8650   66.1530 C   0  0  0  0  0
    3.0282   21.9481   66.4006 C   0  0  0  0  0
   -0.9208   24.9526   62.3261 C   0  0  0  0  0
    0.7097   29.3794   61.9059 N   0  0  0  0  0
    2.5420   29.3017   60.6158 N   0  0  0  0  0
    2.1561   30.5644   60.6695 N   0  0  0  0  0
   -0.3533   26.2878   62.3796 N   0  0  0  0  0
    3.7438   26.5878   64.1325 N   0  0  0  0  0
    6.0119   25.7371   65.9020 N   0  0  0  0  0
    5.6331   23.0955   66.4782 N   0  0  0  0  0
    3.2724   23.3164   66.1121 O   0  0  0  0  0
  1  2  1  0  0  0
  3 17  1  0  0  0
  4  3  1  0  0  0
  4  5  1  0  0  0
  5 20  1  0  0  0
  6 20  1  0  0  0
  6  7  1  0  0  0
  7  8  1  0  0  0
  7  4  1  0  0  0
  8 21  1  0  0  0
  9 21  1  0  0  0
  9  7  1  0  0  0
 10 21  1  0  0  0
 10 11  1  0  0  0
 12 22  1  0  0  0
 13 23  1  0  0  0
 14 24  1  0  0  0
 14 11  1  0  0  0
 15 24  1  0  0  0
 16 20  1  0  0  0
 19 18  1  0  0  0
 19  2  1  0  0  0
  2 17  2  0  0  0
  3 18  2  0  0  0
 11 22  2  0  0  0
 12 13  2  0  0  0
 14 23  2  0  0  0
M  END
> <rmsd>
0.653429389

$$$$
PubChem-137454080


 31 33  0  0  0  0  0  0  0  0999 V2000
    7.8870   22.9065   67.5937 C   0  0  0  0  0
    7.1989   24.1048   66.9755 C   0  0  0  0  0
    5.0734   24.6108   65.8286 C   0  0  0  0  0
    4.6436   26.8150   65.0807 C   0  0  0  0  0
    2.9915   25.1523   64.7103 C   0  0  0  0  0
    3.8209   24.1839   65.3242 C   0  0  0  0  0
    4.0620   21.8286   65.8816 C   0  0  0  0  0
    0.8320   23.8358   64.8118 C   0  0  0  0  0
    1.1490   25.4975   62.9891 C   0  0  0  0  0
    0.5161   26.8732   63.2853 C   0  0  0  0  0
    1.4867   27.7844   62.6051 C   0  0  0  0  0
    2.0092   26.9292   61.4807 C   0  0  0  0  0
    3.3393   27.5474   61.0626 C   0  0  0  0  0
    0.9384   30.7483   59.6779 C   0  0  0  0  0
    1.4740   31.1714   58.3252 C   0  0  0  0  0
   -0.4471   31.3304   59.8718 C   0  0  0  0  0
    0.3881   27.2242   64.7609 C   0  0  0  0  0
    5.9356   23.7107   66.4608 O   0  0  0  0  0
    2.1494   25.6284   61.9906 O   0  0  0  0  0
    3.1506   28.7990   60.4325 O   0  0  0  0  0
    3.2341   30.2519   62.6368 O   0  0  0  0  0
    0.9635   29.0016   62.1501 O   0  0  0  0  0
    1.7871   31.2164   60.6837 O   0  0  0  0  0
   -0.7408   26.9450   62.6794 O   0  0  0  0  0
    5.4454   25.9122   65.6925 N   0  0  0  0  0
    3.4382   26.4322   64.5991 N   0  0  0  0  0
    3.3919   22.8094   65.3689 N   0  0  0  0  0
    1.6933   24.8171   64.1687 N   0  0  0  0  0
    5.0663   28.1660   64.9452 N   0  0  0  0  0
    2.3121   29.8329   61.5128 P   0  0  0  0  0
    1.1342   26.9123   60.4028 F   0  0  0  0  0
  1  2  1  0  0  0
  2 18  1  0  0  0
  3 18  1  0  0  0
  4 25  1  0  0  0
  4 29  1  0  0  0
  5 26  1  0  0  0
  5 28  1  0  0  0
  6 27  1  0  0  0
  6  3  1  0  0  0
  8 28  1  0  0  0
  9 28  1  0  0  0
  9 10  1  0  0  0
  9 19  1  0  0  0
 10 11  1  0  0  0
 10 17  1  0  0  0
 10 24  1  0  0  0
 11 12  1  0  0  0
 11 22  1  0  0  0
 12 19  1  0  0  0
 12 13  1  0  0  0
 12 31  1  0  0  0
 13 20  1  0  0  0
 14 23  1  0  0  0
 14 15  1  0  0  0
 14 16  1  0  0  0
 30 20  1  0  0  0
 30 22  1  0  0  0
 30 23  1  0  0  0
  3 25  2  0  0  0
  4 26  2  0  0  0
  5  6  2  0  0  0
  7 27  2  0  0  0
 30 21  2  0  0  0
M  END
> <rmsd>
0.688231647

$$$$
PubChem-163679001


 23 25  0  0  0  0  0  0  0  0999 V2000
    3.3136   24.4018   60.6137 C   0  0  0  0  0
    3.1469   25.3451   61.7916 C   0  0  0  0  0
    3.7352   26.7075   61.3289 C   0  0  0  0  0
    2.7809   27.8581   61.4186 C   0  0  0  0  0
    1.5312   27.7487   61.7818 C   0  0  0  0  0
    0.9116   26.4780   62.1475 C   0  0  0  0  0
    1.6651   25.3687   62.1453 C   0  0  0  0  0
   -1.1209   25.2570   62.8665 C   0  0  0  0  0
    1.8854   29.9494   61.3346 C   0  0  0  0  0
    3.9752   24.8192   62.9936 C   0  0  0  0  0
    3.5237   23.4326   63.5243 C   0  0  0  0  0
    3.9582   23.1487   64.9677 C   0  0  0  0  0
    5.2619   23.8709   65.3188 C   0  0  0  0  0
    5.1512   25.3961   65.1898 C   0  0  0  0  0
    4.1537   25.8593   64.1216 C   0  0  0  0  0
   -0.4440   26.4495   62.4909 O   0  0  0  0  0
    0.9175   28.9879   61.7548 O   0  0  0  0  0
    3.0696   29.1789   61.1273 O   0  0  0  0  0
    2.9310   26.1651   64.7232 O   0  0  0  0  0
    6.4098   25.9316   64.9182 O   0  0  0  0  0
    5.6742   23.5292   66.6072 O   0  0  0  0  0
    2.9386   23.5011   65.8551 O   0  0  0  0  0
    4.0417   22.3817   62.6654 N   0  0  0  0  0
  1  2  1  0  0  0
  2  3  1  0  0  0
  2  7  1  0  0  0
  3  4  1  0  0  0
  4 18  1  0  0  0
  5  6  1  0  0  0
  5 17  1  0  0  0
  6 16  1  0  0  0
  8 16  1  0  0  0
  9 17  1  0  0  0
  9 18  1  0  0  0
 10  2  1  0  0  0
 10 11  1  0  0  0
 11 12  1  0  0  0
 11 23  1  0  0  0
 12 13  1  0  0  0
 12 22  1  0  0  0
 13 14  1  0  0  0
 13 21  1  0  0  0
 14 15  1  0  0  0
 14 20  1  0  0  0
 15 19  1  0  0  0
 15 10  1  0  0  0
  4  5  2  0  0  0
  6  7  2  0  0  0
M  END
> <rmsd>
0.677918673

$$$$
PubChem-70580438


 22 22  0  0  0  0  0  0  0  0999 V2000
    8.4267   25.6741   64.5986 C   0  0  0  0  0
    7.6366   25.4825   65.8763 C   0  0  0  0  0
    5.3223   24.6471   65.8435 C   0  0  0  0  0
    3.9425   24.8338   65.5715 C   0  0  0  0  0
    2.0770   26.2376   64.7913 C   0  0  0  0  0
    1.8324   27.6496   64.2720 C   0  0  0  0  0
    2.2227   28.6867   65.3138 C   0  0  0  0  0
    1.7279   29.5131   67.5326 C   0  0  0  0  0
    0.7120   29.4254   68.6517 C   0  0  0  0  0
    1.8159   30.9658   67.0880 C   0  0  0  0  0
    3.0727   29.0564   68.0794 C   0  0  0  0  0
    6.2538   25.6598   65.6096 O   0  0  0  0  0
    3.4588   26.0374   65.0593 O   0  0  0  0  0
    2.5645   27.8604   63.1003 O   0  0  0  0  0
    2.1239   28.4391   60.5875 O   0  0  0  0  0
    0.3665   26.8749   61.7236 O   0  0  0  0  0
    0.5242   29.5696   62.3164 O   0  0  0  0  0
    5.6839   23.4348   66.3413 N   0  0  0  0  0
    3.1237   23.7815   65.8372 N   0  0  0  0  0
    1.2835   28.6490   66.4339 N   0  0  0  0  0
    4.2166   22.6807   66.4019 S   0  0  0  0  0
    1.4140   28.1922   61.8985 P   0  0  0  0  0
  1  2  1  0  0  0
  2 12  1  0  0  0
  3 12  1  0  0  0
  4 13  1  0  0  0
  4  3  1  0  0  0
  5 13  1  0  0  0
  6  5  1  0  0  0
  6  7  1  0  0  0
  6 14  1  0  0  0
  7 20  1  0  0  0
  8 20  1  0  0  0
  8  9  1  0  0  0
  8 10  1  0  0  0
  8 11  1  0  0  0
 18 21  1  0  0  0
 21 19  1  0  0  0
 22 14  1  0  0  0
 22 16  1  0  0  0
 22 17  1  0  0  0
  3 18  2  0  0  0
  4 19  2  0  0  0
 22 15  2  0  0  0
M  END
> <rmsd>
0.708091736

$$$$
PubChem-161159481 PubChem-59865430 PubChem-72581869


 22 22  0  0  0  0  0  0  0  0999 V2000
    2.4771   28.5286   58.4539 C   0  0  0  0  0
    1.5640   28.5957   59.6595 C   0  0  0  0  0
    2.0032   27.8787   63.6370 C   0  0  0  0  0
    2.9150   26.6580   63.4961 C   0  0  0  0  0
    2.5501   25.9506   65.7625 C   0  0  0  0  0
    2.0365   24.5224   65.5921 C   0  0  0  0  0
    3.4266   23.3406   67.0788 C   0  0  0  0  0
    4.7035   22.5213   67.2229 C   0  0  0  0  0
    6.2841   24.2459   67.4889 C   0  0  0  0  0
    7.0894   25.2838   66.7171 C   0  0  0  0  0
    5.4118   26.8712   66.2575 C   0  0  0  0  0
    4.3952   27.3629   65.2358 C   0  0  0  0  0
    0.6889   25.8755   61.3854 C   0  0  0  0  0
   -0.1980   24.6582   61.5375 C   0  0  0  0  0
    2.2911   28.2884   60.8114 O   0  0  0  0  0
    0.4529   29.5516   62.1959 O   0  0  0  0  0
   -0.0184   27.0176   61.7657 O   0  0  0  0  0
    1.1494   28.2151   62.0676 P   0  0  0  0  0
    3.5617   26.2631   64.7534 N   0  0  0  0  0
    3.1284   23.5615   65.6717 N   0  0  0  0  0
    5.8293   23.1957   66.5898 N   0  0  0  0  0
    6.2889   25.8786   65.6545 N   0  0  0  0  0
  1  2  1  0  0  0
  2 15  1  0  0  0
  3  4  1  0  0  0
  4 19  1  0  0  0
  5 19  1  0  0  0
  5  6  1  0  0  0
  6 20  1  0  0  0
  7 20  1  0  0  0
  7  8  1  0  0  0
  8 21  1  0  0  0
  9 21  1  0  0  0
  9 10  1  0  0  0
 10 22  1  0  0  0
 11 22  1  0  0  0
 11 12  1  0  0  0
 12 19  1  0  0  0
 13 17  1  0  0  0
 13 14  1  0  0  0
 18 15  1  0  0  0
 18  3  1  0  0  0
 18 17  1  0  0  0
 18 16  2  0  0  0
M  CHG  3  20  -1  21  -1  22  -1
M  END
> <rmsd>
0.616032064

$$$$
PubChem-60070043


 28 28  0  0  0  0  0  0  0  0999 V2000
    1.3015   26.4810   59.8959 C   0  0  0  0  0
    1.3807   26.6589   61.4032 C   0  0  0  0  0
    0.0093   26.7919   61.9963 C   0  0  0  0  0
    2.3059   27.8310   61.7640 C   0  0  0  0  0
    2.6634   27.8394   63.2465 C   0  0  0  0  0
    3.7552   26.8230   63.5611 C   0  0  0  0  0
    5.0942   27.3503   63.1407 C   0  0  0  0  0
    3.8939   25.1957   65.0869 C   0  0  0  0  0
    5.1302   24.9051   65.9393 C   0  0  0  0  0
    5.1765   23.4373   66.3483 C   0  0  0  0  0
    3.8137   22.9688   66.9027 C   0  0  0  0  0
    2.6481   24.6229   65.7853 C   0  0  0  0  0
    1.4168   24.8881   64.9856 C   0  0  0  0  0
    3.4624   23.2881   68.3831 C   0  0  0  0  0
    2.0185   22.9157   68.6715 C   0  0  0  0  0
    4.3328   22.4599   69.3087 C   0  0  0  0  0
    3.6558   24.7571   68.7209 C   0  0  0  0  0
    1.7926   29.1719   61.3276 C   0  0  0  0  0
   -0.8002   25.8839   61.8976 O   0  0  0  0  0
    5.3557   27.5200   61.9608 O   0  0  0  0  0
    3.7645   26.5841   64.9394 O   0  0  0  0  0
    2.7679   23.2302   65.9850 O   0  0  0  0  0
    0.5163   25.6338   65.4500 O   0  0  0  0  0
    1.2559   24.3045   63.7353 O   0  0  0  0  0
    6.2115   23.2139   67.2579 O   0  0  0  0  0
    6.2850   25.2290   65.2257 O   0  0  0  0  0
    0.7637   29.6732   61.8542 O   0  0  0  0  0
    2.4708   29.8744   60.3410 O   0  0  0  0  0
  1  2  1  0  0  0
  2  3  1  0  0  0
  2  4  1  0  0  0
  4  5  1  0  0  0
  4 18  1  0  0  0
  5  6  1  0  0  0
  6  7  1  0  0  0
  6 21  1  0  0  0
  8 21  1  0  0  0
  8  9  1  0  0  0
  9 10  1  0  0  0
  9 26  1  0  0  0
 10 11  1  0  0  0
 10 25  1  0  0  0
 11 22  1  0  0  0
 11 14  1  0  0  0
 12 22  1  0  0  0
 12 13  1  0  0  0
 12  8  1  0  0  0
 13 24  1  0  0  0
 14 15  1  0  0  0
 14 16  1  0  0  0
 14 17  1  0  0  0
 18 28  1  0  0  0
  3 19  2  0  0  0
  7 20  2  0  0  0
 13 23  2  0  0  0
 18 27  2  0  0  0
M  END
> <rmsd>
0.628956974

$$$$
PubChem-101948356


 32 34  0  0  0  0  0  0  0  0999 V2000
   -1.7258   26.5193   61.8335 C   0  0  0  0  0
   -0.4485   27.2856   61.5580 C   0  0  0  0  0
    3.3167   27.1527   63.0639 C   0  0  0  0  0
    3.3038   25.4535   64.4836 C   0  0  0  0  0
    2.0375   24.6678   64.7839 C   0  0  0  0  0
    1.8811   22.3128   64.0180 C   0  0  0  0  0
    0.9584   22.6161   63.0034 C   0  0  0  0  0
    0.5276   21.6178   62.1246 C   0  0  0  0  0
    1.0171   20.3147   62.2525 C   0  0  0  0  0
    1.9368   20.0083   63.2602 C   0  0  0  0  0
    2.3696   21.0070   64.1474 C   0  0  0  0  0
    4.0164   19.5252   65.2692 C   0  0  0  0  0
    4.9270   19.5930   66.4829 C   0  0  0  0  0
    5.4554   21.4420   67.5738 C   0  0  0  0  0
    6.4807   22.5420   67.7699 C   0  0  0  0  0
    7.0596   24.7486   66.8059 C   0  0  0  0  0
    8.2684   24.7778   67.5261 C   0  0  0  0  0
    9.1452   25.8583   67.4110 C   0  0  0  0  0
    8.8287   26.9228   66.5678 C   0  0  0  0  0
    7.6297   26.9118   65.8518 C   0  0  0  0  0
    6.7297   25.8459   65.9724 C   0  0  0  0  0
    4.3439   25.2356   65.5750 C   0  0  0  0  0
    0.6036   26.7041   62.2695 O   0  0  0  0  0
    1.4250   29.1029   62.9692 O   0  0  0  0  0
    2.9937   26.8115   64.3790 O   0  0  0  0  0
    2.3508   23.2887   64.9017 O   0  0  0  0  0
    3.2906   20.7410   65.1640 O   0  0  0  0  0
    5.7415   20.7268   66.4086 O   0  0  0  0  0
    6.2154   23.6324   66.8915 O   0  0  0  0  0
    5.5394   25.9281   65.2403 O   0  0  0  0  0
    2.2566   28.2342   60.6420 O   0  0  0  0  0
    1.8566   27.8495   62.2407 P   0  0  0  0  0
  1  2  1  0  0  0
  2 23  1  0  0  0
  3 25  1  0  0  0
  4 25  1  0  0  0
  4  5  1  0  0  0
  5 26  1  0  0  0
  6 26  1  0  0  0
  7  8  1  0  0  0
  9 10  1  0  0  0
 11 27  1  0  0  0
 11  6  1  0  0  0
 12 27  1  0  0  0
 12 13  1  0  0  0
 13 28  1  0  0  0
 14 28  1  0  0  0
 14 15  1  0  0  0
 15 29  1  0  0  0
 16 29  1  0  0  0
 17 18  1  0  0  0
 19 20  1  0  0  0
 21 30  1  0  0  0
 21 16  1  0  0  0
 22 30  1  0  0  0
 22  4  1  0  0  0
 32 23  1  0  0  0
 32  3  1  0  0  0
 32 31  1  0  0  0
  6  7  2  0  0  0
  8  9  2  0  0  0
 10 11  2  0  0  0
 16 17  2  0  0  0
 18 19  2  0  0  0
 20 21  2  0  0  0
 32 24  2  0  0  0
M  END
> <rmsd>
0.726417363

$$$$
PubChem-146162577


 30 33  0  0  0  0  0  0  0  0999 V2000
    3.9160   29.9604   63.1326 C   0  0  0  0  0
    2.9329   30.9573   62.5561 C   0  0  0  0  0
    2.1683   31.5978   63.6956 C   0  0  0  0  0
    3.7082   32.0249   61.8134 C   0  0  0  0  0
    3.1420   28.0547   60.6121 C   0  0  0  0  0
    2.0582   27.1614   61.2029 C   0  0  0  0  0
    1.6208   27.8267   62.4762 C   0  0  0  0  0
    0.9777   26.6925   63.2155 C   0  0  0  0  0
    1.7002   25.4841   62.6232 C   0  0  0  0  0
    2.2993   23.5369   64.0940 C   0  0  0  0  0
    3.9721   24.2819   65.1697 C   0  0  0  0  0
    3.5432   25.2504   64.3333 C   0  0  0  0  0
    5.2246   26.6993   65.0489 C   0  0  0  0  0
    5.0677   24.5069   65.9898 C   0  0  0  0  0
    6.6442   23.7238   67.7086 C   0  0  0  0  0
    0.5493   31.3030   60.5641 C   0  0  0  0  0
   -0.2447   32.0515   61.6141 C   0  0  0  0  0
    1.3158   32.2930   59.7120 C   0  0  0  0  0
   -0.4097   30.5348   59.6789 C   0  0  0  0  0
    1.7325   30.0926   61.3817 Si  0  0  0  0  0
    2.6028   29.2628   60.1155 O   0  0  0  0  0
    0.7746   28.9208   62.2387 O   0  0  0  0  0
    2.5389   25.8977   61.5620 O   0  0  0  0  0
    5.5251   23.5169   66.8605 O   0  0  0  0  0
   -0.3821   26.6058   62.9061 O   0  0  0  0  0
    2.4859   24.8034   63.6450 N   0  0  0  0  0
    3.2080   23.1808   65.0464 N   0  0  0  0  0
    4.1431   26.4625   64.2458 N   0  0  0  0  0
    5.6772   25.7301   65.9088 N   0  0  0  0  0
    5.8863   27.9566   64.9914 N   0  0  0  0  0
  1  2  1  0  0  0
  2  3  1  0  0  0
  2  4  1  0  0  0
  2 20  1  0  0  0
  5 21  1  0  0  0
  6  5  1  0  0  0
  6  7  1  0  0  0
  6 23  1  0  0  0
  7 22  1  0  0  0
  7  8  1  0  0  0
  8  9  1  0  0  0
  8 25  1  0  0  0
  9 23  1  0  0  0
  9 26  1  0  0  0
 11 27  1  0  0  0
 12 28  1  0  0  0
 12 26  1  0  0  0
 13 29  1  0  0  0
 13 30  1  0  0  0
 14 24  1  0  0  0
 14 11  1  0  0  0
 15 24  1  0  0  0
 16 17  1  0  0  0
 16 18  1  0  0  0
 16 19  1  0  0  0
 20 21  1  0  0  0
 20 16  1  0  0  0
 20 22  1  0  0  0
 26 10  1  0  0  0
 10 27  2  0  0  0
 11 12  2  0  0  0
 13 28  2  0  0  0
 14 29  2  0  0  0
M  END
> <rmsd>
0.667583406

$$$$
PubChem-146162577


 30 33  0  0  0  0  0  0  0  0999 V2000
    1.3157   32.2928   59.7116 C   0  0  0  0  0
    0.5493   31.3028   60.5637 C   0  0  0  0  0
   -0.2449   32.0513   61.6137 C   0  0  0  0  0
   -0.4097   30.5345   59.6786 C   0  0  0  0  0
    3.1421   28.0547   60.6122 C   0  0  0  0  0
    2.0583   27.1613   61.2030 C   0  0  0  0  0
    1.6207   27.8267   62.4763 C   0  0  0  0  0
    0.9778   26.6924   63.2155 C   0  0  0  0  0
    1.7003   25.4841   62.6234 C   0  0  0  0  0
    2.2994   23.5370   64.0942 C   0  0  0  0  0
    3.9722   24.2821   65.1701 C   0  0  0  0  0
    3.5432   25.2506   64.3336 C   0  0  0  0  0
    5.2246   26.6996   65.0491 C   0  0  0  0  0
    5.0677   24.5073   65.9902 C   0  0  0  0  0
    6.6441   23.7242   67.7092 C   0  0  0  0  0
    2.9327   30.9573   62.5560 C   0  0  0  0  0
    3.7081   32.0250   61.8133 C   0  0  0  0  0
    3.9159   29.9605   63.1325 C   0  0  0  0  0
    2.1682   31.5980   63.6952 C   0  0  0  0  0
    1.7325   30.0925   61.3815 Si  0  0  0  0  0
    2.6028   29.2627   60.1154 O   0  0  0  0  0
    0.7746   28.9207   62.2386 O   0  0  0  0  0
    2.5391   25.8976   61.5621 O   0  0  0  0  0
    5.5251   23.5174   66.8609 O   0  0  0  0  0
   -0.3820   26.6058   62.9060 O   0  0  0  0  0
    2.4860   24.8035   63.6452 N   0  0  0  0  0
    3.2081   23.1809   65.0468 N   0  0  0  0  0
    4.1431   26.4627   64.2460 N   0  0  0  0  0
    5.6771   25.7304   65.9092 N   0  0  0  0  0
    5.8863   27.9569   64.9915 N   0  0  0  0  0
  1  2  1  0  0  0
  2  3  1  0  0  0
  2  4  1  0  0  0
  2 20  1  0  0  0
  5 21  1  0  0  0
  6  5  1  0  0  0
  6  7  1  0  0  0
  6 23  1  0  0  0
  7 22  1  0  0  0
  7  8  1  0  0  0
  8  9  1  0  0  0
  8 25  1  0  0  0
  9 23  1  0  0  0
  9 26  1  0  0  0
 11 27  1  0  0  0
 12 28  1  0  0  0
 12 26  1  0  0  0
 13 29  1  0  0  0
 13 30  1  0  0  0
 14 24  1  0  0  0
 14 11  1  0  0  0
 15 24  1  0  0  0
 16 17  1  0  0  0
 16 18  1  0  0  0
 16 19  1  0  0  0
 20 21  1  0  0  0
 20 16  1  0  0  0
 20 22  1  0  0  0
 26 10  1  0  0  0
 10 27  2  0  0  0
 11 12  2  0  0  0
 13 28  2  0  0  0
 14 29  2  0  0  0
M  END
> <rmsd>
0.667607963

$$$$
PubChem-146162577


 30 33  0  0  0  0  0  0  0  0999 V2000
    3.9160   29.9604   63.1326 C   0  0  0  0  0
    2.9329   30.9573   62.5561 C   0  0  0  0  0
    3.7082   32.0249   61.8134 C   0  0  0  0  0
    2.1684   31.5979   63.6954 C   0  0  0  0  0
    3.1420   28.0547   60.6121 C   0  0  0  0  0
    2.0582   27.1613   61.2029 C   0  0  0  0  0
    1.6207   27.8267   62.4763 C   0  0  0  0  0
    0.9777   26.6924   63.2155 C   0  0  0  0  0
    1.7002   25.4841   62.6232 C   0  0  0  0  0
    2.2993   23.5369   64.0939 C   0  0  0  0  0
    3.9721   24.2819   65.1697 C   0  0  0  0  0
    3.5432   25.2505   64.3333 C   0  0  0  0  0
    5.2246   26.6993   65.0489 C   0  0  0  0  0
    5.0677   24.5069   65.9898 C   0  0  0  0  0
    6.6442   23.7238   67.7087 C   0  0  0  0  0
    0.5493   31.3030   60.5640 C   0  0  0  0  0
    1.3158   32.2930   59.7119 C   0  0  0  0  0
   -0.2448   32.0515   61.6141 C   0  0  0  0  0
   -0.4098   30.5348   59.6789 C   0  0  0  0  0
    1.7324   30.0926   61.3817 Si  0  0  0  0  0
    2.6027   29.2629   60.1155 O   0  0  0  0  0
    0.7746   28.9208   62.2387 O   0  0  0  0  0
    2.5389   25.8977   61.5619 O   0  0  0  0  0
    5.5251   23.5170   66.8605 O   0  0  0  0  0
   -0.3821   26.6058   62.9061 O   0  0  0  0  0
    2.4860   24.8034   63.6450 N   0  0  0  0  0
    3.2080   23.1807   65.0463 N   0  0  0  0  0
    4.1431   26.4625   64.2458 N   0  0  0  0  0
    5.6772   25.7300   65.9089 N   0  0  0  0  0
    5.8864   27.9566   64.9914 N   0  0  0  0  0
  1  2  1  0  0  0
  2  3  1  0  0  0
  2  4  1  0  0  0
  2 20  1  0  0  0
  5 21  1  0  0  0
  6  5  1  0  0  0
  6  7  1  0  0  0
  6 23  1  0  0  0
  7 22  1  0  0  0
  7  8  1  0  0  0
  8  9  1  0  0  0
  8 25  1  0  0  0
  9 23  1  0  0  0
  9 26  1  0  0  0
 11 27  1  0  0  0
 12 28  1  0  0  0
 12 26  1  0  0  0
 13 29  1  0  0  0
 13 30  1  0  0  0
 14 24  1  0  0  0
 14 11  1  0  0  0
 15 24  1  0  0  0
 16 17  1  0  0  0
 16 18  1  0  0  0
 16 19  1  0  0  0
 20 21  1  0  0  0
 20 16  1  0  0  0
 20 22  1  0  0  0
 26 10  1  0  0  0
 10 27  2  0  0  0
 11 12  2  0  0  0
 13 28  2  0  0  0
 14 29  2  0  0  0
M  END
> <rmsd>
0.667583406

$$$$
PubChem-146162577


 30 33  0  0  0  0  0  0  0  0999 V2000
   -0.4097   30.5348   59.6787 C   0  0  0  0  0
    0.5492   31.3030   60.5641 C   0  0  0  0  0
    1.3157   32.2931   59.7120 C   0  0  0  0  0
   -0.2449   32.0513   61.6142 C   0  0  0  0  0
    3.1420   28.0547   60.6120 C   0  0  0  0  0
    2.0582   27.1613   61.2029 C   0  0  0  0  0
    1.6208   27.8267   62.4763 C   0  0  0  0  0
    0.9778   26.6924   63.2155 C   0  0  0  0  0
    1.7002   25.4841   62.6233 C   0  0  0  0  0
    2.2993   23.5370   64.0940 C   0  0  0  0  0
    3.9721   24.2818   65.1697 C   0  0  0  0  0
    3.5432   25.2503   64.3333 C   0  0  0  0  0
    5.2247   26.6993   65.0489 C   0  0  0  0  0
    5.0678   24.5069   65.9898 C   0  0  0  0  0
    6.6442   23.7238   67.7086 C   0  0  0  0  0
    2.9330   30.9573   62.5561 C   0  0  0  0  0
    2.1684   31.5979   63.6955 C   0  0  0  0  0
    3.7082   32.0250   61.8134 C   0  0  0  0  0
    3.9160   29.9604   63.1325 C   0  0  0  0  0
    1.7324   30.0926   61.3817 Si  0  0  0  0  0
    2.6027   29.2629   60.1154 O   0  0  0  0  0
    0.7746   28.9208   62.2387 O   0  0  0  0  0
    2.5389   25.8977   61.5619 O   0  0  0  0  0
    5.5251   23.5170   66.8605 O   0  0  0  0  0
   -0.3820   26.6058   62.9062 O   0  0  0  0  0
    2.4859   24.8034   63.6450 N   0  0  0  0  0
    3.2080   23.1807   65.0464 N   0  0  0  0  0
    4.1431   26.4625   64.2458 N   0  0  0  0  0
    5.6772   25.7301   65.9089 N   0  0  0  0  0
    5.8863   27.9566   64.9914 N   0  0  0  0  0
  1  2  1  0  0  0
  2  3  1  0  0  0
  2  4  1  0  0  0
  2 20  1  0  0  0
  5 21  1  0  0  0
  6  5  1  0  0  0
  6  7  1  0  0  0
  6 23  1  0  0  0
  7 22  1  0  0  0
  7  8  1  0  0  0
  8  9  1  0  0  0
  8 25  1  0  0  0
  9 23  1  0  0  0
  9 26  1  0  0  0
 11 27  1  0  0  0
 12 28  1  0  0  0
 12 26  1  0  0  0
 13 29  1  0  0  0
 13 30  1  0  0  0
 14 24  1  0  0  0
 14 11  1  0  0  0
 15 24  1  0  0  0
 16 17  1  0  0  0
 16 18  1  0  0  0
 16 19  1  0  0  0
 20 21  1  0  0  0
 20 16  1  0  0  0
 20 22  1  0  0  0
 26 10  1  0  0  0
 10 27  2  0  0  0
 11 12  2  0  0  0
 13 28  2  0  0  0
 14 29  2  0  0  0
M  END
> <rmsd>
0.667583406

$$$$
PubChem-87598809


 29 30  0  0  0  0  0  0  0  0999 V2000
   -4.4079   25.3188   57.4816 C   0  0  0  0  0
   -3.1022   26.5126   59.2138 C   0  0  0  0  0
   -2.4574   27.6925   59.6181 C   0  0  0  0  0
   -1.8223   27.7410   60.8700 C   0  0  0  0  0
   -1.8319   26.6278   61.7140 C   0  0  0  0  0
   -2.4647   25.4514   61.3074 C   0  0  0  0  0
   -3.0999   25.3944   60.0649 C   0  0  0  0  0
   -1.1284   26.6813   63.0237 C   0  0  0  0  0
    0.8737   27.0506   63.8801 C   0  0  0  0  0
    2.3428   27.0900   63.6119 C   0  0  0  0  0
    2.9159   27.8944   62.5962 C   0  0  0  0  0
    4.2993   27.8194   62.3985 C   0  0  0  0  0
    5.0920   26.9884   63.1873 C   0  0  0  0  0
    4.4904   26.2240   64.1931 C   0  0  0  0  0
    3.8500   25.4779   67.4742 C   0  0  0  0  0
    6.5115   26.9377   62.9586 C   0  0  0  0  0
    2.1417   28.8259   61.7424 C   0  0  0  0  0
   -1.8208   30.0267   59.0936 C   0  0  0  0  0
   -3.7344   26.4726   57.9662 O   0  0  0  0  0
    0.2222   26.3830   62.8423 O   0  0  0  0  0
    5.2719   25.3919   65.0006 O   0  0  0  0  0
    5.7070   23.6364   66.8968 O   0  0  0  0  0
    3.5827   23.4973   65.6823 O   0  0  0  0  0
    0.9495   29.1256   62.0136 O   0  0  0  0  0
    2.7442   29.4115   60.6345 O   0  0  0  0  0
   -2.4576   28.7999   58.7630 O   0  0  0  0  0
    3.1431   26.2955   64.3726 N   0  0  0  0  0
    7.6533   26.8966   62.7748 N   0  0  0  0  0
    4.6101   24.4345   66.2516 S   0  0  0  0  0
  1 19  1  0  0  0
  2 19  1  0  0  0
  3  4  1  0  0  0
  3 26  1  0  0  0
  5  6  1  0  0  0
  7  2  1  0  0  0
  8  5  1  0  0  0
  8 20  1  0  0  0
  9 20  1  0  0  0
  9 10  1  0  0  0
 10 27  1  0  0  0
 11 12  1  0  0  0
 11 17  1  0  0  0
 13 14  1  0  0  0
 13 16  1  0  0  0
 14 21  1  0  0  0
 17 25  1  0  0  0
 18 26  1  0  0  0
 29 21  1  0  0  0
 29 15  1  0  0  0
  2  3  2  0  0  0
  4  5  2  0  0  0
  6  7  2  0  0  0
 10 11  2  0  0  0
 12 13  2  0  0  0
 14 27  2  0  0  0
 17 24  2  0  0  0
 29 22  2  0  0  0
 29 23  2  0  0  0
 16 28  3  0  0  0
M  END
> <rmsd>
0.725925982

$$$$
PubChem-121478572


 31 35  0  0  0  0  0  0  0  0999 V2000
    5.6274   29.9216   62.3410 C   0  0  0  0  0
    5.1737   31.3721   62.3110 C   0  0  0  0  0
    6.1149   32.1594   61.4237 C   0  0  0  0  0
    5.2250   31.9480   63.7147 C   0  0  0  0  0
    3.7615   31.4812   61.7468 C   0  0  0  0  0
    3.1746   28.1169   60.6370 C   0  0  0  0  0
    2.1071   27.2049   61.2217 C   0  0  0  0  0
    1.6153   27.8736   62.4753 C   0  0  0  0  0
    0.9604   26.7134   63.1565 C   0  0  0  0  0
    0.7850   26.8486   64.6455 C   0  0  0  0  0
   -0.6800   26.7382   64.2936 C   0  0  0  0  0
    1.7262   25.4973   62.6118 C   0  0  0  0  0
    2.3013   23.5322   64.0727 C   0  0  0  0  0
    3.9716   24.2570   65.1743 C   0  0  0  0  0
    3.5512   25.2360   64.3416 C   0  0  0  0  0
    5.2296   26.6751   65.0786 C   0  0  0  0  0
    5.0747   24.4735   66.0065 C   0  0  0  0  0
    5.0230   22.2183   67.0596 C   0  0  0  0  0
    2.8563   30.7330   62.5071 O   0  0  0  0  0
    0.8951   31.1853   60.8156 O   0  0  0  0  0
    2.5919   29.2908   60.1152 O   0  0  0  0  0
    0.7597   28.9411   62.1709 O   0  0  0  0  0
   -0.4197   26.6227   62.9134 O   0  0  0  0  0
    2.5940   25.9408   61.5856 O   0  0  0  0  0
    5.5821   23.5145   66.8929 O   0  0  0  0  0
    1.7579   30.0822   61.3880 P   0  0  0  0  0
    2.4960   24.8028   63.6417 N   0  0  0  0  0
    3.2002   23.1628   65.0277 N   0  0  0  0  0
    4.1539   26.4467   64.2682 N   0  0  0  0  0
    5.6785   25.6972   65.9304 N   0  0  0  0  0
    5.8928   27.9321   65.0355 N   0  0  0  0  0
  1  2  1  0  0  0
  2  3  1  0  0  0
  2  4  1  0  0  0
  2  5  1  0  0  0
  5 19  1  0  0  0
  6 21  1  0  0  0
  7  6  1  0  0  0
  7  8  1  0  0  0
  7 24  1  0  0  0
  8 22  1  0  0  0
  8  9  1  0  0  0
  9 10  1  0  0  0
  9 12  1  0  0  0
  9 23  1  0  0  0
 10 11  1  0  0  0
 11 23  1  0  0  0
 12 24  1  0  0  0
 12 27  1  0  0  0
 14 28  1  0  0  0
 15 29  1  0  0  0
 15 27  1  0  0  0
 16 30  1  0  0  0
 16 31  1  0  0  0
 17 25  1  0  0  0
 17 14  1  0  0  0
 18 25  1  0  0  0
 26 19  1  0  0  0
 26 21  1  0  0  0
 26 22  1  0  0  0
 27 13  1  0  0  0
 13 28  2  0  0  0
 14 15  2  0  0  0
 16 29  2  0  0  0
 17 30  2  0  0  0
 26 20  2  0  0  0
M  END
> <rmsd>
0.670036077

$$$$
PubChem-10496491


 21 21  0  0  0  0  0  0  0  0999 V2000
   -1.8617   26.7847   60.2303 C   0  0  0  0  0
   -0.7745   27.6650   60.8090 C   0  0  0  0  0
    2.7113   26.9868   62.7795 C   0  0  0  0  0
    2.1290   26.2416   63.9651 C   0  0  0  0  0
    3.2161   25.4506   64.6688 C   0  0  0  0  0
    2.5846   24.4865   65.6817 C   0  0  0  0  0
    3.5413   24.1670   66.8355 C   0  0  0  0  0
    5.0008   24.2709   66.3784 C   0  0  0  0  0
    5.2828   25.6076   65.6630 C   0  0  0  0  0
    7.1808   26.2440   64.7199 C   0  0  0  0  0
    2.4879   27.7485   59.7323 C   0  0  0  0  0
    3.0086   28.3810   58.4593 C   0  0  0  0  0
    0.1733   26.8695   61.4554 O   0  0  0  0  0
    0.8446   28.9479   62.9169 O   0  0  0  0  0
    4.1116   26.3274   65.3151 O   0  0  0  0  0
    6.0858   25.3988   64.5378 O   0  0  0  0  0
    5.8704   24.1087   67.4576 O   0  0  0  0  0
    3.2998   25.0456   67.8946 O   0  0  0  0  0
    2.2200   23.3056   65.0350 O   0  0  0  0  0
    2.0538   28.7481   60.6048 O   0  0  0  0  0
    1.4037   27.9328   61.9443 P   0  0  0  0  0
  1  2  1  0  0  0
  2 13  1  0  0  0
  3  4  1  0  0  0
  5  4  1  0  0  0
  5  6  1  0  0  0
  5 15  1  0  0  0
  6  7  1  0  0  0
  6 19  1  0  0  0
  7  8  1  0  0  0
  7 18  1  0  0  0
  8  9  1  0  0  0
  8 17  1  0  0  0
  9 15  1  0  0  0
  9 16  1  0  0  0
 10 16  1  0  0  0
 11 20  1  0  0  0
 11 12  1  0  0  0
 21 13  1  0  0  0
 21  3  1  0  0  0
 21 20  1  0  0  0
 21 14  2  0  0  0
M  END
> <rmsd>
0.742672622

$$$$
PubChem-10496491


 21 21  0  0  0  0  0  0  0  0999 V2000
    3.0089   28.3807   58.4591 C   0  0  0  0  0
    2.4883   27.7483   59.7323 C   0  0  0  0  0
    2.7116   26.9868   62.7794 C   0  0  0  0  0
    2.1292   26.2416   63.9652 C   0  0  0  0  0
    3.2163   25.4505   64.6690 C   0  0  0  0  0
    2.5847   24.4866   65.6818 C   0  0  0  0  0
    3.5413   24.1671   66.8356 C   0  0  0  0  0
    5.0009   24.2710   66.3785 C   0  0  0  0  0
    5.2830   25.6074   65.6631 C   0  0  0  0  0
    7.1810   26.2438   64.7200 C   0  0  0  0  0
   -0.7742   27.6651   60.8090 C   0  0  0  0  0
   -1.8615   26.7848   60.2303 C   0  0  0  0  0
    2.0542   28.7480   60.6048 O   0  0  0  0  0
    0.8449   28.9481   62.9168 O   0  0  0  0  0
    4.1118   26.3273   65.3152 O   0  0  0  0  0
    6.0860   25.3987   64.5379 O   0  0  0  0  0
    5.8704   24.1087   67.4578 O   0  0  0  0  0
    3.2999   25.0458   67.8947 O   0  0  0  0  0
    2.2200   23.3057   65.0351 O   0  0  0  0  0
    0.1736   26.8696   61.4554 O   0  0  0  0  0
    1.4041   27.9328   61.9443 P   0  0  0  0  0
  1  2  1  0  0  0
  2 13  1  0  0  0
  3  4  1  0  0  0
  5  4  1  0  0  0
  5  6  1  0  0  0
  5 15  1  0  0  0
  6  7  1  0  0  0
  6 19  1  0  0  0
  7  8  1  0  0  0
  7 18  1  0  0  0
  8  9  1  0  0  0
  8 17  1  0  0  0
  9 15  1  0  0  0
  9 16  1  0  0  0
 10 16  1  0  0  0
 11 20  1  0  0  0
 11 12  1  0  0  0
 21 13  1  0  0  0
 21  3  1  0  0  0
 21 20  1  0  0  0
 21 14  2  0  0  0
M  END
> <rmsd>
0.742726147

$$$$
PubChem-21329957


 21 20  0  0  0  0  0  0  0  0999 V2000
    4.5031   26.4208   61.2880 C   0  0  0  0  0
    2.9952   26.4386   61.4970 C   0  0  0  0  0
    2.5007   27.7571   62.1383 C   0  0  0  0  0
    1.0057   27.7127   62.3963 C   0  0  0  0  0
    2.7519   28.8796   61.1613 C   0  0  0  0  0
    2.9876   27.0252   64.2882 C   0  0  0  0  0
    4.0302   25.3581   65.5231 C   0  0  0  0  0
    3.1612   25.6457   66.7699 C   0  0  0  0  0
    3.6987   26.8017   67.6020 C   0  0  0  0  0
    5.3742   24.8623   65.9973 C   0  0  0  0  0
    3.4237   24.2545   64.6771 C   0  0  0  0  0
    0.3201   26.7014   62.0856 O   0  0  0  0  0
    0.3779   28.8009   62.9912 O   0  0  0  0  0
    2.2355   28.8504   60.0115 O   0  0  0  0  0
    3.5552   29.9572   61.5171 O   0  0  0  0  0
    3.2070   28.0417   63.3392 O   0  0  0  0  0
    4.2248   26.5333   64.7460 O   0  0  0  0  0
    6.4321   25.4712   65.6842 O   0  0  0  0  0
    5.4561   23.7213   66.7884 O   0  0  0  0  0
    2.3385   23.7030   65.0050 O   0  0  0  0  0
    4.0675   23.8454   63.5150 O   0  0  0  0  0
  1  2  1  0  0  0
  2  3  1  0  0  0
  3  4  1  0  0  0
  3  5  1  0  0  0
  3 16  1  0  0  0
  4 13  1  0  0  0
  5 15  1  0  0  0
  6 16  1  0  0  0
  6 17  1  0  0  0
  7 17  1  0  0  0
  7  8  1  0  0  0
  7 10  1  0  0  0
  7 11  1  0  0  0
  8  9  1  0  0  0
 10 19  1  0  0  0
 11 21  1  0  0  0
  4 12  2  0  0  0
  5 14  2  0  0  0
 10 18  2  0  0  0
 11 20  2  0  0  0
M  END
> <rmsd>
0.682878077

$$$$
PubChem-18706679


 21 22  0  0  0  0  0  0  0  0999 V2000
    6.9653   23.2004   66.5789 C   0  0  0  0  0
    5.2597   24.7302   65.6743 C   0  0  0  0  0
    5.8770   26.8124   64.7225 C   0  0  0  0  0
    4.5209   27.0946   64.4572 C   0  0  0  0  0
    4.1677   28.3055   63.8356 C   0  0  0  0  0
    5.1695   29.2169   63.4814 C   0  0  0  0  0
    6.5126   28.9323   63.7475 C   0  0  0  0  0
    6.8669   27.7310   64.3676 C   0  0  0  0  0
    2.7421   28.6334   63.5235 C   0  0  0  0  0
    2.2956   27.9488   62.2386 C   0  0  0  0  0
    0.8073   27.9581   62.1375 C   0  0  0  0  0
    3.9116   25.0070   65.4112 C   0  0  0  0  0
    1.5511   24.3121   65.5162 C   0  0  0  0  0
    5.6144   23.5286   66.2910 O   0  0  0  0  0
    0.1748   29.0460   62.0779 O   0  0  0  0  0
    0.1146   26.7556   62.1067 O   0  0  0  0  0
    2.9294   24.0800   65.7655 O   0  0  0  0  0
    6.2101   25.6411   65.3228 N   0  0  0  0  0
    2.8742   28.6182   61.0850 N   0  0  0  0  0
    3.5759   26.1824   64.8100 N   0  0  0  0  0
    7.8630   30.1844   63.2604 Br  0  0  0  0  0
  1 14  1  0  0  0
  2 14  1  0  0  0
  3 18  1  0  0  0
  4  5  1  0  0  0
  4 20  1  0  0  0
  6  7  1  0  0  0
  7 21  1  0  0  0
  8  3  1  0  0  0
  9  5  1  0  0  0
 10  9  1  0  0  0
 10 11  1  0  0  0
 10 19  1  0  0  0
 11 16  1  0  0  0
 12 17  1  0  0  0
 12  2  1  0  0  0
 13 17  1  0  0  0
  2 18  2  0  0  0
  3  4  2  0  0  0
  5  6  2  0  0  0
  7  8  2  0  0  0
 11 15  2  0  0  0
 12 20  2  0  0  0
M  END
> <rmsd>
0.695511103

$$$$
PubChem-120536173


 27 29  0  0  0  0  0  0  0  0999 V2000
   -1.6419   24.8566   61.6876 C   0  0  0  0  0
   -0.2494   25.2788   62.1052 C   0  0  0  0  0
   -0.0293   24.9258   63.5760 C   0  0  0  0  0
    1.6486   26.7704   63.5770 C   0  0  0  0  0
    1.2607   26.9664   62.1087 C   0  0  0  0  0
    1.5354   28.3687   61.6874 C   0  0  0  0  0
    2.1827   24.5506   64.7088 C   0  0  0  0  0
    3.5501   24.9622   65.0930 C   0  0  0  0  0
    4.4488   24.1911   65.8082 C   0  0  0  0  0
    6.7667   24.5941   66.5857 C   0  0  0  0  0
    8.0215   22.9926   67.8200 C   0  0  0  0  0
    9.1244   23.8535   67.8737 C   0  0  0  0  0
    9.0165   25.1191   67.2869 C   0  0  0  0  0
    7.8404   25.4915   66.6355 C   0  0  0  0  0
   10.3642   23.4633   68.6242 C   0  0  0  0  0
    1.2877   25.4129   63.9799 N   0  0  0  0  0
    5.5504   24.9566   65.9208 N   0  0  0  0  0
    5.3415   26.1148   65.3160 N   0  0  0  0  0
    4.1242   26.1460   64.7994 N   0  0  0  0  0
    6.8835   23.3737   67.1806 N   0  0  0  0  0
   -0.1038   26.6677   61.9229 O   0  0  0  0  0
    2.3672   28.5937   60.7708 O   0  0  0  0  0
    0.8745   29.4285   62.2965 O   0  0  0  0  0
    1.7930   23.3965   65.0369 O   0  0  0  0  0
   11.4783   24.0538   68.0531 F   0  0  0  0  0
   10.2541   23.8817   69.9371 F   0  0  0  0  0
   10.5317   22.0895   68.6000 F   0  0  0  0  0
  2  1  1  0  0  0
  2  3  1  0  0  0
  2 21  1  0  0  0
  3 16  1  0  0  0
  4 16  1  0  0  0
  4  5  1  0  0  0
  5 21  1  0  0  0
  5  6  1  0  0  0
  6 23  1  0  0  0
  7  8  1  0  0  0
  8 19  1  0  0  0
  9 17  1  0  0  0
 11 20  1  0  0  0
 12 13  1  0  0  0
 14 10  1  0  0  0
 15 12  1  0  0  0
 15 25  1  0  0  0
 15 26  1  0  0  0
 15 27  1  0  0  0
 16  7  1  0  0  0
 17 18  1  0  0  0
 17 10  1  0  0  0
  6 22  2  0  0  0
  7 24  2  0  0  0
  8  9  2  0  0  0
 10 20  2  0  0  0
 11 12  2  0  0  0
 13 14  2  0  0  0
 18 19  2  0  0  0
M  END
> <rmsd>
0.730692267

$$$$
PubChem-120536173


 27 29  0  0  0  0  0  0  0  0999 V2000
   -1.5998   24.8295   61.6256 C   0  0  0  0  0
   -0.2177   25.2642   62.0652 C   0  0  0  0  0
   -0.0118   24.8978   63.5348 C   0  0  0  0  0
    1.6439   26.7621   63.5762 C   0  0  0  0  0
    1.2711   26.9703   62.1056 C   0  0  0  0  0
    1.5311   28.3815   61.7057 C   0  0  0  0  0
    2.1798   24.5459   64.7130 C   0  0  0  0  0
    3.5509   24.9548   65.0857 C   0  0  0  0  0
    4.4384   24.2006   65.8321 C   0  0  0  0  0
    6.7623   24.6009   66.5933 C   0  0  0  0  0
    7.9993   23.0264   67.8796 C   0  0  0  0  0
    9.1108   23.8769   67.9078 C   0  0  0  0  0
    9.0176   25.1237   67.2790 C   0  0  0  0  0
    7.8464   25.4872   66.6138 C   0  0  0  0  0
   10.3438   23.4930   68.6724 C   0  0  0  0  0
    1.2935   25.3966   63.9605 N   0  0  0  0  0
    5.5507   24.9546   65.9150 N   0  0  0  0  0
    5.3587   26.0896   65.2628 N   0  0  0  0  0
    4.1423   26.1170   64.7444 N   0  0  0  0  0
    6.8656   23.3993   67.2274 N   0  0  0  0  0
   -0.0872   26.6567   61.9000 O   0  0  0  0  0
    2.3730   28.6306   60.8043 O   0  0  0  0  0
    0.8445   29.4234   62.3179 O   0  0  0  0  0
    1.7794   23.4043   65.0710 O   0  0  0  0  0
   10.1849   23.8420   70.0004 F   0  0  0  0  0
   10.5559   22.1281   68.5853 F   0  0  0  0  0
   11.4535   24.1454   68.1634 F   0  0  0  0  0
  2  1  1  0  0  0
  2  3  1  0  0  0
  2 21  1  0  0  0
  3 16  1  0  0  0
  4 16  1  0  0  0
  4  5  1  0  0  0
  5 21  1  0  0  0
  5  6  1  0  0  0
  6 23  1  0  0  0
  7  8  1  0  0  0
  8 19  1  0  0  0
  9 17  1  0  0  0
 11 20  1  0  0  0
 12 13  1  0  0  0
 14 10  1  0  0  0
 15 12  1  0  0  0
 15 25  1  0  0  0
 15 26  1  0  0  0
 15 27  1  0  0  0
 16  7  1  0  0  0
 17 18  1  0  0  0
 17 10  1  0  0  0
  6 22  2  0  0  0
  7 24  2  0  0  0
  8  9  2  0  0  0
 10 20  2  0  0  0
 11 12  2  0  0  0
 13 14  2  0  0  0
 18 19  2  0  0  0
M  END
> <rmsd>
0.728905857

$$$$
PubChem-161804411 PubChem-72578017


 28 30  0  0  0  0  0  0  0  0999 V2000
    3.2841   25.0075   60.0258 C   0  0  0  0  0
    2.2779   24.1138   60.6688 C   0  0  0  0  0
    2.5363   22.7393   60.6364 C   0  0  0  0  0
    1.6533   21.8349   61.2267 C   0  0  0  0  0
    0.5012   22.2997   61.8583 C   0  0  0  0  0
    0.2331   23.6689   61.8991 C   0  0  0  0  0
    1.1056   24.5975   61.3098 C   0  0  0  0  0
    0.7478   26.0352   61.4191 C   0  0  0  0  0
    2.5104   28.8097   62.9489 C   0  0  0  0  0
    2.4468   27.6581   63.9368 C   0  0  0  0  0
    3.8388   25.9993   63.4657 C   0  0  0  0  0
    2.8199   23.8812   64.3601 C   0  0  0  0  0
    4.1908   23.3507   65.8928 C   0  0  0  0  0
    4.6179   24.4974   65.3228 C   0  0  0  0  0
    6.4719   24.5820   66.7335 C   0  0  0  0  0
    4.9186   22.7805   66.9272 C   0  0  0  0  0
    1.4420   26.9486   60.8130 N   0  0  0  0  0
    3.7671   24.8517   64.3563 N   0  0  0  0  0
    3.0531   22.9294   65.3087 N   0  0  0  0  0
    5.7475   25.1360   65.7138 N   0  0  0  0  0
    6.0580   23.4171   67.3307 N   0  0  0  0  0
    4.5007   21.5720   67.5521 N   0  0  0  0  0
    1.0921   28.6431   60.9371 S   0  0  0  0  0
    2.0609   29.4143   60.0842 O   0  0  0  0  0
   -0.3019   28.9014   60.4387 O   0  0  0  0  0
    1.2178   29.1505   62.5420 O   0  0  0  0  0
    3.7338   27.1848   64.1998 O   0  0  0  0  0
   -0.3514   26.4016   62.1936 O   0  0  0  0  0
  1  2  1  0  0  0
  3  4  1  0  0  0
  5  6  1  0  0  0
  7  8  1  0  0  0
  7  2  1  0  0  0
  8 28  1  0  0  0
  9 26  1  0  0  0
  9 10  1  0  0  0
 10 27  1  0  0  0
 11 27  1  0  0  0
 11 18  1  0  0  0
 13 19  1  0  0  0
 14 20  1  0  0  0
 14 18  1  0  0  0
 15 21  1  0  0  0
 16 22  1  0  0  0
 16 13  1  0  0  0
 18 12  1  0  0  0
 23 17  1  0  0  0
 23 26  1  0  0  0
  2  3  2  0  0  0
  4  5  2  0  0  0
  6  7  2  0  0  0
  8 17  2  0  0  0
 12 19  2  0  0  0
 13 14  2  0  0  0
 15 20  2  0  0  0
 16 21  2  0  0  0
 23 24  2  0  0  0
 23 25  2  0  0  0
M  CHG  1  28  -1
M  END
> <rmsd>
0.5736233

$$$$
PubChem-121868146 CSC057523064 MCULE-7883001231 ZINC000263451362


 20 20  0  0  0  0  0  0  0  0999 V2000
    4.5137   27.6628   63.6562 C   0  0  0  0  0
    4.5560   25.5707   64.9637 C   0  0  0  0  0
    6.4488   25.0518   66.2905 C   0  0  0  0  0
    4.6278   23.5373   66.2655 C   0  0  0  0  0
    4.7412   21.4595   67.5924 C   0  0  0  0  0
    3.9253   24.3741   65.3708 C   0  0  0  0  0
    2.5710   24.0038   64.8761 C   0  0  0  0  0
    0.7489   24.2291   63.1405 C   0  0  0  0  0
    0.4900   25.0107   61.8666 C   0  0  0  0  0
    1.0435   27.0079   61.1005 C   0  0  0  0  0
    1.5343   28.3542   61.5186 C   0  0  0  0  0
    3.9093   26.4557   64.0960 O   0  0  0  0  0
    4.0667   22.3310   66.6966 O   0  0  0  0  0
    1.8588   23.1894   65.5247 O   0  0  0  0  0
    0.3907   26.3722   62.1582 O   0  0  0  0  0
    2.1382   29.0795   60.6867 O   0  0  0  0  0
    1.3335   28.8151   62.8148 O   0  0  0  0  0
    5.7974   25.8732   65.4328 N   0  0  0  0  0
    5.8658   23.8994   66.6995 N   0  0  0  0  0
    2.0658   24.5613   63.6605 N   0  0  0  0  0
  1 12  1  0  0  0
  2 12  1  0  0  0
  3 18  1  0  0  0
  4 19  1  0  0  0
  4 13  1  0  0  0
  5 13  1  0  0  0
  6  7  1  0  0  0
  6  2  1  0  0  0
  7 20  1  0  0  0
  8 20  1  0  0  0
  8  9  1  0  0  0
  9 15  1  0  0  0
 10 15  1  0  0  0
 10 11  1  0  0  0
 11 17  1  0  0  0
  2 18  2  0  0  0
  3 19  2  0  0  0
  4  6  2  0  0  0
  7 14  2  0  0  0
 11 16  2  0  0  0
M  END
> <rmsd>
0.705181181

$$$$
PubChem-69485328


 22 24  0  0  0  0  0  0  0  0999 V2000
   -0.2595   25.7634   65.4838 C   0  0  0  0  0
    0.5985   26.8198   64.8051 C   0  0  0  0  0
    0.6342   26.6428   63.2830 C   0  0  0  0  0
    1.4272   27.7515   62.6540 C   0  0  0  0  0
    1.9840   27.1065   61.4050 C   0  0  0  0  0
    1.3735   25.3985   62.7796 C   0  0  0  0  0
    2.1257   23.5496   64.3089 C   0  0  0  0  0
    3.8985   24.3473   65.1624 C   0  0  0  0  0
    3.3858   25.2674   64.3180 C   0  0  0  0  0
    5.1295   26.7464   64.7756 C   0  0  0  0  0
    5.0718   24.6141   65.8531 C   0  0  0  0  0
    6.8144   23.9233   67.4466 C   0  0  0  0  0
    3.3408   27.6936   61.0550 C   0  0  0  0  0
    2.1077   25.7191   61.6174 O   0  0  0  0  0
    5.6155   23.6737   66.7291 O   0  0  0  0  0
    3.1926   29.0019   60.5938 O   0  0  0  0  0
    0.6254   28.8489   62.3268 O   0  0  0  0  0
   -0.6704   26.6264   62.7746 O   0  0  0  0  0
    2.2600   24.7889   63.7722 N   0  0  0  0  0
    3.1271   23.2451   65.1826 N   0  0  0  0  0
    3.9728   26.4692   64.1015 N   0  0  0  0  0
    5.6690   25.8275   65.6403 N   0  0  0  0  0
  1  2  1  0  0  0
  2  3  1  0  0  0
  3  4  1  0  0  0
  3 18  1  0  0  0
  4  5  1  0  0  0
  4 17  1  0  0  0
  5 14  1  0  0  0
  5 13  1  0  0  0
  6 14  1  0  0  0
  6 19  1  0  0  0
  6  3  1  0  0  0
  8 20  1  0  0  0
  9 21  1  0  0  0
  9 19  1  0  0  0
 10 22  1  0  0  0
 11 15  1  0  0  0
 11  8  1  0  0  0
 12 15  1  0  0  0
 13 16  1  0  0  0
 19  7  1  0  0  0
  7 20  2  0  0  0
  8  9  2  0  0  0
 10 21  2  0  0  0
 11 22  2  0  0  0
M  END
> <rmsd>
0.652115405

$$$$
