PubChem-312857


 31 33  0  0  0  0  0  0  0  0999 V2000
    5.1593   26.6093   64.8766 C   0  0  0  0  0
    5.0465   24.3671   64.9081 C   0  0  0  0  0
    3.5531   24.4065   65.2404 C   0  0  0  0  0
    3.0001   25.8024   64.8983 C   0  0  0  0  0
    2.5337   25.9747   63.4394 C   0  0  0  0  0
    1.7085   27.2408   63.2445 C   0  0  0  0  0
    3.1627   30.7936   62.1270 C   0  0  0  0  0
    2.8999   31.8740   61.2773 C   0  0  0  0  0
    3.6987   33.0202   61.3338 C   0  0  0  0  0
    4.7626   33.0873   62.2390 C   0  0  0  0  0
    5.0281   32.0079   63.0871 C   0  0  0  0  0
    4.2293   30.8619   63.0307 C   0  0  0  0  0
    5.6835   23.0710   65.3932 C   0  0  0  0  0
    5.1207   21.1689   68.8655 C   0  0  0  0  0
    4.9168   19.8960   69.4097 C   0  0  0  0  0
    4.7935   19.7372   70.7934 C   0  0  0  0  0
    4.8734   20.8510   71.6351 C   0  0  0  0  0
    5.0763   22.1238   71.0930 C   0  0  0  0  0
    5.1995   22.2826   69.7095 C   0  0  0  0  0
    5.6978   25.4670   65.4924 O   0  0  0  0  0
    3.8490   26.8462   65.3474 O   0  0  0  0  0
    2.5075   28.3807   63.3843 O   0  0  0  0  0
    0.7151   29.7587   62.0783 O   0  0  0  0  0
    2.4673   28.6150   60.7773 O   0  0  0  0  0
    3.6014   25.9382   62.5391 O   0  0  0  0  0
    2.8632   23.4062   64.5501 O   0  0  0  0  0
    5.6128   22.9808   66.7878 O   0  0  0  0  0
    6.3899   20.4921   66.6320 O   0  0  0  0  0
    3.9767   20.9637   66.4785 O   0  0  0  0  0
    2.1638   29.3553   62.0509 S   0  0  0  0  0
    5.2713   21.3648   67.1302 S   0  0  0  0  0
  1 20  1  0  0  0
  1 21  1  0  0  0
  2 20  1  0  0  0
  2  3  1  0  0  0
  2 13  1  0  0  0
  3  4  1  0  0  0
  3 26  1  0  0  0
  4 21  1  0  0  0
  4  5  1  0  0  0
  5  6  1  0  0  0
  5 25  1  0  0  0
  6 22  1  0  0  0
  8  9  1  0  0  0
 10 11  1  0  0  0
 12  7  1  0  0  0
 13 27  1  0  0  0
 15 16  1  0  0  0
 17 18  1  0  0  0
 19 14  1  0  0  0
 30 22  1  0  0  0
 30  7  1  0  0  0
 31 27  1  0  0  0
 31 14  1  0  0  0
  7  8  2  0  0  0
  9 10  2  0  0  0
 11 12  2  0  0  0
 14 15  2  0  0  0
 16 17  2  0  0  0
 18 19  2  0  0  0
 30 23  2  0  0  0
 30 24  2  0  0  0
 31 28  2  0  0  0
 31 29  2  0  0  0
M  END
> <rmsd>
0.65274775

$$$$
PubChem-70898213


 32 36  0  0  0  0  0  0  0  0999 V2000
    3.1713   23.3037   64.3883 C   0  0  0  0  0
    2.6394   22.6291   66.6959 C   0  0  0  0  0
    4.1806   21.3369   67.9722 C   0  0  0  0  0
    5.4170   20.6785   68.0939 C   0  0  0  0  0
    5.7345   20.0385   69.3003 C   0  0  0  0  0
    4.8203   20.0591   70.3565 C   0  0  0  0  0
    3.2979   21.3454   69.0719 C   0  0  0  0  0
    2.0784   22.0119   68.9627 C   0  0  0  0  0
    1.7457   22.6587   67.7705 C   0  0  0  0  0
    6.4140   20.6945   66.9732 C   0  0  0  0  0
    7.3457   21.8926   67.0929 C   0  0  0  0  0
    6.9745   24.0934   67.8308 C   0  0  0  0  0
    7.0412   25.4504   67.1558 C   0  0  0  0  0
    6.9831   25.1691   65.6681 C   0  0  0  0  0
    7.1302   23.6695   65.5696 C   0  0  0  0  0
    5.7481   26.9431   64.7545 C   0  0  0  0  0
    4.4529   27.3564   64.1478 C   0  0  0  0  0
    2.1075   27.6944   64.3635 C   0  0  0  0  0
    2.0315   28.1168   63.0359 C   0  0  0  0  0
    3.1984   28.1816   62.2671 C   0  0  0  0  0
    4.4183   27.7891   62.8185 C   0  0  0  0  0
    1.9484   29.3119   60.4799 C   0  0  0  0  0
    0.6913   28.6423   61.0430 C   0  0  0  0  0
    2.3008   23.2798   65.5091 O   0  0  0  0  0
    3.1193   28.6401   60.9498 O   0  0  0  0  0
    0.8104   28.4715   62.4575 O   0  0  0  0  0
    3.8269   21.9710   66.8192 N   0  0  0  0  0
    3.6322   20.7084   70.2238 N   0  0  0  0  0
    6.6161   23.1181   66.8123 N   0  0  0  0  0
    5.6776   25.5462   65.1522 N   0  0  0  0  0
    3.3086   27.3258   64.8884 N   0  0  0  0  0
    6.9208   19.4005   69.4557 F   0  0  0  0  0
  1 24  1  0  0  0
  2 24  1  0  0  0
  3 27  1  0  0  0
  4  5  1  0  0  0
  5 32  1  0  0  0
  6 28  1  0  0  0
  7  8  1  0  0  0
  7  3  1  0  0  0
  9  2  1  0  0  0
 10  4  1  0  0  0
 10 11  1  0  0  0
 11 29  1  0  0  0
 12 29  1  0  0  0
 12 13  1  0  0  0
 13 14  1  0  0  0
 14 15  1  0  0  0
 14 30  1  0  0  0
 15 29  1  0  0  0
 16 30  1  0  0  0
 16 17  1  0  0  0
 18 31  1  0  0  0
 19 20  1  0  0  0
 19 26  1  0  0  0
 20 25  1  0  0  0
 21 17  1  0  0  0
 22 25  1  0  0  0
 22 23  1  0  0  0
 23 26  1  0  0  0
  2 27  2  0  0  0
  3  4  2  0  0  0
  5  6  2  0  0  0
  7 28  2  0  0  0
  8  9  2  0  0  0
 17 31  2  0  0  0
 18 19  2  0  0  0
 20 21  2  0  0  0
M  END
> <rmsd>
0.655918837

$$$$
PubChem-641608


 27 29  0  0  0  0  0  0  0  0999 V2000
    3.9717   18.9213   70.0585 C   0  0  0  0  0
    3.9007   19.4065   71.3830 C   0  0  0  0  0
    3.7822   20.7860   71.6346 C   0  0  0  0  0
    3.7384   21.6426   70.5362 C   0  0  0  0  0
    3.8075   21.1668   69.2554 C   0  0  0  0  0
    3.9252   19.8091   68.9685 C   0  0  0  0  0
    3.7384   22.2608   68.4372 C   0  0  0  0  0
    3.6273   23.3752   69.2646 C   0  0  0  0  0
    3.7276   23.4328   66.2639 C   0  0  0  0  0
    5.0715   24.1725   66.3012 C   0  0  0  0  0
    5.1184   25.2354   65.2343 C   0  0  0  0  0
    4.0676   25.3163   64.1512 C   0  0  0  0  0
    2.9132   24.3277   64.3938 C   0  0  0  0  0
    2.1813   24.0301   63.0953 C   0  0  0  0  0
    1.6280   25.7946   61.4715 C   0  0  0  0  0
    0.8256   26.9991   61.1228 C   0  0  0  0  0
    1.4041   28.2061   61.7755 C   0  0  0  0  0
    3.6282   22.9845   70.5651 N   0  0  0  0  0
    3.7717   22.2415   67.0412 O   0  0  0  0  0
    6.0526   26.0214   65.2205 O   0  0  0  0  0
    3.3897   23.1254   64.9391 O   0  0  0  0  0
    1.4150   25.1572   62.6942 O   0  0  0  0  0
    2.5131   25.3838   60.6734 O   0  0  0  0  0
    0.9674   28.5883   62.8919 O   0  0  0  0  0
    2.4509   28.8889   61.1706 O   0  0  0  0  0
    3.5610   26.6157   64.0870 O   0  0  0  0  0
    6.1249   23.2757   66.1065 O   0  0  0  0  0
  2  3  1  0  0  0
  4  5  1  0  0  0
  5  7  1  0  0  0
  6  1  1  0  0  0
  7 19  1  0  0  0
  8 18  1  0  0  0
  9 19  1  0  0  0
  9 10  1  0  0  0
  9 21  1  0  0  0
 10 11  1  0  0  0
 10 27  1  0  0  0
 12 11  1  0  0  0
 12 13  1  0  0  0
 12 26  1  0  0  0
 13 21  1  0  0  0
 13 14  1  0  0  0
 14 22  1  0  0  0
 15 22  1  0  0  0
 16 15  1  0  0  0
 16 17  1  0  0  0
 17 25  1  0  0  0
 18  4  1  0  0  0
  1  2  2  0  0  0
  3  4  2  0  0  0
  5  6  2  0  0  0
  7  8  2  0  0  0
 11 20  2  0  0  0
 15 23  2  0  0  0
 17 24  2  0  0  0
M  END
> <rmsd>
0.812063456

$$$$
PubChem-88960235


 31 34  0  0  0  0  0  0  0  0999 V2000
    6.9696   18.8063   71.8192 C   0  0  0  0  0
    6.2633   19.6209   70.7968 C   0  0  0  0  0
    6.7224   20.9055   70.4881 C   0  0  0  0  0
    6.0569   21.6733   69.5275 C   0  0  0  0  0
    4.9324   21.1568   68.8727 C   0  0  0  0  0
    4.4728   19.8714   69.1845 C   0  0  0  0  0
    5.1383   19.1039   70.1453 C   0  0  0  0  0
    4.8071   24.3636   66.1990 C   0  0  0  0  0
    5.5163   26.3063   64.9887 C   0  0  0  0  0
    3.3778   25.4538   64.6328 C   0  0  0  0  0
    3.5807   24.4586   65.5280 C   0  0  0  0  0
    1.6070   24.2755   64.7412 C   0  0  0  0  0
    1.4840   26.2181   63.1527 C   0  0  0  0  0
    1.1942   27.5715   63.7630 C   0  0  0  0  0
    1.5190   28.5401   62.6649 C   0  0  0  0  0
    1.9763   27.6601   61.5184 C   0  0  0  0  0
    3.1956   28.2641   60.8432 C   0  0  0  0  0
    4.0359   30.0228   59.8117 C   0  0  0  0  0
    0.6838   30.5814   62.4922 C   0  0  0  0  0
    4.0910   22.1229   67.6769 S   0  0  0  0  0
    3.7185   21.2509   66.5098 O   0  0  0  0  0
    2.8536   22.7066   68.2992 O   0  0  0  0  0
    5.1261   23.3782   67.1452 O   0  0  0  0  0
    2.3014   26.3930   62.0247 O   0  0  0  0  0
    2.8279   29.3990   60.1202 O   0  0  0  0  0
    0.3673   29.2367   62.2933 O   0  0  0  0  0
    5.7494   25.3074   65.8984 N   0  0  0  0  0
    4.3156   26.3874   64.3445 N   0  0  0  0  0
    2.4742   23.6957   65.6170 N   0  0  0  0  0
    2.1442   25.3545   64.1233 N   0  0  0  0  0
    6.5322   27.2625   64.7127 N   0  0  0  0  0
  1  2  1  0  0  0
  3  4  1  0  0  0
  5  6  1  0  0  0
  7  2  1  0  0  0
  8 23  1  0  0  0
  9 27  1  0  0  0
  9 31  1  0  0  0
 10 28  1  0  0  0
 11 29  1  0  0  0
 11  8  1  0  0  0
 12 30  1  0  0  0
 13 30  1  0  0  0
 13 14  1  0  0  0
 13 24  1  0  0  0
 14 15  1  0  0  0
 15 16  1  0  0  0
 15 26  1  0  0  0
 16 24  1  0  0  0
 16 17  1  0  0  0
 17 25  1  0  0  0
 18 25  1  0  0  0
 19 26  1  0  0  0
 20  5  1  0  0  0
 20 23  1  0  0  0
 30 10  1  0  0  0
  2  3  2  0  0  0
  4  5  2  0  0  0
  6  7  2  0  0  0
  8 27  2  0  0  0
  9 28  2  0  0  0
 10 11  2  0  0  0
 12 29  2  0  0  0
 20 21  2  0  0  0
 20 22  2  0  0  0
M  END
> <rmsd>
0.723956168

$$$$
