OEBLXSAAAPWUJK-UHFFFAOYSA-N


 33 36  0  0  0  0  0  0  0  0999 V2000
    3.9818   23.6516   65.9872 C   0  0  0  0  0
    5.1599   25.5825   64.9306 C   0  0  0  0  0
    3.9231   26.1035   64.2740 C   0  0  0  0  0
    3.3294   28.3198   64.7989 C   0  0  0  0  0
    1.8952   28.4281   64.3321 C   0  0  0  0  0
    1.8244   28.5629   62.8434 C   0  0  0  0  0
    1.3221   29.1973   60.9263 C   0  0  0  0  0
    0.7108   29.9299   59.7861 C   0  0  0  0  0
    1.7961   26.9780   64.7496 C   0  0  0  0  0
    6.1245   24.4738   66.9546 C   0  0  0  0  0
    7.8818   24.7231   68.5672 C   0  0  0  0  0
    8.9700   25.1363   69.4911 C   0  0  0  0  0
    3.4213   23.1705   67.2897 C   0  0  0  0  0
    3.7936   20.9165   68.2432 C   0  0  0  0  0
    4.4845   21.4265   69.3540 C   0  0  0  0  0
    5.0043   20.5609   70.3198 C   0  0  0  0  0
    4.8398   19.1784   70.1901 C   0  0  0  0  0
    5.2441   16.9239   71.1243 C   0  0  0  0  0
    4.1468   18.6681   69.0803 C   0  0  0  0  0
    3.6277   19.5343   68.1138 C   0  0  0  0  0
    2.0806   23.8312   67.5470 C   0  0  0  0  0
    5.0870   24.5753   65.9606 N   0  0  0  0  0
    3.1775   26.9291   65.2133 N   0  0  0  0  0
    2.2089   28.1959   60.7769 N   0  0  0  0  0
    1.0472   29.4673   62.2184 N   0  0  0  0  0
    7.4171   23.4586   68.4794 N   0  0  0  0  0
    6.4397   23.3198   67.5853 N   0  0  0  0  0
    2.4962   27.8287   61.9879 O   0  0  0  0  0
    6.2725   26.0599   64.5823 O   0  0  0  0  0
    3.4479   23.2728   64.9086 O   0  0  0  0  0
    3.2622   21.7571   67.2609 O   0  0  0  0  0
    5.3702   18.3385   71.1732 O   0  0  0  0  0
    7.0767   25.7544   67.5089 S   0  0  0  0  0
  1 22  1  0  0  0
  3  2  1  0  0  0
  3 23  1  0  0  0
  4 23  1  0  0  0
  4  5  1  0  0  0
  5  6  1  0  0  0
  5  9  1  0  0  0
  6 28  1  0  0  0
  7 25  1  0  0  0
  8  7  1  0  0  0
  9 23  1  0  0  0
 10 33  1  0  0  0
 11 33  1  0  0  0
 12 11  1  0  0  0
 13  1  1  0  0  0
 13 31  1  0  0  0
 13 21  1  0  0  0
 14 31  1  0  0  0
 15 16  1  0  0  0
 17 32  1  0  0  0
 17 19  1  0  0  0
 18 32  1  0  0  0
 20 14  1  0  0  0
 22  2  1  0  0  0
 22 10  1  0  0  0
 26 27  1  0  0  0
 28 24  1  0  0  0
  1 30  2  0  0  0
  2 29  2  0  0  0
  6 25  2  0  0  0
  7 24  2  0  0  0
 10 27  2  0  0  0
 11 26  2  0  0  0
 14 15  2  0  0  0
 16 17  2  0  0  0
 19 20  2  0  0  0
M  END
> <rmsd>
0.796809554

$$$$
JOEVEZIDQPAZSP-UHFFFAOYSA-N


 33 36  0  0  0  0  0  0  0  0999 V2000
    3.5564   23.2293   65.5018 C   0  0  0  0  0
    4.7308   25.4311   65.7480 C   0  0  0  0  0
    3.4694   26.2352   65.6839 C   0  0  0  0  0
    1.8373   26.6562   64.0628 C   0  0  0  0  0
    1.5692   26.8718   62.5782 C   0  0  0  0  0
    3.7521   28.6982   62.9359 C   0  0  0  0  0
    3.6384   28.1593   64.3572 C   0  0  0  0  0
    6.7339   23.8671   67.1753 C   0  0  0  0  0
    7.8333   23.0746   67.7259 C   0  0  0  0  0
    9.8886   22.2308   68.8953 C   0  0  0  0  0
    9.1532   21.2399   68.2483 C   0  0  0  0  0
    8.0040   21.7055   67.5933 C   0  0  0  0  0
    3.1723   21.9709   66.1794 C   0  0  0  0  0
    3.4912   20.4341   67.9821 C   0  0  0  0  0
    4.2358   20.0627   69.2044 C   0  0  0  0  0
    3.9382   18.8825   69.9019 C   0  0  0  0  0
    4.6640   18.5566   71.0500 C   0  0  0  0  0
    5.9645   20.5308   70.8323 C   0  0  0  0  0
    5.2614   20.8916   69.6812 C   0  0  0  0  0
    2.4658   19.6183   67.4831 C   0  0  0  0  0
    1.7906   19.9949   66.3215 C   0  0  0  0  0
    2.1417   21.1744   65.6644 C   0  0  0  0  0
    4.6939   23.9984   65.9430 N   0  0  0  0  0
    3.2701   26.7446   64.3369 N   0  0  0  0  0
    5.7912   23.3011   66.4900 N   0  0  0  0  0
    3.8072   21.5819   67.3200 N   0  0  0  0  0
    5.6540   19.3801   71.4881 N   0  0  0  0  0
    5.8342   26.0296   65.6331 O   0  0  0  0  0
    2.4085   28.5084   60.6082 O   0  0  0  0  0
    1.2323   29.5423   62.5020 O   0  0  0  0  0
    2.8806   23.6237   64.5121 O   0  0  0  0  0
    2.1991   28.4659   62.0953 S   0  0  0  0  0
    9.0918   23.6911   68.6405 S   0  0  0  0  0
  1 23  1  0  0  0
  1 13  1  0  0  0
  3  2  1  0  0  0
  3 24  1  0  0  0
  4 24  1  0  0  0
  4  5  1  0  0  0
  5 32  1  0  0  0
  6  7  1  0  0  0
  7 24  1  0  0  0
  8  9  1  0  0  0
  9 33  1  0  0  0
 10 33  1  0  0  0
 11 12  1  0  0  0
 14 26  1  0  0  0
 14 15  1  0  0  0
 16 17  1  0  0  0
 18 27  1  0  0  0
 19 15  1  0  0  0
 20 21  1  0  0  0
 22 13  1  0  0  0
 23  2  1  0  0  0
 23 25  1  0  0  0
 32  6  1  0  0  0
  1 31  2  0  0  0
  2 28  2  0  0  0
  8 25  2  0  0  0
 10 11  2  0  0  0
 12  9  2  0  0  0
 13 26  2  0  0  0
 14 20  2  0  0  0
 15 16  2  0  0  0
 17 27  2  0  0  0
 18 19  2  0  0  0
 21 22  2  0  0  0
 32 29  2  0  0  0
 32 30  2  0  0  0
M  END
> <rmsd>
0.717198908

$$$$
CMJULZZQYXJIPW-UHFFFAOYSA-N


 36 40  0  0  0  0  0  0  0  0999 V2000
    5.0811   23.0931   67.3947 C   0  0  0  0  0
    4.8061   25.1208   65.9465 C   0  0  0  0  0
    4.0880   26.4152   65.7293 C   0  0  0  0  0
    4.3358   27.4501   63.6421 C   0  0  0  0  0
    3.8034   27.5779   62.2166 C   0  0  0  0  0
    1.8443   29.0221   61.5576 C   0  0  0  0  0
    2.1811   30.8964   60.1495 C   0  0  0  0  0
    0.8167   31.1808   60.1796 C   0  0  0  0  0
   -0.0155   30.3468   60.9234 C   0  0  0  0  0
    1.5265   27.0801   63.1293 C   0  0  0  0  0
    2.1738   26.9690   64.5084 C   0  0  0  0  0
    2.8421   24.1485   67.1206 C   0  0  0  0  0
    1.8498   23.9118   66.1509 C   0  0  0  0  0
    1.2868   23.3258   63.8106 C   0  0  0  0  0
    0.4955   23.9737   66.5219 C   0  0  0  0  0
    0.1345   24.2601   67.8416 C   0  0  0  0  0
    1.1218   24.4833   68.8028 C   0  0  0  0  0
    2.4702   24.4254   68.4443 C   0  0  0  0  0
    4.5303   21.7818   67.8254 C   0  0  0  0  0
    5.0461   21.0598   68.9270 C   0  0  0  0  0
    4.4576   19.8214   69.2706 C   0  0  0  0  0
    5.9568   19.5652   71.0953 C   0  0  0  0  0
    6.5653   20.7857   70.7994 C   0  0  0  0  0
    6.1055   21.5333   69.7142 C   0  0  0  0  0
    3.3886   19.3271   68.5254 C   0  0  0  0  0
    2.9111   20.0673   67.4466 C   0  0  0  0  0
    4.2357   24.0863   66.7734 N   0  0  0  0  0
    3.5425   26.4667   64.3831 N   0  0  0  0  0
    2.3791   27.8988   62.2726 N   0  0  0  0  0
    2.6682   29.8286   60.8334 N   0  0  0  0  0
    0.5086   29.2896   61.5963 N   0  0  0  0  0
    4.9245   19.1133   70.3344 N   0  0  0  0  0
    3.4834   21.2569   67.1264 N   0  0  0  0  0
    5.9253   24.9488   65.3924 O   0  0  0  0  0
    2.2281   23.6025   64.8385 O   0  0  0  0  0
    6.3067   23.3380   67.5656 O   0  0  0  0  0
  1 27  1  0  0  0
  1 19  1  0  0  0
  3  2  1  0  0  0
  3 28  1  0  0  0
  4 28  1  0  0  0
  4  5  1  0  0  0
  5 29  1  0  0  0
  6 31  1  0  0  0
  7 30  1  0  0  0
  8  9  1  0  0  0
 10 29  1  0  0  0
 10 11  1  0  0  0
 11 28  1  0  0  0
 13 35  1  0  0  0
 13 15  1  0  0  0
 14 35  1  0  0  0
 16 17  1  0  0  0
 18 12  1  0  0  0
 19 20  1  0  0  0
 20 21  1  0  0  0
 21 25  1  0  0  0
 22 32  1  0  0  0
 23 24  1  0  0  0
 26 33  1  0  0  0
 27  2  1  0  0  0
 27 12  1  0  0  0
 29  6  1  0  0  0
  1 36  2  0  0  0
  2 34  2  0  0  0
  6 30  2  0  0  0
  7  8  2  0  0  0
  9 31  2  0  0  0
 12 13  2  0  0  0
 15 16  2  0  0  0
 17 18  2  0  0  0
 19 33  2  0  0  0
 21 32  2  0  0  0
 22 23  2  0  0  0
 24 20  2  0  0  0
 25 26  2  0  0  0
M  END
> <rmsd>
0.762351871

$$$$
MXKXZQYWFHBTTR-UHFFFAOYSA-N


 34 38  0  0  0  0  0  0  0  0999 V2000
    3.2638   23.0699   65.4053 C   0  0  0  0  0
    4.8489   24.9826   65.0389 C   0  0  0  0  0
    3.7589   26.0056   65.1596 C   0  0  0  0  0
    2.8135   26.2866   63.0271 C   0  0  0  0  0
    2.7364   27.1618   61.7763 C   0  0  0  0  0
    2.2700   28.5792   62.1298 C   0  0  0  0  0
    1.1483   29.6639   60.5396 C   0  0  0  0  0
    0.2367   29.3984   61.6884 C   0  0  0  0  0
    3.1317   29.1362   63.2679 C   0  0  0  0  0
    3.1834   28.1537   64.4383 C   0  0  0  0  0
    5.7231   22.7020   65.5356 C   0  0  0  0  0
    6.6996   22.9474   66.5222 C   0  0  0  0  0
    7.5286   24.3813   68.3625 C   0  0  0  0  0
    7.7647   22.0448   66.6766 C   0  0  0  0  0
    7.8543   20.9080   65.8712 C   0  0  0  0  0
    6.8791   20.6594   64.9048 C   0  0  0  0  0
    5.8175   21.5508   64.7397 C   0  0  0  0  0
    2.8763   22.0443   66.3940 C   0  0  0  0  0
    3.1557   20.7169   68.1805 C   0  0  0  0  0
    3.3275   19.1743   70.1019 C   0  0  0  0  0
    4.2737   18.8514   71.0553 C   0  0  0  0  0
    5.3822   19.6419   70.8017 C   0  0  0  0  0
    5.0715   20.4190   69.7031 C   0  0  0  0  0
    1.6231   21.4251   66.3818 C   0  0  0  0  0
    4.6072   23.5962   65.3598 N   0  0  0  0  0
    3.7388   26.8770   63.9942 N   0  0  0  0  0
    3.7171   21.6529   67.3910 N   0  0  0  0  0
    3.8300   20.1188   69.2913 N   0  0  0  0  0
    2.4340   29.4042   61.0011 O   0  0  0  0  0
    0.9218   28.5397   62.5429 O   0  0  0  0  0
    6.0046   25.3626   64.7050 O   0  0  0  0  0
    6.5868   24.0738   67.3443 O   0  0  0  0  0
    2.3975   23.4934   64.5907 O   0  0  0  0  0
    1.5990   20.3458   67.6760 S   0  0  0  0  0
  1 25  1  0  0  0
  1 18  1  0  0  0
  3  2  1  0  0  0
  3 26  1  0  0  0
  4 26  1  0  0  0
  4  5  1  0  0  0
  5  6  1  0  0  0
  6 29  1  0  0  0
  6  9  1  0  0  0
  6 30  1  0  0  0
  7 29  1  0  0  0
  7  8  1  0  0  0
  8 30  1  0  0  0
  9 10  1  0  0  0
 10 26  1  0  0  0
 12 32  1  0  0  0
 12 14  1  0  0  0
 13 32  1  0  0  0
 15 16  1  0  0  0
 17 11  1  0  0  0
 18 27  1  0  0  0
 19 28  1  0  0  0
 19 34  1  0  0  0
 21 22  1  0  0  0
 23 28  1  0  0  0
 24 34  1  0  0  0
 25  2  1  0  0  0
 25 11  1  0  0  0
 28 20  1  0  0  0
  1 33  2  0  0  0
  2 31  2  0  0  0
 11 12  2  0  0  0
 14 15  2  0  0  0
 16 17  2  0  0  0
 19 27  2  0  0  0
 20 21  2  0  0  0
 22 23  2  0  0  0
 24 18  2  0  0  0
M  END
> <rmsd>
0.8127774

$$$$
SYKDSMIXZOCLKM-UHFFFAOYSA-N


 36 40  0  0  0  0  0  0  0  0999 V2000
    4.9209   24.6479   64.8653 C   0  0  0  0  0
    4.0533   26.2141   63.1372 C   0  0  0  0  0
    3.9451   26.5437   61.6736 C   0  0  0  0  0
    2.7126   27.3827   61.3985 C   0  0  0  0  0
    2.4818   29.6753   62.0335 C   0  0  0  0  0
    2.9071   31.1023   61.7744 C   0  0  0  0  0
    2.3113   31.8581   60.6216 C   0  0  0  0  0
    0.7850   31.7774   60.6886 C   0  0  0  0  0
    0.3188   30.3218   60.7416 C   0  0  0  0  0
    0.9780   29.6322   61.9008 C   0  0  0  0  0
    4.5706   28.8035   61.2747 C   0  0  0  0  0
    5.1031   27.3927   61.2319 C   0  0  0  0  0
    4.0481   23.7369   62.7152 C   0  0  0  0  0
    4.6787   21.5787   61.9292 C   0  0  0  0  0
    3.5464   21.5163   61.1157 C   0  0  0  0  0
    2.6514   22.5862   61.1117 C   0  0  0  0  0
    2.8962   23.7002   61.9152 C   0  0  0  0  0
    4.5109   23.5300   65.7320 C   0  0  0  0  0
    4.6888   21.5033   68.5763 C   0  0  0  0  0
    5.7343   21.9288   69.4095 C   0  0  0  0  0
    5.9978   21.2605   70.6091 C   0  0  0  0  0
    5.2186   20.1620   70.9829 C   0  0  0  0  0
    5.5001   19.4511   72.2575 C   0  0  0  0  0
    4.1754   19.7317   70.1578 C   0  0  0  0  0
    3.9112   20.4001   68.9585 C   0  0  0  0  0
    4.3120   24.8632   63.5758 N   0  0  0  0  0
    3.1211   28.7546   61.0778 N   0  0  0  0  0
    4.9025   22.6740   62.7040 N   0  0  0  0  0
    3.4767   22.7010   65.4796 N   0  0  0  0  0
    3.4467   21.8695   66.5082 N   0  0  0  0  0
    4.4195   22.1879   67.3461 N   0  0  0  0  0
    5.1085   23.2254   66.8998 N   0  0  0  0  0
    3.7241   31.6408   62.5034 O   0  0  0  0  0
    0.3015   29.0809   62.7534 O   0  0  0  0  0
    3.9548   27.1418   63.9881 O   0  0  0  0  0
    5.8105   25.4415   65.2765 O   0  0  0  0  0
  1 26  1  0  0  0
  1 18  1  0  0  0
  3  2  1  0  0  0
  3  4  1  0  0  0
  4 27  1  0  0  0
  5 27  1  0  0  0
  5  6  1  0  0  0
  5 10  1  0  0  0
  7  6  1  0  0  0
  7  8  1  0  0  0
  8  9  1  0  0  0
  9 10  1  0  0  0
 11 27  1  0  0  0
 11 12  1  0  0  0
 12  3  1  0  0  0
 14 28  1  0  0  0
 15 16  1  0  0  0
 17 13  1  0  0  0
 18 29  1  0  0  0
 20 21  1  0  0  0
 22 24  1  0  0  0
 23 22  1  0  0  0
 25 19  1  0  0  0
 26  2  1  0  0  0
 26 13  1  0  0  0
 31 30  1  0  0  0
 31 19  1  0  0  0
 31 32  1  0  0  0
  1 36  2  0  0  0
  2 35  2  0  0  0
  6 33  2  0  0  0
 10 34  2  0  0  0
 13 28  2  0  0  0
 14 15  2  0  0  0
 16 17  2  0  0  0
 18 32  2  0  0  0
 19 20  2  0  0  0
 21 22  2  0  0  0
 24 25  2  0  0  0
 29 30  2  0  0  0
M  END
> <rmsd>
0.760604382

$$$$
YHTFRJRMNOQFPD-UHFFFAOYSA-N


 30 32  0  0  0  0  0  0  0  0999 V2000
    3.2179   26.2310   64.4349 C   0  0  0  0  0
    3.1893   23.9884   65.7220 C   0  0  0  0  0
    3.4525   21.9146   68.1616 C   0  0  0  0  0
    3.9830   20.7313   68.9017 C   0  0  0  0  0
    4.9010   20.8866   69.9567 C   0  0  0  0  0
    5.3783   19.7592   70.6337 C   0  0  0  0  0
    4.9428   18.4818   70.2703 C   0  0  0  0  0
    4.0288   18.3259   69.2250 C   0  0  0  0  0
    3.5503   19.4483   68.5429 C   0  0  0  0  0
    5.3130   23.9026   66.4927 C   0  0  0  0  0
    5.1378   25.1331   65.7398 C   0  0  0  0  0
    1.8609   26.0646   63.8304 C   0  0  0  0  0
    1.9710   25.5845   62.4175 C   0  0  0  0  0
    2.0268   26.4705   61.3113 C   0  0  0  0  0
    2.2061   25.9334   60.0254 C   0  0  0  0  0
    2.3213   24.5551   59.8311 C   0  0  0  0  0
    2.2589   23.6901   60.9226 C   0  0  0  0  0
    2.0872   24.2044   62.2081 C   0  0  0  0  0
    3.7987   25.1960   65.2437 N   0  0  0  0  0
    4.0790   23.1976   66.5090 N   0  0  0  0  0
    1.9000   27.8991   61.4579 N   0  0  0  0  0
    2.0017   23.6500   65.4729 O   0  0  0  0  0
    3.9083   21.8943   66.8401 O   0  0  0  0  0
    6.3795   23.4935   67.0236 O   0  0  0  0  0
    6.0207   26.0083   65.5383 O   0  0  0  0  0
    3.8630   27.2878   64.2033 O   0  0  0  0  0
    1.3352   28.4557   62.5821 O   0  0  0  0  0
    2.2052   28.6526   60.5099 O   0  0  0  0  0
    5.4869   22.4720   70.4410 Cl  0  0  0  0  0
    5.4096   17.3942   70.9291 F   0  0  0  0  0
  1 19  1  0  0  0
  2 20  1  0  0  0
  3 23  1  0  0  0
  3  4  1  0  0  0
  5 29  1  0  0  0
  5  6  1  0  0  0
  7 30  1  0  0  0
  7  8  1  0  0  0
  9  4  1  0  0  0
 10 11  1  0  0  0
 11 19  1  0  0  0
 12  1  1  0  0  0
 12 13  1  0  0  0
 14 21  1  0  0  0
 14 15  1  0  0  0
 16 17  1  0  0  0
 18 13  1  0  0  0
 19  2  1  0  0  0
 20 23  1  0  0  0
 20 10  1  0  0  0
 21 27  1  0  0  0
  1 26  2  0  0  0
  2 22  2  0  0  0
  4  5  2  0  0  0
  6  7  2  0  0  0
  8  9  2  0  0  0
 10 24  2  0  0  0
 11 25  2  0  0  0
 13 14  2  0  0  0
 15 16  2  0  0  0
 17 18  2  0  0  0
 21 28  2  0  0  0
M  CHG  2  21   1  27  -1
M  END
> <rmsd>
0.714749694

$$$$
SASCHLGEAOTFGR-UHFFFAOYSA-N


 35 39  0  0  0  0  0  0  0  0999 V2000
    4.8192   23.5066   66.6537 C   0  0  0  0  0
    4.6796   25.9702   66.1358 C   0  0  0  0  0
    3.8493   27.1674   65.7979 C   0  0  0  0  0
    3.9401   28.5623   63.9248 C   0  0  0  0  0
    3.7174   28.6856   62.4173 C   0  0  0  0  0
    2.2591   28.3721   62.0553 C   0  0  0  0  0
    0.9617   30.0809   61.4397 C   0  0  0  0  0
    1.1677   29.1715   60.2760 C   0  0  0  0  0
    1.8482   27.0310   62.6758 C   0  0  0  0  0
    2.1753   27.0050   64.1688 C   0  0  0  0  0
    2.6760   24.7303   66.9269 C   0  0  0  0  0
    1.7091   24.1748   66.0699 C   0  0  0  0  0
    1.1881   23.0896   63.9062 C   0  0  0  0  0
    0.3603   24.1753   66.4612 C   0  0  0  0  0
   -0.0207   24.7255   67.6876 C   0  0  0  0  0
    0.9417   25.2816   68.5326 C   0  0  0  0  0
    2.2858   25.2850   68.1533 C   0  0  0  0  0
    4.2994   22.3545   67.4772 C   0  0  0  0  0
    3.8373   21.0538   65.5271 C   0  0  0  0  0
    3.8301   20.0024   67.5885 C   0  0  0  0  0
    4.2058   20.0101   69.0413 C   0  0  0  0  0
    4.7293   21.1683   69.6416 C   0  0  0  0  0
    5.0413   21.1651   71.0055 C   0  0  0  0  0
    4.8074   20.0228   71.7765 C   0  0  0  0  0
    4.2661   18.8782   71.1838 C   0  0  0  0  0
    3.9622   18.8736   69.8187 C   0  0  0  0  0
    5.0216   22.3866   68.8258 C   0  0  0  0  0
    4.0638   24.7332   66.5555 N   0  0  0  0  0
    3.6086   27.2100   64.3662 N   0  0  0  0  0
    4.5094   21.0508   66.8199 N   0  0  0  0  0
    1.4214   29.3911   62.5561 O   0  0  0  0  0
    2.1571   28.2691   60.6541 O   0  0  0  0  0
    5.9320   26.0601   66.0254 O   0  0  0  0  0
    2.1065   23.6448   64.8372 O   0  0  0  0  0
    5.9433   23.4005   66.0891 O   0  0  0  0  0
  1 28  1  0  0  0
  3  2  1  0  0  0
  3 29  1  0  0  0
  4 29  1  0  0  0
  4  5  1  0  0  0
  5  6  1  0  0  0
  6 31  1  0  0  0
  6  9  1  0  0  0
  6 32  1  0  0  0
  7 31  1  0  0  0
  7  8  1  0  0  0
  8 32  1  0  0  0
  9 10  1  0  0  0
 10 29  1  0  0  0
 12 34  1  0  0  0
 12 14  1  0  0  0
 13 34  1  0  0  0
 15 16  1  0  0  0
 17 11  1  0  0  0
 18  1  1  0  0  0
 18 30  1  0  0  0
 19 30  1  0  0  0
 20 30  1  0  0  0
 20 21  1  0  0  0
 22 23  1  0  0  0
 24 25  1  0  0  0
 26 21  1  0  0  0
 27 22  1  0  0  0
 27 18  1  0  0  0
 28  2  1  0  0  0
 28 11  1  0  0  0
  1 35  2  0  0  0
  2 33  2  0  0  0
 11 12  2  0  0  0
 14 15  2  0  0  0
 16 17  2  0  0  0
 21 22  2  0  0  0
 23 24  2  0  0  0
 25 26  2  0  0  0
M  END
> <rmsd>
0.824557364

$$$$
LXOGMBNQGIOFJJ-UHFFFAOYSA-N


 35 38  0  0  0  0  0  0  0  0999 V2000
    4.6964   24.7337   65.2849 C   0  0  0  0  0
    3.7508   26.5210   63.8004 C   0  0  0  0  0
    3.3426   26.9383   62.4123 C   0  0  0  0  0
    2.3535   28.9362   61.3387 C   0  0  0  0  0
    1.5064   30.1564   61.4526 C   0  0  0  0  0
   -0.9538   29.8864   61.4334 C   0  0  0  0  0
   -2.1143   29.5555   62.1397 C   0  0  0  0  0
   -3.3609   29.5945   61.5083 C   0  0  0  0  0
   -3.4611   29.9650   60.1634 C   0  0  0  0  0
   -4.9156   30.3588   58.2019 C   0  0  0  0  0
   -2.2971   30.2976   59.4520 C   0  0  0  0  0
   -1.0510   30.2585   60.0830 C   0  0  0  0  0
    2.2322   31.2258   62.2444 C   0  0  0  0  0
    2.5454   25.8412   61.7100 C   0  0  0  0  0
    3.2712   24.5126   61.8236 C   0  0  0  0  0
    3.3081   24.0976   63.2875 C   0  0  0  0  0
    4.4078   23.4902   66.0248 C   0  0  0  0  0
    4.9868   21.0758   68.4892 C   0  0  0  0  0
    4.2526   19.9309   68.8326 C   0  0  0  0  0
    4.6846   19.1002   69.8708 C   0  0  0  0  0
    5.8532   19.4085   70.5725 C   0  0  0  0  0
    6.3121   18.5254   71.6760 C   0  0  0  0  0
    6.5903   20.5473   70.2363 C   0  0  0  0  0
    6.1588   21.3782   69.1982 C   0  0  0  0  0
    3.9404   25.1252   64.1205 N   0  0  0  0  0
    3.3387   22.6946   65.8142 N   0  0  0  0  0
    3.4538   21.7228   66.7046 N   0  0  0  0  0
    4.5442   21.9278   67.4249 N   0  0  0  0  0
    5.1694   23.0264   67.0350 N   0  0  0  0  0
    3.9961   27.4100   64.6611 O   0  0  0  0  0
    2.5755   28.1367   62.4638 O   0  0  0  0  0
    2.8770   28.6482   60.2289 O   0  0  0  0  0
    0.2775   29.8359   62.0928 O   0  0  0  0  0
   -4.7221   29.9943   59.5618 O   0  0  0  0  0
    5.6381   25.4671   65.6912 O   0  0  0  0  0
  1 25  1  0  0  0
  1 17  1  0  0  0
  3  2  1  0  0  0
  3 31  1  0  0  0
  3 14  1  0  0  0
  4 31  1  0  0  0
  5  4  1  0  0  0
  5 33  1  0  0  0
  5 13  1  0  0  0
  6 33  1  0  0  0
  7  8  1  0  0  0
  9 34  1  0  0  0
  9 11  1  0  0  0
 10 34  1  0  0  0
 12  6  1  0  0  0
 14 15  1  0  0  0
 15 16  1  0  0  0
 16 25  1  0  0  0
 17 26  1  0  0  0
 19 20  1  0  0  0
 21 23  1  0  0  0
 22 21  1  0  0  0
 24 18  1  0  0  0
 25  2  1  0  0  0
 28 27  1  0  0  0
 28 18  1  0  0  0
 28 29  1  0  0  0
  1 35  2  0  0  0
  2 30  2  0  0  0
  4 32  2  0  0  0
  6  7  2  0  0  0
  8  9  2  0  0  0
 11 12  2  0  0  0
 17 29  2  0  0  0
 18 19  2  0  0  0
 20 21  2  0  0  0
 23 24  2  0  0  0
 26 27  2  0  0  0
M  END
> <rmsd>
0.77599293

$$$$
BLROBMDDBMNUNT-UHFFFAOYSA-N


 34 38  0  0  0  0  0  0  0  0999 V2000
    4.7244   24.7220   65.2893 C   0  0  0  0  0
    3.7729   26.5241   63.8278 C   0  0  0  0  0
    3.3440   26.9541   62.4498 C   0  0  0  0  0
    2.3556   28.9744   61.4194 C   0  0  0  0  0
    1.5208   30.2052   61.5670 C   0  0  0  0  0
    2.1332   31.1928   62.5444 C   0  0  0  0  0
    1.2750   31.9971   63.3197 C   0  0  0  0  0
    1.8080   32.9517   64.1907 C   0  0  0  0  0
    3.1914   33.1346   64.2686 C   0  0  0  0  0
    4.0457   32.3662   63.4728 C   0  0  0  0  0
    3.5192   31.4045   62.6063 C   0  0  0  0  0
   -0.2110   31.8119   63.2374 C   0  0  0  0  0
   -0.5654   30.9987   61.9922 C   0  0  0  0  0
    2.5386   25.8635   61.7471 C   0  0  0  0  0
    3.2639   24.5331   61.8412 C   0  0  0  0  0
    3.3162   24.1059   63.3011 C   0  0  0  0  0
    4.4222   23.4850   66.0340 C   0  0  0  0  0
    4.9874   21.0590   68.4903 C   0  0  0  0  0
    4.2337   19.9303   68.8452 C   0  0  0  0  0
    4.6636   19.0895   69.8762 C   0  0  0  0  0
    5.8496   19.3716   70.5593 C   0  0  0  0  0
    6.3073   18.4773   71.6540 C   0  0  0  0  0
    6.6063   20.4941   70.2117 C   0  0  0  0  0
    6.1769   21.3353   69.1808 C   0  0  0  0  0
    3.9600   25.1251   64.1349 N   0  0  0  0  0
    3.3318   22.7144   65.8426 N   0  0  0  0  0
    3.4399   21.7407   66.7317 N   0  0  0  0  0
    4.5466   21.9211   67.4332 N   0  0  0  0  0
    5.1900   23.0048   67.0318 N   0  0  0  0  0
    4.0368   27.4054   64.6913 O   0  0  0  0  0
    2.5743   28.1491   62.5261 O   0  0  0  0  0
    2.8596   28.6983   60.2977 O   0  0  0  0  0
    0.2169   29.8307   61.9590 O   0  0  0  0  0
    5.6841   25.4394   65.6822 O   0  0  0  0  0
  1 25  1  0  0  0
  1 17  1  0  0  0
  3  2  1  0  0  0
  3 31  1  0  0  0
  3 14  1  0  0  0
  4 31  1  0  0  0
  5  4  1  0  0  0
  5  6  1  0  0  0
  5 33  1  0  0  0
  6  7  1  0  0  0
  8  9  1  0  0  0
 10 11  1  0  0  0
 12  7  1  0  0  0
 12 13  1  0  0  0
 13 33  1  0  0  0
 14 15  1  0  0  0
 15 16  1  0  0  0
 16 25  1  0  0  0
 17 26  1  0  0  0
 19 20  1  0  0  0
 21 23  1  0  0  0
 22 21  1  0  0  0
 24 18  1  0  0  0
 25  2  1  0  0  0
 28 27  1  0  0  0
 28 18  1  0  0  0
 28 29  1  0  0  0
  1 34  2  0  0  0
  2 30  2  0  0  0
  4 32  2  0  0  0
  7  8  2  0  0  0
  9 10  2  0  0  0
 11  6  2  0  0  0
 17 29  2  0  0  0
 18 19  2  0  0  0
 20 21  2  0  0  0
 23 24  2  0  0  0
 26 27  2  0  0  0
M  END
> <rmsd>
0.784338772

$$$$
DINRZTJRDDVMAE-UHFFFAOYSA-N


 32 35  0  0  0  0  0  0  0  0999 V2000
    3.5680   26.0368   64.5241 C   0  0  0  0  0
    3.3536   23.6423   65.4766 C   0  0  0  0  0
    3.1212   21.2704   67.6168 C   0  0  0  0  0
    3.9764   20.7975   68.7475 C   0  0  0  0  0
    4.1866   21.6011   69.8830 C   0  0  0  0  0
    4.9924   21.1326   70.9257 C   0  0  0  0  0
    5.5854   19.8700   70.8451 C   0  0  0  0  0
    5.3746   19.0696   69.7199 C   0  0  0  0  0
    4.5717   19.5322   68.6741 C   0  0  0  0  0
    5.2586   23.4814   66.6817 C   0  0  0  0  0
    5.2044   24.7958   66.0658 C   0  0  0  0  0
    2.2584   25.9884   63.7858 C   0  0  0  0  0
    2.3751   26.5926   62.4290 C   0  0  0  0  0
    1.1286   28.9683   62.0465 C   0  0  0  0  0
    1.4894   29.2134   60.6427 C   0  0  0  0  0
    1.7028   30.0594   58.6827 C   0  0  0  0  0
    1.6284   30.9322   57.4819 C   0  0  0  0  0
    1.1129   30.3229   59.9027 C   0  0  0  0  0
    1.4427   27.2041   64.0614 C   0  0  0  0  0
    4.0013   24.9105   65.3028 N   0  0  0  0  0
    4.0787   22.7672   66.3394 N   0  0  0  0  0
    1.5739   27.7914   62.7200 N   0  0  0  0  0
    2.2397   28.3763   59.9005 N   0  0  0  0  0
    2.2757   23.3171   64.9120 O   0  0  0  0  0
    3.8931   21.4292   66.4606 O   0  0  0  0  0
    6.1993   23.0189   67.3790 O   0  0  0  0  0
    6.0794   25.6959   66.1688 O   0  0  0  0  0
    4.2889   27.0721   64.4710 O   0  0  0  0  0
    2.3464   28.9194   58.7264 O   0  0  0  0  0
    0.4189   29.8045   62.6663 O   0  0  0  0  0
    3.4674   23.1979   70.0262 Cl  0  0  0  0  0
    6.3643   19.4217   71.8584 F   0  0  0  0  0
  1 20  1  0  0  0
  2 21  1  0  0  0
  3 25  1  0  0  0
  3  4  1  0  0  0
  5 31  1  0  0  0
  5  6  1  0  0  0
  7 32  1  0  0  0
  7  8  1  0  0  0
  9  4  1  0  0  0
 10 11  1  0  0  0
 11 20  1  0  0  0
 12  1  1  0  0  0
 12 13  1  0  0  0
 13 22  1  0  0  0
 14 15  1  0  0  0
 16 29  1  0  0  0
 17 16  1  0  0  0
 18 15  1  0  0  0
 19 22  1  0  0  0
 19 12  1  0  0  0
 20  2  1  0  0  0
 21 25  1  0  0  0
 21 10  1  0  0  0
 22 14  1  0  0  0
 23 29  1  0  0  0
  1 28  2  0  0  0
  2 24  2  0  0  0
  4  5  2  0  0  0
  6  7  2  0  0  0
  8  9  2  0  0  0
 10 26  2  0  0  0
 11 27  2  0  0  0
 14 30  2  0  0  0
 15 23  2  0  0  0
 16 18  2  0  0  0
M  END
> <rmsd>
0.681949496

$$$$
AEUXARZOZIVYCX-UHFFFAOYSA-N


 35 39  0  0  0  0  0  0  0  0999 V2000
    3.7829   23.5480   66.0389 C   0  0  0  0  0
    4.8826   25.5014   64.9307 C   0  0  0  0  0
    3.6354   25.9751   64.2583 C   0  0  0  0  0
    1.5493   27.0030   64.5880 C   0  0  0  0  0
    1.7997   28.4570   64.2557 C   0  0  0  0  0
    1.8787   28.6634   62.7760 C   0  0  0  0  0
    1.6166   29.4288   60.8589 C   0  0  0  0  0
    1.1831   30.2670   59.7101 C   0  0  0  0  0
    3.1712   28.2104   64.8421 C   0  0  0  0  0
    5.8496   24.5331   67.0149 C   0  0  0  0  0
    6.4427   25.6313   67.5989 C   0  0  0  0  0
    7.3074   25.0952   68.5019 C   0  0  0  0  0
    7.9921   27.2206   69.2056 C   0  0  0  0  0
    7.0944   27.8161   68.2873 C   0  0  0  0  0
    6.2919   27.0068   67.4616 C   0  0  0  0  0
    3.2964   23.0050   67.3472 C   0  0  0  0  0
    1.8753   23.4675   67.6049 C   0  0  0  0  0
    4.0184   20.8439   68.3110 C   0  0  0  0  0
    4.0766   19.4516   68.1886 C   0  0  0  0  0
    4.7478   18.6862   69.1475 C   0  0  0  0  0
    5.3642   19.3113   70.2354 C   0  0  0  0  0
    5.3071   20.7013   70.3661 C   0  0  0  0  0
    4.6349   21.4656   69.4091 C   0  0  0  0  0
    4.8298   24.5369   65.9999 N   0  0  0  0  0
    2.8739   26.8197   65.1685 N   0  0  0  0  0
    2.4216   28.3573   60.7352 N   0  0  0  0  0
    1.2462   29.6634   62.1338 N   0  0  0  0  0
    8.0874   25.8592   69.3052 N   0  0  0  0  0
    6.3640   23.4098   67.5746 N   0  0  0  0  0
    2.5607   27.9101   61.9456 O   0  0  0  0  0
    5.9867   25.9888   64.5692 O   0  0  0  0  0
    7.2438   23.7876   68.4664 O   0  0  0  0  0
    3.2454   23.1514   64.9683 O   0  0  0  0  0
    3.3445   21.5832   67.3347 O   0  0  0  0  0
    6.0800   21.4876   71.7248 Cl  0  0  0  0  0
  1 24  1  0  0  0
  3  2  1  0  0  0
  3 25  1  0  0  0
  4 25  1  0  0  0
  4  5  1  0  0  0
  5  6  1  0  0  0
  5  9  1  0  0  0
  6 30  1  0  0  0
  7 27  1  0  0  0
  8  7  1  0  0  0
  9 25  1  0  0  0
 10 11  1  0  0  0
 11 12  1  0  0  0
 12 32  1  0  0  0
 13 28  1  0  0  0
 14 15  1  0  0  0
 16  1  1  0  0  0
 16 17  1  0  0  0
 16 34  1  0  0  0
 18 34  1  0  0  0
 19 20  1  0  0  0
 21 22  1  0  0  0
 22 35  1  0  0  0
 23 18  1  0  0  0
 24  2  1  0  0  0
 24 10  1  0  0  0
 30 26  1  0  0  0
 32 29  1  0  0  0
  1 33  2  0  0  0
  2 31  2  0  0  0
  6 27  2  0  0  0
  7 26  2  0  0  0
 10 29  2  0  0  0
 12 28  2  0  0  0
 13 14  2  0  0  0
 15 11  2  0  0  0
 18 19  2  0  0  0
 20 21  2  0  0  0
 22 23  2  0  0  0
M  END
> <rmsd>
0.756781399

$$$$
USIHUNXRVJFQOA-UHFFFAOYSA-N


 35 39  0  0  0  0  0  0  0  0999 V2000
    4.6959   24.7277   65.2923 C   0  0  0  0  0
    3.7540   26.5159   63.8062 C   0  0  0  0  0
    3.3483   26.9310   62.4169 C   0  0  0  0  0
    2.3776   28.9348   61.3378 C   0  0  0  0  0
    1.5334   30.1689   61.4474 C   0  0  0  0  0
   -0.4779   28.8943   61.2507 C   0  0  0  0  0
   -0.6165   31.0821   61.9954 C   0  0  0  0  0
    0.0521   32.2836   62.5951 C   0  0  0  0  0
    1.4529   32.3504   62.6891 C   0  0  0  0  0
    2.0602   33.4945   63.2163 C   0  0  0  0  0
    1.2788   34.5793   63.6247 C   0  0  0  0  0
   -0.1132   34.5207   63.5113 C   0  0  0  0  0
   -0.7253   33.3755   62.9937 C   0  0  0  0  0
    2.3039   31.1838   62.2965 C   0  0  0  0  0
    2.5433   25.8372   61.7187 C   0  0  0  0  0
    3.2603   24.5041   61.8360 C   0  0  0  0  0
    3.2971   24.0938   63.3013 C   0  0  0  0  0
    4.4084   23.4845   66.0329 C   0  0  0  0  0
    4.9962   21.0658   68.4910 C   0  0  0  0  0
    4.2619   19.9217   68.8367 C   0  0  0  0  0
    4.6983   19.0884   69.8708 C   0  0  0  0  0
    5.8717   19.3933   70.5662 C   0  0  0  0  0
    6.3352   18.5074   71.6656 C   0  0  0  0  0
    6.6087   20.5314   70.2280 C   0  0  0  0  0
    6.1727   21.3650   69.1939 C   0  0  0  0  0
    3.9375   25.1199   64.1296 N   0  0  0  0  0
    0.2232   29.8826   62.0607 N   0  0  0  0  0
    3.3364   22.6914   65.8274 N   0  0  0  0  0
    3.4544   21.7185   66.7161 N   0  0  0  0  0
    4.5491   21.9202   67.4306 N   0  0  0  0  0
    5.1745   23.0179   67.0384 N   0  0  0  0  0
    4.0027   27.4058   64.6648 O   0  0  0  0  0
    2.5893   28.1345   62.4645 O   0  0  0  0  0
    2.9042   28.6424   60.2305 O   0  0  0  0  0
    5.6397   25.4601   65.6961 O   0  0  0  0  0
  1 26  1  0  0  0
  1 18  1  0  0  0
  3  2  1  0  0  0
  3 33  1  0  0  0
  3 15  1  0  0  0
  4 33  1  0  0  0
  5  4  1  0  0  0
  5 27  1  0  0  0
  6 27  1  0  0  0
  7 27  1  0  0  0
  7  8  1  0  0  0
  9 10  1  0  0  0
 11 12  1  0  0  0
 13  8  1  0  0  0
 14  9  1  0  0  0
 14  5  1  0  0  0
 15 16  1  0  0  0
 16 17  1  0  0  0
 17 26  1  0  0  0
 18 28  1  0  0  0
 20 21  1  0  0  0
 22 24  1  0  0  0
 23 22  1  0  0  0
 25 19  1  0  0  0
 26  2  1  0  0  0
 30 29  1  0  0  0
 30 19  1  0  0  0
 30 31  1  0  0  0
  1 35  2  0  0  0
  2 32  2  0  0  0
  4 34  2  0  0  0
  8  9  2  0  0  0
 10 11  2  0  0  0
 12 13  2  0  0  0
 18 31  2  0  0  0
 19 20  2  0  0  0
 21 22  2  0  0  0
 24 25  2  0  0  0
 28 29  2  0  0  0
M  END
> <rmsd>
0.792155266

$$$$
WCUVRKJSQMKRNI-UHFFFAOYSA-N


 34 37  0  0  0  0  0  0  0  0999 V2000
    3.3162   25.8390   64.4003 C   0  0  0  0  0
    4.8995   24.6070   66.0114 C   0  0  0  0  0
    5.9070   23.0949   68.6569 C   0  0  0  0  0
    5.7190   21.8124   69.3912 C   0  0  0  0  0
    4.4961   21.5434   70.0142 C   0  0  0  0  0
    4.3129   20.3441   70.7089 C   0  0  0  0  0
    5.3538   19.4137   70.7837 C   0  0  0  0  0
    6.5786   19.6832   70.1656 C   0  0  0  0  0
    6.7617   20.8820   69.4698 C   0  0  0  0  0
    3.8526   22.6187   66.2512 C   0  0  0  0  0
    3.0711   23.4535   65.3545 C   0  0  0  0  0
    2.0107   25.8017   63.6544 C   0  0  0  0  0
    2.1558   26.3462   62.2747 C   0  0  0  0  0
    0.9934   28.7328   61.7740 C   0  0  0  0  0
    1.3813   28.8797   60.3452 C   0  0  0  0  0
    3.4545   29.1635   59.0231 C   0  0  0  0  0
    4.8519   29.2787   59.0102 C   0  0  0  0  0
    5.5355   29.4091   57.7974 C   0  0  0  0  0
    4.8290   29.4243   56.5918 C   0  0  0  0  0
    3.4369   29.3081   56.5965 C   0  0  0  0  0
    2.7509   29.1781   57.8071 C   0  0  0  0  0
    1.2310   27.0525   63.8740 C   0  0  0  0  0
    3.7244   24.7167   65.1980 N   0  0  0  0  0
    4.9844   23.3559   66.6918 N   0  0  0  0  0
    1.3897   27.5787   62.5106 N   0  0  0  0  0
    5.7785   25.5048   66.1016 O   0  0  0  0  0
    6.0871   22.8443   67.2926 O   0  0  0  0  0
    3.6059   21.4260   66.5701 O   0  0  0  0  0
    1.9974   23.1204   64.7868 O   0  0  0  0  0
    4.0550   26.8612   64.3367 O   0  0  0  0  0
    2.7909   29.0359   60.2472 O   0  0  0  0  0
    0.3226   29.6376   62.3350 O   0  0  0  0  0
    5.1237   17.9111   71.6512 Cl  0  0  0  0  0
    5.5492   29.2641   60.1728 F   0  0  0  0  0
  1 23  1  0  0  0
  2 24  1  0  0  0
  3 27  1  0  0  0
  3  4  1  0  0  0
  5  6  1  0  0  0
  7 33  1  0  0  0
  7  8  1  0  0  0
  9  4  1  0  0  0
 10 11  1  0  0  0
 11 23  1  0  0  0
 12  1  1  0  0  0
 12 13  1  0  0  0
 13 25  1  0  0  0
 15 14  1  0  0  0
 15 31  1  0  0  0
 16 31  1  0  0  0
 17 34  1  0  0  0
 17 18  1  0  0  0
 19 20  1  0  0  0
 21 16  1  0  0  0
 22 25  1  0  0  0
 22 12  1  0  0  0
 23  2  1  0  0  0
 24 27  1  0  0  0
 24 10  1  0  0  0
 25 14  1  0  0  0
  1 30  2  0  0  0
  2 26  2  0  0  0
  4  5  2  0  0  0
  6  7  2  0  0  0
  8  9  2  0  0  0
 10 28  2  0  0  0
 11 29  2  0  0  0
 14 32  2  0  0  0
 16 17  2  0  0  0
 18 19  2  0  0  0
 20 21  2  0  0  0
M  END
> <rmsd>
0.701870441

$$$$
