HJBOTMOZKOGESO-UHFFFAOYSA-N


 36 40  0  0  0  0  0  0  0  0999 V2000
    2.2930   29.1664   60.5797 C   0  0  0  0  0
    1.7390   28.6413   62.9877 C   0  0  0  0  0
    1.8608   27.6159   64.0769 C   0  0  0  0  0
    3.5567   26.5870   62.9854 C   0  0  0  0  0
    4.8252   25.7775   63.1603 C   0  0  0  0  0
    5.2090   24.4630   65.2063 C   0  0  0  0  0
    4.8873   23.2879   66.0192 C   0  0  0  0  0
    4.8191   21.8712   67.5468 C   0  0  0  0  0
    5.0577   21.1398   68.7983 C   0  0  0  0  0
    4.6090   19.2733   70.1916 C   0  0  0  0  0
    5.5020   19.7671   71.1435 C   0  0  0  0  0
    5.9533   21.6315   69.7541 C   0  0  0  0  0
    3.7777   27.6738   61.9327 C   0  0  0  0  0
    0.8745   29.5031   60.2094 C   0  0  0  0  0
    0.8029   30.7788   59.3887 C   0  0  0  0  0
    0.2403   28.3500   59.4402 C   0  0  0  0  0
    0.7376   26.0931   60.4196 C   0  0  0  0  0
    0.2395   25.3408   61.4397 C   0  0  0  0  0
    0.8104   24.1241   61.8051 C   0  0  0  0  0
    1.9331   23.6911   61.0744 C   0  0  0  0  0
    2.4507   24.4759   60.0181 C   0  0  0  0  0
    1.8515   25.7028   59.6778 C   0  0  0  0  0
   -0.9210   27.1178   61.3025 C   0  0  0  0  0
    2.5860   28.5188   61.8300 N   0  0  0  0  0
    3.9641   21.4543   66.5918 N   0  0  0  0  0
    4.4065   19.9693   69.0417 N   0  0  0  0  0
    6.1547   20.9353   70.9040 N   0  0  0  0  0
    5.4291   23.0326   67.2260 N   0  0  0  0  0
    0.0153   27.2161   60.3275 N   0  0  0  0  0
   -0.8094   25.9615   62.0108 N   0  0  0  0  0
    0.8823   29.5601   63.0804 O   0  0  0  0  0
    3.1967   27.1882   64.2061 O   0  0  0  0  0
    4.5619   24.6502   63.9839 O   0  0  0  0  0
    6.0628   25.2954   65.6161 O   0  0  0  0  0
    4.0346   22.3593   65.6639 O   0  0  0  0  0
    3.2154   29.3444   59.7361 O   0  0  0  0  0
  1 24  1  0  0  0
  3  2  1  0  0  0
  3 32  1  0  0  0
  4 32  1  0  0  0
  4  5  1  0  0  0
  4 13  1  0  0  0
  5 33  1  0  0  0
  6 33  1  0  0  0
  6  7  1  0  0  0
  7 35  1  0  0  0
  8  9  1  0  0  0
  8 28  1  0  0  0
 10 26  1  0  0  0
 11 27  1  0  0  0
 12  9  1  0  0  0
 13 24  1  0  0  0
 14  1  1  0  0  0
 14 15  1  0  0  0
 14 16  1  0  0  0
 16 29  1  0  0  0
 17 18  1  0  0  0
 18 30  1  0  0  0
 19 20  1  0  0  0
 21 22  1  0  0  0
 23 29  1  0  0  0
 24  2  1  0  0  0
 29 17  1  0  0  0
 35 25  1  0  0  0
  1 36  2  0  0  0
  2 31  2  0  0  0
  6 34  2  0  0  0
  7 28  2  0  0  0
  8 25  2  0  0  0
  9 26  2  0  0  0
 10 11  2  0  0  0
 12 27  2  0  0  0
 18 19  2  0  0  0
 20 21  2  0  0  0
 22 17  2  0  0  0
 23 30  2  0  0  0
M  END
> <rmsd>
0.7070539

$$$$
AHIGSMZRDQDHRZ-UHFFFAOYSA-N


 34 38  0  0  0  0  0  0  0  0999 V2000
    1.3093   29.2585   62.4596 C   0  0  0  0  0
    2.5065   28.1934   64.3776 C   0  0  0  0  0
    4.3551   28.6715   65.9530 C   0  0  0  0  0
    4.1000   27.3252   65.6921 C   0  0  0  0  0
    4.9198   26.2326   66.2859 C   0  0  0  0  0
    6.9483   25.0632   66.1813 C   0  0  0  0  0
    6.6254   23.8576   65.3220 C   0  0  0  0  0
    5.8113   22.8675   66.0965 C   0  0  0  0  0
    5.1132   21.5750   67.5791 C   0  0  0  0  0
    4.9688   20.8195   68.8333 C   0  0  0  0  0
    3.8924   19.9385   69.0092 C   0  0  0  0  0
    3.7545   19.2227   70.2022 C   0  0  0  0  0
    4.6912   19.3845   71.2266 C   0  0  0  0  0
    5.7668   20.2609   71.0582 C   0  0  0  0  0
    5.9053   20.9763   69.8650 C   0  0  0  0  0
    5.7182   24.8182   64.5816 C   0  0  0  0  0
    0.4179   27.1597   63.4771 C   0  0  0  0  0
    0.2017   26.3331   64.7007 C   0  0  0  0  0
    2.5314   29.9265   61.9141 C   0  0  0  0  0
    4.3097   28.2398   61.4070 C   0  0  0  0  0
    1.4067   28.2108   63.4468 N   0  0  0  0  0
    6.0669   25.9491   65.4333 N   0  0  0  0  0
    4.2536   21.4811   66.5445 N   0  0  0  0  0
    6.1203   22.4414   67.3371 N   0  0  0  0  0
    3.0883   27.0608   64.8220 N   0  0  0  0  0
    3.2638   29.0066   61.0605 N   0  0  0  0  0
    2.9694   28.7391   59.8031 N   0  0  0  0  0
    3.8229   27.8282   59.3659 N   0  0  0  0  0
    4.6651   27.4999   60.3369 N   0  0  0  0  0
    3.2360   29.5499   65.0504 S   0  0  0  0  0
    4.7219   22.2935   65.6470 O   0  0  0  0  0
   -0.2945   26.9260   62.4642 O   0  0  0  0  0
    0.1848   29.6001   62.0049 O   0  0  0  0  0
    4.5178   18.4888   72.7203 Cl  0  0  0  0  0
  1 21  1  0  0  0
  2 30  1  0  0  0
  3 30  1  0  0  0
  4 25  1  0  0  0
  5  4  1  0  0  0
  5 22  1  0  0  0
  6 22  1  0  0  0
  6  7  1  0  0  0
  7  8  1  0  0  0
  7 16  1  0  0  0
  8 31  1  0  0  0
  9 10  1  0  0  0
  9 24  1  0  0  0
 11 12  1  0  0  0
 13 34  1  0  0  0
 13 14  1  0  0  0
 15 10  1  0  0  0
 16 22  1  0  0  0
 18 17  1  0  0  0
 19  1  1  0  0  0
 19 26  1  0  0  0
 20 26  1  0  0  0
 21  2  1  0  0  0
 21 17  1  0  0  0
 26 27  1  0  0  0
 28 29  1  0  0  0
 31 23  1  0  0  0
  1 33  2  0  0  0
  2 25  2  0  0  0
  3  4  2  0  0  0
  8 24  2  0  0  0
  9 23  2  0  0  0
 10 11  2  0  0  0
 12 13  2  0  0  0
 14 15  2  0  0  0
 17 32  2  0  0  0
 20 29  2  0  0  0
 27 28  2  0  0  0
M  END
> <rmsd>
0.637151897

$$$$
LJUVEDORJDPYJT-UHFFFAOYSA-N


 34 38  0  0  0  0  0  0  0  0999 V2000
    1.2958   29.2773   62.4769 C   0  0  0  0  0
    2.5036   28.1706   64.3646 C   0  0  0  0  0
    4.3445   28.6246   65.9561 C   0  0  0  0  0
    4.0940   27.2828   65.6696 C   0  0  0  0  0
    4.9111   26.1818   66.2511 C   0  0  0  0  0
    6.9428   25.0198   66.1316 C   0  0  0  0  0
    6.6123   23.8010   65.2934 C   0  0  0  0  0
    5.8113   22.8172   66.0898 C   0  0  0  0  0
    5.1236   21.5547   67.6029 C   0  0  0  0  0
    4.9795   20.8353   68.8779 C   0  0  0  0  0
    3.9368   19.9157   69.0580 C   0  0  0  0  0
    3.7994   19.2330   70.2704 C   0  0  0  0  0
    4.7036   19.4663   71.3099 C   0  0  0  0  0
    5.7452   20.3819   71.1374 C   0  0  0  0  0
    5.8828   21.0645   69.9251 C   0  0  0  0  0
    5.6901   24.7481   64.5540 C   0  0  0  0  0
    0.4283   27.1398   63.4297 C   0  0  0  0  0
    0.2112   26.2825   64.6319 C   0  0  0  0  0
    2.5100   29.9731   61.9489 C   0  0  0  0  0
    4.3156   28.3269   61.4083 C   0  0  0  0  0
    1.4054   28.2021   63.4324 N   0  0  0  0  0
    6.0467   25.8918   65.3850 N   0  0  0  0  0
    4.2867   21.4010   66.5571 N   0  0  0  0  0
    6.1093   22.4423   67.3495 N   0  0  0  0  0
    3.0864   27.0316   64.7911 N   0  0  0  0  0
    3.2566   29.0820   61.0769 N   0  0  0  0  0
    2.9615   28.8280   59.8167 N   0  0  0  0  0
    3.8282   27.9382   59.3629 N   0  0  0  0  0
    4.6790   27.6087   60.3263 N   0  0  0  0  0
    3.2268   29.5163   65.0652 S   0  0  0  0  0
    4.7470   22.1971   65.6414 O   0  0  0  0  0
   -0.2740   26.9233   62.4061 O   0  0  0  0  0
    0.1669   29.6219   62.0358 O   0  0  0  0  0
    6.8776   20.6747   72.4389 Cl  0  0  0  0  0
  1 21  1  0  0  0
  2 30  1  0  0  0
  3 30  1  0  0  0
  4 25  1  0  0  0
  5  4  1  0  0  0
  5 22  1  0  0  0
  6 22  1  0  0  0
  6  7  1  0  0  0
  7  8  1  0  0  0
  7 16  1  0  0  0
  8 31  1  0  0  0
  9 10  1  0  0  0
  9 24  1  0  0  0
 11 12  1  0  0  0
 13 14  1  0  0  0
 14 34  1  0  0  0
 15 10  1  0  0  0
 16 22  1  0  0  0
 18 17  1  0  0  0
 19  1  1  0  0  0
 19 26  1  0  0  0
 20 26  1  0  0  0
 21  2  1  0  0  0
 21 17  1  0  0  0
 26 27  1  0  0  0
 28 29  1  0  0  0
 31 23  1  0  0  0
  1 33  2  0  0  0
  2 25  2  0  0  0
  3  4  2  0  0  0
  8 24  2  0  0  0
  9 23  2  0  0  0
 10 11  2  0  0  0
 12 13  2  0  0  0
 14 15  2  0  0  0
 17 32  2  0  0  0
 20 29  2  0  0  0
 27 28  2  0  0  0
M  END
> <rmsd>
0.624734581

$$$$
LIURVJICWIXHLG-UHFFFAOYSA-N


 34 37  0  0  0  0  0  0  0  0999 V2000
    4.3669   23.7646   66.5239 C   0  0  0  0  0
    2.9283   25.3893   65.2672 C   0  0  0  0  0
    2.8013   26.8997   65.0778 C   0  0  0  0  0
    3.7085   28.8039   64.0664 C   0  0  0  0  0
    3.7044   29.0674   62.5710 C   0  0  0  0  0
    2.3948   28.4140   60.5880 C   0  0  0  0  0
    1.3261   27.5896   59.9819 C   0  0  0  0  0
    0.2238   27.0876   60.7221 C   0  0  0  0  0
   -0.6807   26.2131   60.0981 C   0  0  0  0  0
   -0.5236   25.8569   58.7579 C   0  0  0  0  0
    0.5397   26.3764   58.0213 C   0  0  0  0  0
    1.4597   27.2303   58.6316 C   0  0  0  0  0
    5.1256   27.3121   65.1829 C   0  0  0  0  0
    5.3604   25.8940   65.6019 C   0  0  0  0  0
    3.1960   22.8246   66.6235 C   0  0  0  0  0
    3.4648   21.4877   65.9261 C   0  0  0  0  0
    4.3276   20.6557   68.0938 C   0  0  0  0  0
    3.5781   21.6131   68.8032 C   0  0  0  0  0
    3.5796   21.6019   70.2013 C   0  0  0  0  0
    4.3374   20.6525   70.8931 C   0  0  0  0  0
    5.0921   19.7091   70.1885 C   0  0  0  0  0
    5.0878   19.7112   68.7903 C   0  0  0  0  0
    2.7373   22.6183   68.0720 C   0  0  0  0  0
    4.2295   25.0298   65.8452 N   0  0  0  0  0
    3.9487   27.3936   64.3211 N   0  0  0  0  0
   -0.0330   27.4945   62.0742 N   0  0  0  0  0
    2.6455   28.3449   61.9595 O   0  0  0  0  0
    3.1136   29.1449   59.8514 O   0  0  0  0  0
    0.0225   28.8273   62.4119 O   0  0  0  0  0
   -0.5433   26.6896   62.8804 O   0  0  0  0  0
    6.5420   25.4786   65.7328 O   0  0  0  0  0
    5.4648   23.4424   67.0571 O   0  0  0  0  0
    4.3385   20.6587   66.6954 O   0  0  0  0  0
    0.7351   25.9387   56.3378 Cl  0  0  0  0  0
  1 24  1  0  0  0
  2 24  1  0  0  0
  2  3  1  0  0  0
  3 25  1  0  0  0
  4 25  1  0  0  0
  4  5  1  0  0  0
  5 27  1  0  0  0
  6 27  1  0  0  0
  6  7  1  0  0  0
  8 26  1  0  0  0
  8  9  1  0  0  0
 10 11  1  0  0  0
 11 34  1  0  0  0
 12  7  1  0  0  0
 13 25  1  0  0  0
 13 14  1  0  0  0
 14 24  1  0  0  0
 15  1  1  0  0  0
 15 16  1  0  0  0
 16 33  1  0  0  0
 17 33  1  0  0  0
 18 19  1  0  0  0
 20 21  1  0  0  0
 22 17  1  0  0  0
 23 18  1  0  0  0
 23 15  1  0  0  0
 26 29  1  0  0  0
  1 32  2  0  0  0
  6 28  2  0  0  0
  7  8  2  0  0  0
  9 10  2  0  0  0
 11 12  2  0  0  0
 14 31  2  0  0  0
 17 18  2  0  0  0
 19 20  2  0  0  0
 21 22  2  0  0  0
 26 30  2  0  0  0
M  CHG  2  26   1  29  -1
M  END
> <rmsd>
0.789110124

$$$$
