PubChem-149142401


 27 30  0  0  0  0  0  0  0  0999 V2000
    7.6792   22.4722   67.7007 B   0  0  0  0  0
    8.7918   23.6066   67.7285 C   0  0  0  0  0
    8.1344   24.9279   68.1234 C   0  0  0  0  0
    6.9139   25.2361   67.2981 C   0  0  0  0  0
    6.0179   24.2079   66.9212 C   0  0  0  0  0
    4.8247   24.5303   66.2304 C   0  0  0  0  0
    4.5653   25.8833   65.8996 C   0  0  0  0  0
    5.4827   26.8791   66.2669 C   0  0  0  0  0
    6.6426   26.5595   66.9647 C   0  0  0  0  0
    3.0765   27.5594   64.8229 C   0  0  0  0  0
    1.7876   27.5598   64.0816 C   0  0  0  0  0
    3.6459   27.8276   63.4733 C   0  0  0  0  0
    1.9188   27.9651   61.4061 C   0  0  0  0  0
    0.4620   27.8902   61.0568 C   0  0  0  0  0
   -0.3097   29.1742   61.3051 C   0  0  0  0  0
   -1.7213   28.6845   61.4792 C   0  0  0  0  0
   -1.5956   27.2420   61.9385 C   0  0  0  0  0
    3.8670   23.4585   65.8449 C   0  0  0  0  0
    6.3344   22.8672   67.1975 O   0  0  0  0  0
    3.3891   26.2289   65.2198 O   0  0  0  0  0
    2.7569   28.1965   60.4960 O   0  0  0  0  0
    0.1007   29.7933   62.4893 O   0  0  0  0  0
    3.0295   23.6442   64.9227 O   0  0  0  0  0
    3.8755   22.2309   66.4968 O   0  0  0  0  0
    8.0562   21.0637   67.7608 O   0  0  0  0  0
    2.3659   27.8090   62.7532 N   0  0  0  0  0
   -0.2117   26.8109   61.7645 N   0  0  0  0  0
  1 25  1  0  0  0
  1 19  1  0  0  0
  2  1  1  0  0  0
  2  3  1  0  0  0
  3  4  1  0  0  0
  5 19  1  0  0  0
  5  6  1  0  0  0
  6 18  1  0  0  0
  7  8  1  0  0  0
  7 20  1  0  0  0
  9  4  1  0  0  0
 10 20  1  0  0  0
 10 11  1  0  0  0
 11 26  1  0  0  0
 12 26  1  0  0  0
 12 10  1  0  0  0
 14 13  1  0  0  0
 14 15  1  0  0  0
 14 27  1  0  0  0
 15 16  1  0  0  0
 15 22  1  0  0  0
 16 17  1  0  0  0
 17 27  1  0  0  0
 18 24  1  0  0  0
 26 13  1  0  0  0
  4  5  2  0  0  0
  6  7  2  0  0  0
  8  9  2  0  0  0
 13 21  2  0  0  0
 18 23  2  0  0  0
M  END
> <rmsd>
0.716532171

$$$$
PubChem-88929907


 28 31  0  0  0  0  0  0  0  0999 V2000
    7.4151   21.9429   64.4015 C   0  0  0  0  0
    6.5735   21.9681   65.6594 C   0  0  0  0  0
    6.0934   23.4056   65.8985 C   0  0  0  0  0
    5.3522   21.0630   65.4502 C   0  0  0  0  0
    2.7253   24.4266   65.8559 C   0  0  0  0  0
    1.2360   24.6536   65.7785 C   0  0  0  0  0
    2.0630   25.5566   63.8682 C   0  0  0  0  0
    3.2613   25.2682   64.7382 C   0  0  0  0  0
    2.8793   27.4962   64.9333 C   0  0  0  0  0
    2.0025   27.0518   63.7891 C   0  0  0  0  0
    0.6809   28.6042   59.3674 C   0  0  0  0  0
    0.0933   27.1953   59.2019 C   0  0  0  0  0
    0.1956   26.4063   60.5146 C   0  0  0  0  0
   -1.3609   27.3119   58.7934 C   0  0  0  0  0
    0.8509   26.4536   58.1196 C   0  0  0  0  0
    7.4205   21.4781   66.8226 C   0  0  0  0  0
    5.3361   23.5428   67.0767 O   0  0  0  0  0
    3.1588   22.5575   68.1703 O   0  0  0  0  0
    4.5306   20.9803   66.5893 O   0  0  0  0  0
    3.0024   23.0819   65.5951 O   0  0  0  0  0
    0.8941   25.0545   64.4744 O   0  0  0  0  0
    3.7901   26.4714   65.2465 O   0  0  0  0  0
    2.5672   27.4741   62.5826 O   0  0  0  0  0
    0.9315   29.5292   62.4390 O   0  0  0  0  0
    1.8418   28.5969   60.1582 O   0  0  0  0  0
   -0.0433   27.2228   61.6315 O   0  0  0  0  0
    3.9652   22.5535   66.8911 P   0  0  0  0  0
    1.3140   28.2451   61.7370 P   0  0  0  0  0
  1  2  1  0  0  0
  2  3  1  0  0  0
  2 16  1  0  0  0
  3 17  1  0  0  0
  4 19  1  0  0  0
  4  2  1  0  0  0
  5 20  1  0  0  0
  5  6  1  0  0  0
  6 21  1  0  0  0
  7 21  1  0  0  0
  7  8  1  0  0  0
  8 22  1  0  0  0
  8  5  1  0  0  0
  9 22  1  0  0  0
  9 10  1  0  0  0
 10 23  1  0  0  0
 10  7  1  0  0  0
 11 25  1  0  0  0
 11 12  1  0  0  0
 12 13  1  0  0  0
 12 14  1  0  0  0
 12 15  1  0  0  0
 13 26  1  0  0  0
 27 17  1  0  0  0
 27 19  1  0  0  0
 27 20  1  0  0  0
 28 23  1  0  0  0
 28 25  1  0  0  0
 28 26  1  0  0  0
 27 18  2  0  0  0
 28 24  2  0  0  0
M  END
> <rmsd>
0.707234383

$$$$
PubChem-141457179


 26 28  0  0  0  0  0  0  0  0999 V2000
    3.9321   18.1340   62.3417 C   0  0  0  0  0
    2.9393   18.6061   63.3821 C   0  0  0  0  0
    3.2950   20.0114   63.8159 C   0  0  0  0  0
    2.9180   22.1607   65.2235 C   0  0  0  0  0
    3.1770   24.3831   64.5866 C   0  0  0  0  0
    4.1652   24.5657   65.4838 C   0  0  0  0  0
    4.5681   23.5215   66.2997 C   0  0  0  0  0
    6.0169   22.6349   68.0786 C   0  0  0  0  0
    2.0158   25.8141   62.8899 C   0  0  0  0  0
    2.7253   26.3123   61.6373 C   0  0  0  0  0
    2.1190   27.6601   61.2976 C   0  0  0  0  0
    1.4905   28.1539   62.5810 C   0  0  0  0  0
    1.0558   26.9061   63.3342 C   0  0  0  0  0
    2.7206   28.9631   59.6136 C   0  0  0  0  0
    3.4765   30.2199   59.2273 C   0  0  0  0  0
    2.1074   20.5774   65.0650 S   0  0  0  0  0
    2.5307   23.2046   64.4268 N   0  0  0  0  0
    3.9234   22.3226   66.1472 N   0  0  0  0  0
    4.5993   25.8374   65.4043 N   0  0  0  0  0
    3.8574   26.4061   64.4504 N   0  0  0  0  0
    2.9870   25.5362   63.9404 N   0  0  0  0  0
    5.5888   23.6930   67.2351 O   0  0  0  0  0
   -0.2439   26.5361   62.9765 O   0  0  0  0  0
    0.4128   28.9994   62.3082 O   0  0  0  0  0
    3.1186   28.5420   60.8844 O   0  0  0  0  0
    3.0986   31.2739   60.0590 O   0  0  0  0  0
  1  2  1  0  0  0
  2  3  1  0  0  0
  3 16  1  0  0  0
  4 16  1  0  0  0
  4 18  1  0  0  0
  5 17  1  0  0  0
  6  7  1  0  0  0
  6 19  1  0  0  0
  7 22  1  0  0  0
  8 22  1  0  0  0
  9 21  1  0  0  0
  9 10  1  0  0  0
 10 11  1  0  0  0
 11 12  1  0  0  0
 11 25  1  0  0  0
 12 13  1  0  0  0
 12 24  1  0  0  0
 13 23  1  0  0  0
 13  9  1  0  0  0
 14 25  1  0  0  0
 14 15  1  0  0  0
 15 26  1  0  0  0
 21 20  1  0  0  0
 21  5  1  0  0  0
  4 17  2  0  0  0
  5  6  2  0  0  0
  7 18  2  0  0  0
 19 20  2  0  0  0
M  END
> <rmsd>
0.779705524

$$$$
PubChem-66515706 LN04946945


 21 21  0  0  0  0  0  0  0  0999 V2000
   -0.9126   24.9387   61.5120 C   0  0  0  0  0
    0.8781   26.2236   62.6430 C   0  0  0  0  0
    1.3440   25.0855   63.3172 C   0  0  0  0  0
    2.4355   25.1484   64.1888 C   0  0  0  0  0
    3.0847   26.3903   64.3934 C   0  0  0  0  0
    2.6150   27.5269   63.7165 C   0  0  0  0  0
    1.5194   27.4535   62.8474 C   0  0  0  0  0
    1.0406   28.6821   62.1289 C   0  0  0  0  0
    2.0840   29.1976   61.1498 C   0  0  0  0  0
    4.8694   27.7105   65.4984 C   0  0  0  0  0
    3.8825   23.8313   65.7095 C   0  0  0  0  0
    4.1836   22.6581   66.2592 C   0  0  0  0  0
    5.3036   22.5373   67.2029 C   0  0  0  0  0
   -0.2145   26.1493   61.7706 O   0  0  0  0  0
    2.2259   28.3034   60.0881 O   0  0  0  0  0
    4.1814   26.4901   65.2576 O   0  0  0  0  0
    2.8214   23.9525   64.8135 O   0  0  0  0  0
    6.0007   23.5414   67.5101 O   0  0  0  0  0
    5.6008   21.3025   67.7655 O   0  0  0  0  0
    3.4335   21.5312   65.9408 O   0  0  0  0  0
    0.7030   29.7252   63.0826 N   0  0  0  0  0
  1 14  1  0  0  0
  2 14  1  0  0  0
  3  4  1  0  0  0
  4 17  1  0  0  0
  5  6  1  0  0  0
  5 16  1  0  0  0
  7  2  1  0  0  0
  8  7  1  0  0  0
  8  9  1  0  0  0
  8 21  1  0  0  0
  9 15  1  0  0  0
 10 16  1  0  0  0
 11 17  1  0  0  0
 12 13  1  0  0  0
 12 20  1  0  0  0
 13 19  1  0  0  0
  2  3  2  0  0  0
  4  5  2  0  0  0
  6  7  2  0  0  0
 11 12  2  0  0  0
 13 18  2  0  0  0
M  END
> <rmsd>
0.751273155

$$$$
PubChem-91613359


 36 41  0  0  0  0  0  0  0  0999 V2000
   -0.4050   22.8048   62.3663 C   0  0  0  0  0
    1.5021   22.7518   63.9389 C   0  0  0  0  0
    3.3701   22.8183   65.4225 C   0  0  0  0  0
    3.1076   21.4922   65.8245 C   0  0  0  0  0
    2.0266   20.8057   65.2756 C   0  0  0  0  0
    1.2178   21.4345   64.3301 C   0  0  0  0  0
    4.9700   21.5485   67.2689 C   0  0  0  0  0
    5.2428   22.8620   66.8814 C   0  0  0  0  0
    4.7254   24.8488   65.5631 C   0  0  0  0  0
    3.7627   25.8569   65.7206 C   0  0  0  0  0
    5.2629   27.4925   64.8724 C   0  0  0  0  0
    5.5549   28.9277   64.5152 C   0  0  0  0  0
    7.0593   29.1126   64.2766 C   0  0  0  0  0
    7.6099   26.9131   64.1897 C   0  0  0  0  0
    6.2491   26.5108   64.6857 C   0  0  0  0  0
    5.9810   25.1913   65.0448 C   0  0  0  0  0
    4.7905   29.3443   63.2678 C   0  0  0  0  0
    2.7922   30.2148   62.4292 C   0  0  0  0  0
    2.0366   29.2053   61.6353 C   0  0  0  0  0
    1.7410   28.0199   59.6083 C   0  0  0  0  0
    0.6292   27.3738   60.1425 C   0  0  0  0  0
   -0.2201   26.4660   59.3077 C   0  0  0  0  0
   -0.9501   25.4357   60.1760 C   0  0  0  0  0
   -1.5024   26.0472   61.4382 C   0  0  0  0  0
    0.2351   27.6875   61.4481 C   0  0  0  0  0
    0.7167   23.4137   62.9912 O   0  0  0  0  0
    6.2235   23.4583   67.4039 O   0  0  0  0  0
    7.5439   28.0981   63.4278 O   0  0  0  0  0
    2.5632   23.4024   64.4897 N   0  0  0  0  0
    3.9113   20.8911   66.7348 N   0  0  0  0  0
    4.4411   23.4906   65.9589 N   0  0  0  0  0
    4.0486   27.1420   65.3770 N   0  0  0  0  0
    3.3955   29.5902   63.5943 N   0  0  0  0  0
    2.4273   28.9165   60.3647 N   0  0  0  0  0
   -0.9220   27.0595   62.0135 N   0  0  0  0  0
    0.9422   28.5970   62.1677 N   0  0  0  0  0
  1 26  1  0  0  0
  2 26  1  0  0  0
  3 29  1  0  0  0
  4  5  1  0  0  0
  4 30  1  0  0  0
  6  2  1  0  0  0
  7  8  1  0  0  0
  8 31  1  0  0  0
 10 32  1  0  0  0
 12 11  1  0  0  0
 12 13  1  0  0  0
 12 17  1  0  0  0
 13 28  1  0  0  0
 14 28  1  0  0  0
 14 15  1  0  0  0
 15 11  1  0  0  0
 16  9  1  0  0  0
 17 33  1  0  0  0
 18 33  1  0  0  0
 18 19  1  0  0  0
 19 36  1  0  0  0
 20 34  1  0  0  0
 22 21  1  0  0  0
 22 23  1  0  0  0
 23 24  1  0  0  0
 25 35  1  0  0  0
 25 21  1  0  0  0
 31  9  1  0  0  0
 31  3  1  0  0  0
  2 29  2  0  0  0
  3  4  2  0  0  0
  5  6  2  0  0  0
  7 30  2  0  0  0
  8 27  2  0  0  0
  9 10  2  0  0  0
 11 32  2  0  0  0
 15 16  2  0  0  0
 19 34  2  0  0  0
 20 21  2  0  0  0
 24 35  2  0  0  0
 25 36  2  0  0  0
M  END
> <rmsd>
0.700238407

$$$$
PubChem-22363093


 21 22  0  0  0  0  0  0  0  0999 V2000
    0.2566   22.0721   64.8490 C   0  0  0  0  0
   -0.2891   23.0094   63.9750 C   0  0  0  0  0
    0.3882   24.2005   63.7108 C   0  0  0  0  0
   -0.1810   25.1229   62.8309 C   0  0  0  0  0
    0.4675   26.3236   62.5434 C   0  0  0  0  0
    1.7007   26.6001   63.1464 C   0  0  0  0  0
    2.2890   25.6916   64.0301 C   0  0  0  0  0
    1.6388   24.4707   64.3281 C   0  0  0  0  0
    2.1867   23.5118   65.2158 C   0  0  0  0  0
    1.4828   22.3220   65.4630 C   0  0  0  0  0
    3.4179   23.7458   65.8422 O   0  0  0  0  0
    4.4343   21.3491   66.2175 O   0  0  0  0  0
    5.4481   23.2292   67.4197 O   0  0  0  0  0
    3.1363   22.3658   68.2300 O   0  0  0  0  0
    3.5144   26.0240   64.5963 O   0  0  0  0  0
   -0.1356   27.2205   61.6569 O   0  0  0  0  0
   -0.3396   29.4194   60.2425 O   0  0  0  0  0
    0.7102   29.5803   62.4516 O   0  0  0  0  0
    2.0628   28.4727   60.5253 O   0  0  0  0  0
    4.1557   22.6455   66.9244 S   0  0  0  0  0
    0.5570   28.7237   61.2266 S   0  0  0  0  0
  2  3  1  0  0  0
  4  5  1  0  0  0
  5 16  1  0  0  0
  6  7  1  0  0  0
  7 15  1  0  0  0
  8  9  1  0  0  0
  8  3  1  0  0  0
  9 11  1  0  0  0
 10  1  1  0  0  0
 20 11  1  0  0  0
 20 14  1  0  0  0
 21 16  1  0  0  0
 21 19  1  0  0  0
  1  2  2  0  0  0
  3  4  2  0  0  0
  5  6  2  0  0  0
  7  8  2  0  0  0
  9 10  2  0  0  0
 20 12  2  0  0  0
 20 13  2  0  0  0
 21 17  2  0  0  0
 21 18  2  0  0  0
M  END
> <rmsd>
0.75453794

$$$$
PubChem-22363093


 21 22  0  0  0  0  0  0  0  0999 V2000
    0.2566   22.0722   64.8490 C   0  0  0  0  0
   -0.2890   23.0095   63.9751 C   0  0  0  0  0
    0.3882   24.2006   63.7109 C   0  0  0  0  0
   -0.1811   25.1229   62.8309 C   0  0  0  0  0
    0.4674   26.3236   62.5434 C   0  0  0  0  0
    1.7007   26.6001   63.1464 C   0  0  0  0  0
    2.2890   25.6917   64.0301 C   0  0  0  0  0
    1.6388   24.4707   64.3281 C   0  0  0  0  0
    2.1867   23.5118   65.2159 C   0  0  0  0  0
    1.4829   22.3221   65.4630 C   0  0  0  0  0
    3.4179   23.7459   65.8423 O   0  0  0  0  0
    4.4343   21.3492   66.2175 O   0  0  0  0  0
    5.4481   23.2292   67.4197 O   0  0  0  0  0
    3.1362   22.3659   68.2300 O   0  0  0  0  0
    3.5144   26.0240   64.5963 O   0  0  0  0  0
   -0.1357   27.2205   61.6570 O   0  0  0  0  0
    0.7102   29.5803   62.4516 O   0  0  0  0  0
   -0.3396   29.4193   60.2424 O   0  0  0  0  0
    2.0628   28.4726   60.5252 O   0  0  0  0  0
    4.1556   22.6456   66.9243 S   0  0  0  0  0
    0.5570   28.7236   61.2266 S   0  0  0  0  0
  2  3  1  0  0  0
  4  5  1  0  0  0
  5 16  1  0  0  0
  6  7  1  0  0  0
  7 15  1  0  0  0
  8  9  1  0  0  0
  8  3  1  0  0  0
  9 11  1  0  0  0
 10  1  1  0  0  0
 20 11  1  0  0  0
 20 14  1  0  0  0
 21 16  1  0  0  0
 21 19  1  0  0  0
  1  2  2  0  0  0
  3  4  2  0  0  0
  5  6  2  0  0  0
  7  8  2  0  0  0
  9 10  2  0  0  0
 20 12  2  0  0  0
 20 13  2  0  0  0
 21 17  2  0  0  0
 21 18  2  0  0  0
M  END
> <rmsd>
0.75445652

$$$$
PubChem-160766177


 29 31  0  0  0  0  0  0  0  0999 V2000
    4.1668   32.8703   62.6587 C   0  0  0  0  0
    2.9819   32.8765   61.7166 C   0  0  0  0  0
    2.0024   31.7952   62.1310 C   0  0  0  0  0
    0.8098   31.7666   61.1867 C   0  0  0  0  0
    1.1867   31.1735   59.8346 C   0  0  0  0  0
    0.1214   31.5130   58.8093 C   0  0  0  0  0
    1.3840   29.6881   59.9169 C   0  0  0  0  0
    0.2527   28.7763   60.2895 C   0  0  0  0  0
    2.2607   26.5740   62.9982 C   0  0  0  0  0
    3.7259   26.6749   63.3801 C   0  0  0  0  0
    4.5577   25.7498   62.5229 C   0  0  0  0  0
    5.6162   25.2532   63.4583 C   0  0  0  0  0
    5.1987   25.7962   64.8098 C   0  0  0  0  0
    6.0576   24.7383   66.9229 C   0  0  0  0  0
    4.9224   22.9455   67.0194 C   0  0  0  0  0
    4.3209   21.7328   67.3237 C   0  0  0  0  0
    3.0106   21.9655   65.3431 C   0  0  0  0  0
    4.5571   23.6170   65.9071 C   0  0  0  0  0
    2.4766   29.2170   59.6446 O   0  0  0  0  0
   -0.5290   26.9597   62.0903 O   0  0  0  0  0
    0.6015   28.9667   62.9440 O   0  0  0  0  0
    2.0552   27.1487   61.7409 O   0  0  0  0  0
    3.8916   26.3027   64.7212 O   0  0  0  0  0
    0.5738   27.9495   61.8365 S   0  0  0  0  0
    5.2625   24.7512   65.8237 N   0  0  0  0  0
    5.8719   23.6254   67.6892 N   0  0  0  0  0
    3.3659   21.2629   66.4675 N   0  0  0  0  0
    3.6094   23.1605   65.0523 N   0  0  0  0  0
    4.6793   20.9969   68.4881 N   0  0  0  0  0
  1  2  1  0  0  0
  2  3  1  0  0  0
  3  4  1  0  0  0
  4  5  1  0  0  0
  5  6  1  0  0  0
  5  7  1  0  0  0
  8  7  1  0  0  0
  8 24  1  0  0  0
  9 22  1  0  0  0
 10  9  1  0  0  0
 10 11  1  0  0  0
 10 23  1  0  0  0
 11 12  1  0  0  0
 12 13  1  0  0  0
 13 23  1  0  0  0
 13 25  1  0  0  0
 15 26  1  0  0  0
 16 27  1  0  0  0
 16 29  1  0  0  0
 17 28  1  0  0  0
 18 25  1  0  0  0
 18 15  1  0  0  0
 24 22  1  0  0  0
 25 14  1  0  0  0
  7 19  2  0  0  0
 14 26  2  0  0  0
 15 16  2  0  0  0
 17 27  2  0  0  0
 18 28  2  0  0  0
 24 20  2  0  0  0
 24 21  2  0  0  0
M  END
> <rmsd>
0.693144619

$$$$
PubChem-53253613


 27 29  0  0  0  0  0  0  0  0999 V2000
    4.7753   22.2531   68.5131 C   0  0  0  0  0
    5.1070   22.3957   67.0407 C   0  0  0  0  0
    4.6585   24.0208   65.5825 C   0  0  0  0  0
    3.8316   25.2580   65.7557 C   0  0  0  0  0
    2.3923   24.7748   65.5770 C   0  0  0  0  0
    3.6689   22.9181   65.4045 C   0  0  0  0  0
    1.7393   25.1820   64.2482 C   0  0  0  0  0
    1.3091   26.6395   64.3109 C   0  0  0  0  0
    2.6387   27.1593   61.7741 C   0  0  0  0  0
    2.4986   27.7045   60.3641 C   0  0  0  0  0
    4.5105   27.3586   65.5513 C   0  0  0  0  0
    4.3332   28.5709   64.7053 C   0  0  0  0  0
    3.3519   29.5106   65.0368 C   0  0  0  0  0
    3.1750   30.6480   64.2430 C   0  0  0  0  0
    3.9810   30.8479   63.1182 C   0  0  0  0  0
    4.9660   29.9120   62.7881 C   0  0  0  0  0
    5.1434   28.7747   63.5816 C   0  0  0  0  0
    6.3550   21.5823   66.7465 C   0  0  0  0  0
    5.3538   23.7510   66.7574 O   0  0  0  0  0
    2.3782   23.3763   65.7286 O   0  0  0  0  0
    4.0336   21.8959   66.2791 O   0  0  0  0  0
    0.0191   26.5612   61.9514 O   0  0  0  0  0
    0.7205   28.7577   62.7844 O   0  0  0  0  0
    2.4664   29.0987   60.3924 O   0  0  0  0  0
    0.6178   24.3883   63.9972 O   0  0  0  0  0
    4.2092   26.2148   64.8080 O   0  0  0  0  0
    1.1049   27.3095   62.6728 S   0  0  0  0  0
  1  2  1  0  0  0
  2 19  1  0  0  0
  2 18  1  0  0  0
  2 21  1  0  0  0
  3 19  1  0  0  0
  3  4  1  0  0  0
  4  5  1  0  0  0
  4 26  1  0  0  0
  5 20  1  0  0  0
  5  7  1  0  0  0
  6 20  1  0  0  0
  6 21  1  0  0  0
  6  3  1  0  0  0
  7  8  1  0  0  0
  7 25  1  0  0  0
  8 27  1  0  0  0
  9 10  1  0  0  0
 10 24  1  0  0  0
 11 26  1  0  0  0
 11 12  1  0  0  0
 13 14  1  0  0  0
 15 16  1  0  0  0
 17 12  1  0  0  0
 27  9  1  0  0  0
 12 13  2  0  0  0
 14 15  2  0  0  0
 16 17  2  0  0  0
 27 22  2  0  0  0
 27 23  2  0  0  0
M  END
> <rmsd>
0.592632592

$$$$
PubChem-59905550


 28 29  0  0  0  0  0  0  0  0999 V2000
    8.0512   23.7223   68.8627 C   0  0  0  0  0
    6.5532   23.5276   68.7535 C   0  0  0  0  0
    5.8664   24.8686   68.6796 C   0  0  0  0  0
    4.7900   24.6792   67.6545 C   0  0  0  0  0
    5.0124   23.2760   67.1324 C   0  0  0  0  0
    3.8873   22.3628   67.5922 C   0  0  0  0  0
    3.1107   20.2905   67.6411 C   0  0  0  0  0
    3.8773   19.1444   68.2710 C   0  0  0  0  0
    2.0889   19.7338   66.6708 C   0  0  0  0  0
    1.6263   26.5188   63.7399 C   0  0  0  0  0
    1.5505   27.0491   62.3153 C   0  0  0  0  0
    1.6963   28.5562   62.2163 C   0  0  0  0  0
    1.0167   28.8413   60.9096 C   0  0  0  0  0
    0.1726   27.6049   60.6513 C   0  0  0  0  0
   -1.2862   27.9977   60.5430 C   0  0  0  0  0
    1.9167   30.0077   63.8914 C   0  0  0  0  0
    1.7510   29.8567   65.3891 C   0  0  0  0  0
    1.6920   31.4572   63.5078 C   0  0  0  0  0
    6.2495   22.7935   67.5957 O   0  0  0  0  0
    3.9969   21.1234   66.9563 O   0  0  0  0  0
    2.0829   26.0268   66.6546 O   0  0  0  0  0
    2.8181   24.1066   65.0253 O   0  0  0  0  0
    2.8956   26.7688   64.2675 O   0  0  0  0  0
    0.3376   26.6941   61.7109 O   0  0  0  0  0
    1.9757   28.9634   59.9031 O   0  0  0  0  0
    0.9829   29.1974   63.2392 O   0  0  0  0  0
    5.0480   25.8786   66.3124 S   0  0  0  0  0
    3.0754   25.6913   65.5631 P   0  0  0  0  0
  2  1  1  0  0  0
  2  3  1  0  0  0
  2 19  1  0  0  0
  3  4  1  0  0  0
  4  5  1  0  0  0
  4 27  1  0  0  0
  5 19  1  0  0  0
  5  6  1  0  0  0
  6 20  1  0  0  0
  7 20  1  0  0  0
  7  8  1  0  0  0
  7  9  1  0  0  0
 10 23  1  0  0  0
 11 10  1  0  0  0
 11 12  1  0  0  0
 11 24  1  0  0  0
 12 13  1  0  0  0
 12 26  1  0  0  0
 13 14  1  0  0  0
 13 25  1  0  0  0
 14 24  1  0  0  0
 14 15  1  0  0  0
 16 26  1  0  0  0
 16 17  1  0  0  0
 16 18  1  0  0  0
 28 27  1  0  0  0
 28 22  1  0  0  0
 28 23  1  0  0  0
 28 21  2  0  0  0
M  CHG  1  22  -1
M  END
> <rmsd>
0.803155184

$$$$
PubChem-144459913


 25 26  0  0  0  0  0  0  0  0999 V2000
    3.7873   22.0084   62.6561 C   0  0  0  0  0
    4.0600   21.3461   63.9910 C   0  0  0  0  0
    4.3728   19.8806   63.7636 C   0  0  0  0  0
    3.8283   24.6133   65.2037 C   0  0  0  0  0
    2.6945   25.5024   64.7272 C   0  0  0  0  0
    1.8228   24.7569   63.7288 C   0  0  0  0  0
    1.6571   25.7088   62.5829 C   0  0  0  0  0
    2.2983   26.9865   63.1136 C   0  0  0  0  0
    4.1457   27.5570   61.6006 C   0  0  0  0  0
    4.7403   28.3758   60.6437 C   0  0  0  0  0
    4.0380   29.4930   60.2036 C   0  0  0  0  0
    2.2399   28.9569   61.6452 C   0  0  0  0  0
    2.3397   25.1263   61.3544 C   0  0  0  0  0
    0.2348   25.9283   62.3082 C   0  0  0  0  0
    5.1505   21.9671   64.6052 O   0  0  0  0  0
    5.7403   23.1002   66.8921 O   0  0  0  0  0
    4.0574   21.1121   67.0036 O   0  0  0  0  0
    3.3227   23.5675   65.9801 O   0  0  0  0  0
    3.2235   26.6497   64.1127 O   0  0  0  0  0
    1.0987   29.2458   62.0965 O   0  0  0  0  0
    4.5986   22.4595   66.1346 P   0  0  0  0  0
    2.9025   27.8436   62.0852 N   0  0  0  0  0
    2.8089   29.7640   60.7111 N   0  0  0  0  0
    4.6101   30.3539   59.2266 N   0  0  0  0  0
   -0.8886   26.1028   62.0911 N   0  0  0  0  0
  1  2  1  0  0  0
  2  3  1  0  0  0
  2 15  1  0  0  0
  4 18  1  0  0  0
  5  4  1  0  0  0
  5  6  1  0  0  0
  5 19  1  0  0  0
  6  7  1  0  0  0
  7  8  1  0  0  0
  7 13  1  0  0  0
  7 14  1  0  0  0
  8 19  1  0  0  0
  8 22  1  0  0  0
 10 11  1  0  0  0
 11 24  1  0  0  0
 12 23  1  0  0  0
 12 22  1  0  0  0
 21 15  1  0  0  0
 21 17  1  0  0  0
 21 18  1  0  0  0
 22  9  1  0  0  0
  9 10  2  0  0  0
 11 23  2  0  0  0
 12 20  2  0  0  0
 21 16  2  0  0  0
 14 25  3  0  0  0
M  END
> <rmsd>
0.710263908

$$$$
PubChem-88936241


 25 28  0  0  0  0  0  0  0  0999 V2000
    6.6459   28.7549   62.9455 C   0  0  0  0  0
    5.1867   28.5117   62.6001 C   0  0  0  0  0
    4.5838   27.4129   63.4686 C   0  0  0  0  0
    4.4849   27.7451   64.9484 C   0  0  0  0  0
    3.1120   26.1111   64.2690 C   0  0  0  0  0
    3.1589   27.0998   63.1515 C   0  0  0  0  0
    1.4459   28.5152   59.5434 C   0  0  0  0  0
    4.2860   25.2467   63.7954 C   0  0  0  0  0
    6.0416   24.4708   65.4556 C   0  0  0  0  0
    5.0305   22.8758   66.4247 C   0  0  0  0  0
    4.2003   23.4019   65.4995 C   0  0  0  0  0
    2.5258   21.8728   66.0437 C   0  0  0  0  0
    4.6110   21.8057   67.2018 C   0  0  0  0  0
    3.5294   26.8212   65.4298 O   0  0  0  0  0
    2.2977   28.1835   63.3850 O   0  0  0  0  0
    0.3670   29.4484   62.1661 O   0  0  0  0  0
    0.4450   26.8570   61.8152 O   0  0  0  0  0
    2.3083   28.5546   60.6400 O   0  0  0  0  0
    5.2568   26.1767   63.3445 O   0  0  0  0  0
    1.3267   28.2915   61.9995 P   0  0  0  0  0
    4.8128   24.4140   64.8767 N   0  0  0  0  0
    6.2079   23.5276   66.4261 N   0  0  0  0  0
    2.9493   22.9275   65.2826 N   0  0  0  0  0
    3.3511   21.3214   66.9920 N   0  0  0  0  0
    5.4587   21.2246   68.1863 N   0  0  0  0  0
  1  2  1  0  0  0
  3  2  1  0  0  0
  3  4  1  0  0  0
  3 19  1  0  0  0
  4 14  1  0  0  0
  5 14  1  0  0  0
  5  6  1  0  0  0
  5  8  1  0  0  0
  6 15  1  0  0  0
  6  3  1  0  0  0
  7 18  1  0  0  0
  8 19  1  0  0  0
  8 21  1  0  0  0
 10 22  1  0  0  0
 11 23  1  0  0  0
 11 21  1  0  0  0
 12 24  1  0  0  0
 13 25  1  0  0  0
 13 10  1  0  0  0
 20 15  1  0  0  0
 20 17  1  0  0  0
 20 18  1  0  0  0
 21  9  1  0  0  0
  9 22  2  0  0  0
 10 11  2  0  0  0
 12 23  2  0  0  0
 13 24  2  0  0  0
 20 16  2  0  0  0
M  END
> <rmsd>
0.629851997

$$$$
PubChem-88936241


 25 28  0  0  0  0  0  0  0  0999 V2000
    6.6864   28.7626   62.9746 C   0  0  0  0  0
    5.2293   28.5255   62.6158 C   0  0  0  0  0
    4.6150   27.4267   63.4763 C   0  0  0  0  0
    4.5044   27.7554   64.9560 C   0  0  0  0  0
    3.1314   26.1284   64.2604 C   0  0  0  0  0
    3.1918   27.1199   63.1459 C   0  0  0  0  0
   -0.2193   26.9442   60.6389 C   0  0  0  0  0
    4.3062   25.2608   63.7944 C   0  0  0  0  0
    6.0442   24.4734   65.4678 C   0  0  0  0  0
    5.0184   22.8798   66.4236 C   0  0  0  0  0
    4.1984   23.4117   65.4925 C   0  0  0  0  0
    2.5132   21.8878   66.0179 C   0  0  0  0  0
    4.5878   21.8092   67.1939 C   0  0  0  0  0
    3.5413   26.8338   65.4266 O   0  0  0  0  0
    2.3329   28.2065   63.3746 O   0  0  0  0  0
    0.3701   29.4376   62.1724 O   0  0  0  0  0
    2.2915   28.5583   60.6300 O   0  0  0  0  0
    0.4775   26.8344   61.8433 O   0  0  0  0  0
    5.2845   26.1883   63.3546 O   0  0  0  0  0
    1.3385   28.2883   62.0040 P   0  0  0  0  0
    4.8203   24.4231   64.8781 N   0  0  0  0  0
    6.1984   23.5268   66.4370 N   0  0  0  0  0
    2.9474   22.9428   65.2634 N   0  0  0  0  0
    3.3279   21.3304   66.9718 N   0  0  0  0  0
    5.4246   21.2220   68.1843 N   0  0  0  0  0
  1  2  1  0  0  0
  3  2  1  0  0  0
  3  4  1  0  0  0
  3 19  1  0  0  0
  4 14  1  0  0  0
  5 14  1  0  0  0
  5  6  1  0  0  0
  5  8  1  0  0  0
  6 15  1  0  0  0
  6  3  1  0  0  0
  7 18  1  0  0  0
  8 19  1  0  0  0
  8 21  1  0  0  0
 10 22  1  0  0  0
 11 23  1  0  0  0
 11 21  1  0  0  0
 12 24  1  0  0  0
 13 25  1  0  0  0
 13 10  1  0  0  0
 20 15  1  0  0  0
 20 17  1  0  0  0
 20 18  1  0  0  0
 21  9  1  0  0  0
  9 22  2  0  0  0
 10 11  2  0  0  0
 12 23  2  0  0  0
 13 24  2  0  0  0
 20 16  2  0  0  0
M  END
> <rmsd>
0.628159583

$$$$
PubChem-21592222


 31 34  0  0  0  0  0  0  0  0999 V2000
    2.8523   27.2157   60.2997 C   0  0  0  0  0
   -0.2738   28.8728   63.7413 C   0  0  0  0  0
    3.1482   28.4192   63.5653 C   0  0  0  0  0
    4.4913   27.9079   64.0726 C   0  0  0  0  0
    5.2137   27.1663   63.0102 C   0  0  0  0  0
    5.5058   25.9707   63.4573 C   0  0  0  0  0
    5.0118   25.8542   64.8514 C   0  0  0  0  0
    2.9563   24.4503   64.3759 C   0  0  0  0  0
    3.2939   22.7772   65.6393 C   0  0  0  0  0
    4.3303   23.6307   65.7824 C   0  0  0  0  0
    5.3546   22.2249   67.3332 C   0  0  0  0  0
    3.2639   21.5926   66.3618 C   0  0  0  0  0
    2.0302   19.4289   66.9114 C   0  0  0  0  0
    0.8465   18.5862   66.6663 C   0  0  0  0  0
   -0.1425   18.9996   65.7616 C   0  0  0  0  0
   -1.2659   18.2009   65.5283 C   0  0  0  0  0
   -1.4086   16.9828   66.1981 C   0  0  0  0  0
   -0.4283   16.5631   67.1012 C   0  0  0  0  0
    0.6951   17.3617   67.3345 C   0  0  0  0  0
    2.1621   28.3685   60.6796 O   0  0  0  0  0
    0.2757   26.8419   61.6739 O   0  0  0  0  0
    0.4091   29.2924   62.5980 O   0  0  0  0  0
    2.2923   27.3540   63.2671 O   0  0  0  0  0
    4.3047   27.0347   65.1661 O   0  0  0  0  0
    2.9133   19.0472   67.7272 O   0  0  0  0  0
    1.2598   27.9297   62.0489 P   0  0  0  0  0
    4.1419   24.6926   64.9949 N   0  0  0  0  0
    2.4025   23.2635   64.7553 N   0  0  0  0  0
    5.3712   23.3886   66.6154 N   0  0  0  0  0
    4.3123   21.3413   67.2047 N   0  0  0  0  0
    2.1703   20.6779   66.2203 N   0  0  0  0  0
  1 20  1  0  0  0
  2 22  1  0  0  0
  3 23  1  0  0  0
  4  3  1  0  0  0
  4  5  1  0  0  0
  4 24  1  0  0  0
  7  6  1  0  0  0
  7 24  1  0  0  0
  7 27  1  0  0  0
  9 28  1  0  0  0
 10 29  1  0  0  0
 10 27  1  0  0  0
 11 30  1  0  0  0
 12 31  1  0  0  0
 12  9  1  0  0  0
 13 14  1  0  0  0
 15 16  1  0  0  0
 17 18  1  0  0  0
 19 14  1  0  0  0
 26 20  1  0  0  0
 26 22  1  0  0  0
 26 23  1  0  0  0
 27  8  1  0  0  0
 31 13  1  0  0  0
  5  6  2  0  0  0
  8 28  2  0  0  0
  9 10  2  0  0  0
 11 29  2  0  0  0
 12 30  2  0  0  0
 13 25  2  0  0  0
 14 15  2  0  0  0
 16 17  2  0  0  0
 18 19  2  0  0  0
 26 21  2  0  0  0
M  END
> <rmsd>
0.763385832

$$$$
PubChem-56930855


 29 32  0  0  0  0  0  0  0  0999 V2000
    5.0327   25.2471   62.6570 C   0  0  0  0  0
    4.8394   26.5809   63.4021 C   0  0  0  0  0
    3.6342   27.3788   62.9361 C   0  0  0  0  0
    3.0857   27.9518   64.2454 C   0  0  0  0  0
    1.5691   28.1756   64.1689 C   0  0  0  0  0
    2.2891   27.4378   59.4234 C   0  0  0  0  0
    3.7425   27.5768   59.0188 C   0  0  0  0  0
    1.4137   27.5514   58.1940 C   0  0  0  0  0
    4.6369   26.4933   64.9263 C   0  0  0  0  0
    5.8357   24.6792   66.1960 C   0  0  0  0  0
    4.4084   23.1046   66.1938 C   0  0  0  0  0
    3.8865   24.1488   65.5133 C   0  0  0  0  0
    1.9266   22.9656   65.0715 C   0  0  0  0  0
    3.6797   21.9316   66.3299 C   0  0  0  0  0
    3.5029   19.6113   67.1668 C   0  0  0  0  0
    2.4235   19.7453   68.2261 C   0  0  0  0  0
    1.2202   28.8201   62.9726 O   0  0  0  0  0
    0.1809   26.9074   61.5058 O   0  0  0  0  0
    2.6778   26.5861   62.2701 O   0  0  0  0  0
    1.9562   28.4534   60.3242 O   0  0  0  0  0
    3.3983   27.0609   65.2845 O   0  0  0  0  0
    4.2074   20.8375   67.0231 O   0  0  0  0  0
    1.4677   27.6654   61.7472 P   0  0  0  0  0
    4.7745   25.1508   65.4929 N   0  0  0  0  0
    5.6438   23.4032   66.6390 N   0  0  0  0  0
    2.6572   24.1143   64.9455 N   0  0  0  0  0
    2.4366   21.8889   65.7554 N   0  0  0  0  0
    0.6292   22.8860   64.4956 N   0  0  0  0  0
    5.9628   27.3567   63.1838 F   0  0  0  0  0
  1  2  1  0  0  0
  2  3  1  0  0  0
  2 29  1  0  0  0
  3  4  1  0  0  0
  3 19  1  0  0  0
  4  5  1  0  0  0
  4 21  1  0  0  0
  5 17  1  0  0  0
  6 20  1  0  0  0
  6  7  1  0  0  0
  6  8  1  0  0  0
  9 21  1  0  0  0
  9 24  1  0  0  0
  9  2  1  0  0  0
 11 25  1  0  0  0
 12 26  1  0  0  0
 12 24  1  0  0  0
 13 27  1  0  0  0
 13 28  1  0  0  0
 14 22  1  0  0  0
 14 11  1  0  0  0
 15 22  1  0  0  0
 15 16  1  0  0  0
 23 17  1  0  0  0
 23 19  1  0  0  0
 23 20  1  0  0  0
 24 10  1  0  0  0
 10 25  2  0  0  0
 11 12  2  0  0  0
 13 26  2  0  0  0
 14 27  2  0  0  0
 23 18  2  0  0  0
M  ISO  1   1   1
M  END
> <rmsd>
0.803529978

$$$$
PubChem-98537517


 26 29  0  0  0  0  0  0  0  0999 V2000
    2.2326   27.2122   65.6645 C   0  0  0  0  0
    1.5496   27.4839   64.3588 C   0  0  0  0  0
    1.1330   28.6930   64.0297 C   0  0  0  0  0
   -0.3523   29.5178   62.1989 C   0  0  0  0  0
   -1.3197   28.9658   61.4697 C   0  0  0  0  0
   -1.2987   27.5111   61.2236 C   0  0  0  0  0
    0.9656   27.3588   62.1082 C   0  0  0  0  0
    1.4793   25.1105   63.2493 C   0  0  0  0  0
    2.7765   24.5533   63.7383 C   0  0  0  0  0
    4.0274   25.0807   63.4778 C   0  0  0  0  0
    6.0071   25.2681   64.8958 C   0  0  0  0  0
    5.8649   26.2435   65.8151 C   0  0  0  0  0
    4.5435   26.7228   66.2736 C   0  0  0  0  0
    4.1301   23.6844   65.1169 C   0  0  0  0  0
    4.6268   22.9210   66.2752 C   0  0  0  0  0
    2.0123   27.4259   61.0274 C   0  0  0  0  0
    0.7073   28.6860   62.6739 N   0  0  0  0  0
   -0.2736   26.7831   61.5651 N   0  0  0  0  0
    1.4620   26.5800   63.2402 N   0  0  0  0  0
    4.8726   24.5483   64.3835 N   0  0  0  0  0
    3.6281   26.9436   65.3893 N   0  0  0  0  0
    2.8343   23.6745   64.7542 N   0  0  0  0  0
    3.8233   22.2555   66.9799 O   0  0  0  0  0
    5.9788   22.9105   66.5916 O   0  0  0  0  0
    2.5283   28.5263   60.6941 O   0  0  0  0  0
    2.4149   26.2630   60.3829 O   0  0  0  0  0
  1  2  1  0  0  0
  1 21  1  0  0  0
  3 17  1  0  0  0
  5  6  1  0  0  0
  7 18  1  0  0  0
  7 19  1  0  0  0
  7 16  1  0  0  0
  7 17  1  0  0  0
  8 19  1  0  0  0
  8  9  1  0  0  0
  9 22  1  0  0  0
 10 20  1  0  0  0
 12 13  1  0  0  0
 14 15  1  0  0  0
 15 24  1  0  0  0
 16 26  1  0  0  0
 17  4  1  0  0  0
 19  2  1  0  0  0
 20 11  1  0  0  0
 20 14  1  0  0  0
  2  3  2  0  0  0
  4  5  2  0  0  0
  6 18  2  0  0  0
  9 10  2  0  0  0
 11 12  2  0  0  0
 13 21  2  0  0  0
 14 22  2  0  0  0
 15 23  2  0  0  0
 16 25  2  0  0  0
M  END
> <rmsd>
0.685443461

$$$$
PubChem-57252063


 22 22  0  0  0  0  0  0  0  0999 V2000
    4.5863   22.8655   60.7553 C   0  0  0  0  0
    3.8069   23.9072   60.2555 C   0  0  0  0  0
    3.4030   24.9425   61.0996 C   0  0  0  0  0
    3.7699   24.9589   62.4559 C   0  0  0  0  0
    4.5585   23.8904   62.9580 C   0  0  0  0  0
    4.9570   22.8573   62.1000 C   0  0  0  0  0
    4.9575   23.7868   64.3978 C   0  0  0  0  0
    4.0553   22.8139   65.1522 C   0  0  0  0  0
    4.6184   22.4623   66.4949 C   0  0  0  0  0
    3.3192   26.1009   63.2949 C   0  0  0  0  0
    2.2738   27.0458   62.7850 C   0  0  0  0  0
    2.8476   28.4464   62.6242 C   0  0  0  0  0
    2.0044   29.2667   61.7081 C   0  0  0  0  0
   -0.1275   26.5021   63.3225 C   0  0  0  0  0
    4.0508   21.5829   67.1942 O   0  0  0  0  0
    5.7632   23.0856   66.9804 O   0  0  0  0  0
    3.8144   26.3006   64.4374 O   0  0  0  0  0
    2.4805   29.6721   60.6167 O   0  0  0  0  0
    0.7034   29.6021   62.0612 O   0  0  0  0  0
   -0.2932   25.9687   62.1934 O   0  0  0  0  0
    2.7287   23.3870   65.3148 N   0  0  0  0  0
    1.1330   27.0622   63.6897 N   0  0  0  0  0
  2  3  1  0  0  0
  4  5  1  0  0  0
  4 10  1  0  0  0
  6  1  1  0  0  0
  7  5  1  0  0  0
  8  7  1  0  0  0
  8  9  1  0  0  0
  8 21  1  0  0  0
  9 16  1  0  0  0
 11 10  1  0  0  0
 11 12  1  0  0  0
 11 22  1  0  0  0
 12 13  1  0  0  0
 13 19  1  0  0  0
 22 14  1  0  0  0
  1  2  2  0  0  0
  3  4  2  0  0  0
  5  6  2  0  0  0
  9 15  2  0  0  0
 10 17  2  0  0  0
 13 18  2  0  0  0
 14 20  2  0  0  0
M  END
> <rmsd>
0.569252551

$$$$
PubChem-66513200


 22 22  0  0  0  0  0  0  0  0999 V2000
   -1.4700   24.6120   62.0573 C   0  0  0  0  0
    0.5111   25.9343   62.7380 C   0  0  0  0  0
    1.0240   24.8748   63.5003 C   0  0  0  0  0
    2.2309   24.9928   64.1963 C   0  0  0  0  0
    2.9512   26.2100   64.1270 C   0  0  0  0  0
    2.4340   27.2679   63.3632 C   0  0  0  0  0
    1.2211   27.1419   62.6742 C   0  0  0  0  0
    0.6952   28.2810   61.8494 C   0  0  0  0  0
    1.4864   28.4645   60.5957 C   0  0  0  0  0
    4.9284   27.5611   64.7709 C   0  0  0  0  0
    3.8275   23.8161   65.6819 C   0  0  0  0  0
    4.1580   22.7145   66.3502 C   0  0  0  0  0
    5.3954   22.6598   67.1411 C   0  0  0  0  0
   -0.6966   25.8042   62.0417 O   0  0  0  0  0
    0.9500   28.2345   59.4812 O   0  0  0  0  0
    2.8102   28.8841   60.6509 O   0  0  0  0  0
    4.1648   26.3627   64.8078 O   0  0  0  0  0
    2.6551   23.8742   64.9298 O   0  0  0  0  0
    6.1673   23.6542   67.2024 O   0  0  0  0  0
    5.7215   21.4994   67.8314 O   0  0  0  0  0
    3.3273   21.6002   66.3028 O   0  0  0  0  0
    0.6702   29.5143   62.6195 N   0  0  0  0  0
  1 14  1  0  0  0
  2 14  1  0  0  0
  3  4  1  0  0  0
  4 18  1  0  0  0
  5  6  1  0  0  0
  5 17  1  0  0  0
  7  2  1  0  0  0
  8  7  1  0  0  0
  8  9  1  0  0  0
  8 22  1  0  0  0
  9 16  1  0  0  0
 10 17  1  0  0  0
 11 18  1  0  0  0
 12 13  1  0  0  0
 12 21  1  0  0  0
 13 20  1  0  0  0
  2  3  2  0  0  0
  4  5  2  0  0  0
  6  7  2  0  0  0
  9 15  2  0  0  0
 11 12  2  0  0  0
 13 19  2  0  0  0
M  END
> <rmsd>
0.603135228

$$$$
PubChem-14676336


 35 38  0  0  0  0  0  0  0  0999 V2000
    5.1830   28.1081   65.8004 C   0  0  0  0  0
    4.3886   26.9249   66.3470 C   0  0  0  0  0
    5.3436   25.8020   66.7340 C   0  0  0  0  0
    5.1698   24.4534   66.1844 C   0  0  0  0  0
    4.0291   24.2082   65.2299 C   0  0  0  0  0
    4.2622   22.9725   64.2665 C   0  0  0  0  0
    4.3879   21.6318   65.0481 C   0  0  0  0  0
    4.4823   20.4314   64.1080 C   0  0  0  0  0
    3.2244   20.3328   63.2496 C   0  0  0  0  0
    3.0110   21.5826   62.3953 C   0  0  0  0  0
    3.0658   22.8648   63.2730 C   0  0  0  0  0
    2.7319   24.1720   62.5298 C   0  0  0  0  0
    2.5639   25.3409   63.5109 C   0  0  0  0  0
    3.7672   25.5438   64.4562 C   0  0  0  0  0
    4.9721   26.0152   63.6206 C   0  0  0  0  0
    1.0060   26.7569   62.2070 C   0  0  0  0  0
    0.7582   28.0202   61.4591 C   0  0  0  0  0
    1.6451   28.0658   60.1992 C   0  0  0  0  0
    1.6692   30.3367   60.2922 C   0  0  0  0  0
    0.7694   30.2939   61.5417 C   0  0  0  0  0
    1.6355   21.4640   61.7649 C   0  0  0  0  0
    4.0418   21.6015   61.2745 C   0  0  0  0  0
    5.5734   23.1478   63.4913 C   0  0  0  0  0
    3.6393   27.3798   67.5736 C   0  0  0  0  0
    4.2333   27.8973   68.6523 C   0  0  0  0  0
    6.2993   26.0285   67.5263 O   0  0  0  0  0
    5.9252   23.5180   66.5643 O   0  0  0  0  0
    3.3942   26.5593   65.3850 O   0  0  0  0  0
    2.2432   26.5474   62.8223 O   0  0  0  0  0
    0.0964   25.8870   62.2723 O   0  0  0  0  0
    2.4908   29.1931   60.2225 O   0  0  0  0  0
    1.0109   29.1276   62.2960 O   0  0  0  0  0
    3.6819   24.4696   61.5485 O   0  0  0  0  0
    3.3319   21.4289   65.9417 O   0  0  0  0  0
    2.8926   23.9634   66.0127 O   0  0  0  0  0
  2  1  1  0  0  0
  2  3  1  0  0  0
  2 24  1  0  0  0
  2 28  1  0  0  0
  3  4  1  0  0  0
  5  4  1  0  0  0
  5  6  1  0  0  0
  5 35  1  0  0  0
  6  7  1  0  0  0
  6 23  1  0  0  0
  7  8  1  0  0  0
  7 34  1  0  0  0
  8  9  1  0  0  0
  9 10  1  0  0  0
 10 21  1  0  0  0
 10 22  1  0  0  0
 11 10  1  0  0  0
 11 12  1  0  0  0
 11  6  1  0  0  0
 12 13  1  0  0  0
 12 33  1  0  0  0
 13 14  1  0  0  0
 13 29  1  0  0  0
 14 28  1  0  0  0
 14 15  1  0  0  0
 14  5  1  0  0  0
 16 29  1  0  0  0
 17 16  1  0  0  0
 17 18  1  0  0  0
 17 32  1  0  0  0
 18 31  1  0  0  0
 19 31  1  0  0  0
 19 20  1  0  0  0
 20 32  1  0  0  0
  3 26  2  0  0  0
  4 27  2  0  0  0
 16 30  2  0  0  0
 24 25  2  0  0  0
M  END
> <rmsd>
0.63861841

$$$$
PubChem-44287375 CHEMBL416624


 28 32  0  0  0  0  0  0  0  0999 V2000
    5.5050   20.4507   66.7513 N   0  0  0  0  0
    3.4773   21.3409   65.7641 N   0  0  0  0  0
    3.0221   23.6771   65.7200 N   0  0  0  0  0
    6.1221   23.3259   67.3181 N   0  0  0  0  0
    4.7508   25.0302   66.7407 N   0  0  0  0  0
    4.6682   21.5475   66.3997 C   0  0  0  0  0
    2.6600   22.3907   65.4260 C   0  0  0  0  0
    4.2071   23.8717   66.3482 C   0  0  0  0  0
    5.0273   22.8559   66.6911 C   0  0  0  0  0
    5.9174   24.6740   67.3347 C   0  0  0  0  0
    4.2148   26.3805   66.6265 C   0  0  0  0  0
    3.0207   26.5573   67.5420 C   0  0  0  0  0
    2.0069   27.2523   66.6845 C   0  0  0  0  0
    2.7606   27.5506   65.4120 C   0  0  0  0  0
    1.8319   27.4182   64.2202 C   0  0  0  0  0
   -0.5414   27.0949   60.6167 C   0  0  0  0  0
    0.2946   26.9711   59.3739 C   0  0  0  0  0
   -0.1589   26.2131   58.2906 C   0  0  0  0  0
    0.5942   26.1582   57.1139 C   0  0  0  0  0
    1.7960   26.8676   57.0165 C   0  0  0  0  0
    2.2557   27.6226   58.1008 C   0  0  0  0  0
    1.5148   27.6689   59.2852 C   0  0  0  0  0
    2.5041   27.7962   63.0559 O   0  0  0  0  0
    0.5415   29.3991   62.3382 O   0  0  0  0  0
    0.2128   26.8407   61.7757 O   0  0  0  0  0
    2.0019   28.3844   60.3814 O   0  0  0  0  0
    3.8196   26.6379   65.3044 O   0  0  0  0  0
    1.2908   28.1508   61.9274 P   0  0  0  0  0
  1  6  1  0  0  0
  5  8  1  0  0  0
  7  2  1  0  0  0
  8  3  1  0  0  0
  9  4  1  0  0  0
  9  6  1  0  0  0
 10  5  1  0  0  0
 11  5  1  0  0  0
 11 12  1  0  0  0
 11 27  1  0  0  0
 12 13  1  0  0  0
 13 14  1  0  0  0
 14 15  1  0  0  0
 14 27  1  0  0  0
 15 23  1  0  0  0
 16 25  1  0  0  0
 16 17  1  0  0  0
 18 19  1  0  0  0
 20 21  1  0  0  0
 22 26  1  0  0  0
 22 17  1  0  0  0
 28 23  1  0  0  0
 28 25  1  0  0  0
 28 26  1  0  0  0
  6  2  2  0  0  0
  7  3  2  0  0  0
  8  9  2  0  0  0
 10  4  2  0  0  0
 17 18  2  0  0  0
 19 20  2  0  0  0
 21 22  2  0  0  0
 28 24  2  0  0  0
M  END
> <rmsd>
0.626055658

$$$$
PubChem-73981785


 32 35  0  0  0  0  0  0  0  0999 V2000
    2.3557   23.7555   73.6206 C   0  0  0  0  0
    3.4892   22.3538   71.9270 C   0  0  0  0  0
    3.5157   23.3949   70.9851 C   0  0  0  0  0
    4.0813   23.1891   69.7243 C   0  0  0  0  0
    4.6265   21.9399   69.3904 C   0  0  0  0  0
    4.6003   20.9040   70.3297 C   0  0  0  0  0
    4.0344   21.1102   71.5911 C   0  0  0  0  0
    5.2413   21.6862   68.0458 C   0  0  0  0  0
    6.4992   22.5293   67.8213 C   0  0  0  0  0
    5.1383   24.1797   66.5859 C   0  0  0  0  0
    5.0687   25.4586   66.0289 C   0  0  0  0  0
    4.0568   25.7852   65.1240 C   0  0  0  0  0
    3.1039   24.8147   64.7798 C   0  0  0  0  0
    3.1533   23.5351   65.3382 C   0  0  0  0  0
    4.1725   23.2087   66.2563 C   0  0  0  0  0
    4.2555   21.8902   66.9300 C   0  0  0  0  0
    3.0431   27.5523   63.6614 C   0  0  0  0  0
    1.6529   27.6045   64.3045 C   0  0  0  0  0
    0.6470   28.1910   63.3127 C   0  0  0  0  0
    0.7588   27.4969   61.9537 C   0  0  0  0  0
    2.2248   27.3462   61.5071 C   0  0  0  0  0
    2.8284   28.6379   60.9582 C   0  0  0  0  0
    2.9308   22.5272   73.1963 O   0  0  0  0  0
    6.1667   23.8770   67.4849 O   0  0  0  0  0
    3.5031   20.9368   66.5959 O   0  0  0  0  0
    2.1806   22.6096   64.9792 O   0  0  0  0  0
    4.0259   27.0793   64.5849 O   0  0  0  0  0
    3.0376   26.7470   62.4996 O   0  0  0  0  0
    2.1590   29.0208   59.7959 O   0  0  0  0  0
    0.1582   26.2390   62.0181 O   0  0  0  0  0
    0.8467   29.5659   63.1601 O   0  0  0  0  0
    1.6838   28.3692   65.4727 O   0  0  0  0  0
  1 23  1  0  0  0
  2 23  1  0  0  0
  3  4  1  0  0  0
  5  6  1  0  0  0
  7  2  1  0  0  0
  8  5  1  0  0  0
  8  9  1  0  0  0
  8 16  1  0  0  0
  9 24  1  0  0  0
 10 24  1  0  0  0
 11 12  1  0  0  0
 12 27  1  0  0  0
 13 14  1  0  0  0
 14 26  1  0  0  0
 15 16  1  0  0  0
 15 10  1  0  0  0
 17 27  1  0  0  0
 17 18  1  0  0  0
 17 28  1  0  0  0
 18 19  1  0  0  0
 18 32  1  0  0  0
 19 20  1  0  0  0
 19 31  1  0  0  0
 20 21  1  0  0  0
 20 30  1  0  0  0
 21 28  1  0  0  0
 21 22  1  0  0  0
 22 29  1  0  0  0
  2  3  2  0  0  0
  4  5  2  0  0  0
  6  7  2  0  0  0
 10 11  2  0  0  0
 12 13  2  0  0  0
 14 15  2  0  0  0
 16 25  2  0  0  0
M  END
> <rmsd>
0.71663779

$$$$
PubChem-20843254


 15 14  0  0  0  0  0  0  0  0999 V2000
    5.4381   25.0780   63.7583 C   0  0  0  0  0
    2.6317   25.6247   63.0510 C   0  0  0  0  0
    3.0195   26.9844   62.4974 C   0  0  0  0  0
    2.0751   27.3911   61.3775 C   0  0  0  0  0
    0.7468   27.8131   61.9185 C   0  0  0  0  0
    3.7447   25.1661   64.4096 P   0  0  0  0  0
    4.0242   23.3780   66.4948 P   0  0  0  0  0
    3.6604   26.2287   65.4841 O   0  0  0  0  0
    0.6556   28.7978   62.6991 O   0  0  0  0  0
   -0.3959   27.1135   61.5558 O   0  0  0  0  0
    3.2515   23.6452   65.0003 O   0  0  0  0  0
    3.4357   24.2848   67.5523 O   0  0  0  0  0
    3.7673   21.7711   66.9537 O   0  0  0  0  0
    5.6913   23.6468   66.3814 O   0  0  0  0  0
    2.6641   28.4791   60.6169 N   0  0  0  0  0
  1  6  1  0  0  0
  2  3  1  0  0  0
  3  4  1  0  0  0
  4  5  1  0  0  0
  4 15  1  0  0  0
  5 10  1  0  0  0
  6  2  1  0  0  0
  6 11  1  0  0  0
  7 11  1  0  0  0
  7 13  1  0  0  0
  7 14  1  0  0  0
  5  9  2  0  0  0
  6  8  2  0  0  0
  7 12  2  0  0  0
M  END
> <rmsd>
0.717594206

$$$$
PubChem-54309661


 29 32  0  0  0  0  0  0  0  0999 V2000
    1.5854   23.0399   59.6789 C   0  0  0  0  0
    1.4454   24.2846   59.0590 C   0  0  0  0  0
    0.4250   25.1529   59.4567 C   0  0  0  0  0
   -0.4611   24.7758   60.4697 C   0  0  0  0  0
   -0.3170   23.5318   61.0934 C   0  0  0  0  0
    0.7043   22.6632   60.6968 C   0  0  0  0  0
   -1.5175   25.7216   60.9220 C   0  0  0  0  0
   -1.4313   27.7812   61.7350 C   0  0  0  0  0
   -0.2175   28.7025   61.7005 C   0  0  0  0  0
    0.6634   28.3908   60.5026 C   0  0  0  0  0
    1.9724   27.9911   61.1279 C   0  0  0  0  0
    1.8755   28.5659   62.5175 C   0  0  0  0  0
    3.7252   28.2019   64.1808 C   0  0  0  0  0
    3.4899   26.1493   64.6755 C   0  0  0  0  0
    2.5277   26.4834   63.7900 C   0  0  0  0  0
    1.6778   24.3138   63.8032 C   0  0  0  0  0
    3.5747   24.8490   65.1550 C   0  0  0  0  0
   -1.0477   26.4645   62.0057 O   0  0  0  0  0
    0.5226   28.5823   62.8946 O   0  0  0  0  0
    5.7095   22.9568   67.3873 O   0  0  0  0  0
    4.0615   22.1145   66.0846 O   0  0  0  0  0
    3.0735   28.5235   60.4504 O   0  0  0  0  0
    0.7996   29.5450   59.7269 O   0  0  0  0  0
    2.6577   27.7744   63.4604 N   0  0  0  0  0
    4.2679   27.2137   64.9463 N   0  0  0  0  0
    1.6117   25.5961   63.3342 N   0  0  0  0  0
    2.6476   23.9503   64.7024 N   0  0  0  0  0
    4.5938   24.4788   66.0922 N   0  0  0  0  0
    4.7989   23.1721   66.5641 N   0  0  0  0  0
  2  3  1  0  0  0
  4  5  1  0  0  0
  6  1  1  0  0  0
  7  4  1  0  0  0
  7 18  1  0  0  0
  8 18  1  0  0  0
  9  8  1  0  0  0
  9 10  1  0  0  0
  9 19  1  0  0  0
 10 11  1  0  0  0
 10 23  1  0  0  0
 11 12  1  0  0  0
 11 22  1  0  0  0
 12 19  1  0  0  0
 12 24  1  0  0  0
 14 25  1  0  0  0
 15 26  1  0  0  0
 15 24  1  0  0  0
 16 27  1  0  0  0
 17 28  1  0  0  0
 17 14  1  0  0  0
 24 13  1  0  0  0
 28 29  1  0  0  0
 29 21  1  0  0  0
  1  2  2  0  0  0
  3  4  2  0  0  0
  5  6  2  0  0  0
 13 25  2  0  0  0
 14 15  2  0  0  0
 16 26  2  0  0  0
 17 27  2  0  0  0
 29 20  2  0  0  0
M  CHG  2  29   1  21  -1
M  END
> <rmsd>
0.807365716

$$$$
PubChem-121257605


 35 38  0  0  0  0  0  0  0  0999 V2000
    6.9347   24.9175   65.6770 C   0  0  0  0  0
    7.0863   24.5179   67.1446 C   0  0  0  0  0
    5.1445   23.0431   66.8093 C   0  0  0  0  0
    4.3535   21.9756   67.2259 C   0  0  0  0  0
    2.6908   22.5764   65.6453 C   0  0  0  0  0
    4.6789   23.8639   65.7770 C   0  0  0  0  0
    5.0125   26.0325   64.5171 C   0  0  0  0  0
    5.5646   28.0939   63.1349 C   0  0  0  0  0
    4.0251   29.0508   61.5875 C   0  0  0  0  0
    4.9021   30.1102   61.3432 C   0  0  0  0  0
    6.1292   30.1488   62.0074 C   0  0  0  0  0
    6.4668   29.1358   62.9068 C   0  0  0  0  0
    1.8608   27.9540   61.1232 C   0  0  0  0  0
    1.1391   28.1318   62.4519 C   0  0  0  0  0
    0.3441   26.8833   62.8046 C   0  0  0  0  0
    1.3715   22.3382   65.0304 C   0  0  0  0  0
    0.5747   21.2624   65.4496 C   0  0  0  0  0
   -0.6854   21.0378   64.8756 C   0  0  0  0  0
   -1.1447   21.8987   63.8693 C   0  0  0  0  0
   -0.3572   22.9722   63.4455 C   0  0  0  0  0
    0.8951   23.1909   64.0239 C   0  0  0  0  0
   -1.5402   19.8832   65.3133 C   0  0  0  0  0
    6.3860   23.2981   67.3996 O   0  0  0  0  0
    3.7821   26.1075   64.2481 O   0  0  0  0  0
    2.7996   29.0027   60.9189 O   0  0  0  0  0
   -0.6530   26.6465   61.8548 O   0  0  0  0  0
    0.2930   29.2405   62.3924 O   0  0  0  0  0
    3.1459   21.7628   66.6400 N   0  0  0  0  0
    3.4631   23.6142   65.2203 N   0  0  0  0  0
    5.5161   24.9428   65.3114 N   0  0  0  0  0
    5.9105   27.0515   64.0534 N   0  0  0  0  0
    4.3772   28.0738   62.4688 N   0  0  0  0  0
   -2.7913   20.3446   65.6826 F   0  0  0  0  0
   -1.6778   18.9888   64.2672 F   0  0  0  0  0
   -0.9734   19.2260   66.3924 F   0  0  0  0  0
  1  2  1  0  0  0
  1 30  1  0  0  0
  2 23  1  0  0  0
  3 23  1  0  0  0
  4 28  1  0  0  0
  5 29  1  0  0  0
  5 16  1  0  0  0
  6 30  1  0  0  0
  6  3  1  0  0  0
  7 31  1  0  0  0
  9 32  1  0  0  0
  9 25  1  0  0  0
 10 11  1  0  0  0
 12  8  1  0  0  0
 13 25  1  0  0  0
 13 14  1  0  0  0
 14 15  1  0  0  0
 14 27  1  0  0  0
 15 26  1  0  0  0
 17 18  1  0  0  0
 19 20  1  0  0  0
 21 16  1  0  0  0
 22 18  1  0  0  0
 22 33  1  0  0  0
 22 34  1  0  0  0
 22 35  1  0  0  0
 30  7  1  0  0  0
 31  8  1  0  0  0
  3  4  2  0  0  0
  5 28  2  0  0  0
  6 29  2  0  0  0
  7 24  2  0  0  0
  8 32  2  0  0  0
  9 10  2  0  0  0
 11 12  2  0  0  0
 16 17  2  0  0  0
 18 19  2  0  0  0
 20 21  2  0  0  0
M  END
> <rmsd>
0.666475475

$$$$
PubChem-156601032


 28 32  0  0  0  0  0  0  0  0999 V2000
    1.6213   22.0002   65.6452 C   0  0  0  0  0
    3.3403   23.8065   65.6004 C   0  0  0  0  0
    3.7099   25.1327   65.2203 C   0  0  0  0  0
    5.0014   25.6098   65.5550 C   0  0  0  0  0
    5.9257   24.8109   66.2429 C   0  0  0  0  0
    5.5307   23.5271   66.5892 C   0  0  0  0  0
    4.2996   23.0415   66.2864 C   0  0  0  0  0
    5.4405   21.3994   67.3942 C   0  0  0  0  0
    2.8055   26.0613   64.4872 C   0  0  0  0  0
    1.6276   25.6569   63.9929 C   0  0  0  0  0
    0.8002   26.5789   63.2083 C   0  0  0  0  0
    2.2913   28.4681   63.8688 C   0  0  0  0  0
    2.9679   29.4869   62.9818 C   0  0  0  0  0
    1.9682   29.7268   61.8526 C   0  0  0  0  0
    3.3133   30.7778   63.6756 C   0  0  0  0  0
    2.9443   31.0265   65.0074 C   0  0  0  0  0
    3.2955   32.2376   65.6047 C   0  0  0  0  0
    4.0104   33.1892   64.8771 C   0  0  0  0  0
    4.3648   32.9109   63.5561 C   0  0  0  0  0
    2.0648   23.3050   65.3003 O   0  0  0  0  0
    4.2026   21.7455   66.7604 O   0  0  0  0  0
    6.2597   22.5669   67.2617 O   0  0  0  0  0
   -0.2567   26.1733   62.6575 O   0  0  0  0  0
    2.6394   29.7835   60.6317 O   0  0  0  0  0
    1.2444   27.9251   63.0309 N   0  0  0  0  0
    3.2300   27.4188   64.2631 N   0  0  0  0  0
    1.0123   28.6203   61.8379 N   0  0  0  0  0
    4.0136   31.7246   62.9907 N   0  0  0  0  0
  1 20  1  0  0  0
  2 20  1  0  0  0
  3  4  1  0  0  0
  3  9  1  0  0  0
  5  6  1  0  0  0
  6 22  1  0  0  0
  7 21  1  0  0  0
  7  2  1  0  0  0
  8 21  1  0  0  0
  8 22  1  0  0  0
 10 11  1  0  0  0
 11 25  1  0  0  0
 12 25  1  0  0  0
 12 26  1  0  0  0
 12 13  1  0  0  0
 13 14  1  0  0  0
 13 15  1  0  0  0
 14 27  1  0  0  0
 14 24  1  0  0  0
 15 28  1  0  0  0
 16 17  1  0  0  0
 18 19  1  0  0  0
 26  9  1  0  0  0
 27 25  1  0  0  0
  2  3  2  0  0  0
  4  5  2  0  0  0
  6  7  2  0  0  0
  9 10  2  0  0  0
 11 23  2  0  0  0
 15 16  2  0  0  0
 17 18  2  0  0  0
 19 28  2  0  0  0
M  END
> <rmsd>
0.764559567

$$$$
PubChem-123982342


 26 28  0  0  0  0  0  0  0  0999 V2000
    5.5588   20.8872   68.0192 C   0  0  0  0  0
    4.6415   21.6196   67.1046 C   0  0  0  0  0
    4.9477   22.8838   66.6185 C   0  0  0  0  0
    4.0873   23.5129   65.7900 C   0  0  0  0  0
    2.5997   21.7192   65.8675 C   0  0  0  0  0
    5.7861   24.7637   66.0920 C   0  0  0  0  0
    4.0107   25.6772   64.5358 C   0  0  0  0  0
    4.6967   25.6138   63.1927 C   0  0  0  0  0
    4.7128   27.0383   62.7336 C   0  0  0  0  0
    4.2684   27.8332   63.9453 C   0  0  0  0  0
    2.9575   28.5638   63.6694 C   0  0  0  0  0
   -0.7003   26.5849   62.6959 C   0  0  0  0  0
   -0.3983   25.1495   63.0791 C   0  0  0  0  0
   -2.1791   26.7234   62.3965 C   0  0  0  0  0
    2.9131   22.9638   65.3949 N   0  0  0  0  0
    3.4580   21.0601   66.7126 N   0  0  0  0  0
    1.3771   21.1037   65.4805 N   0  0  0  0  0
    4.5888   24.7033   65.4520 N   0  0  0  0  0
    6.0366   23.6471   66.8333 N   0  0  0  0  0
    4.1377   26.9771   65.0552 O   0  0  0  0  0
    1.9162   27.6497   63.4792 O   0  0  0  0  0
    0.3490   29.4228   62.3344 O   0  0  0  0  0
    2.2372   28.4178   60.8283 O   0  0  0  0  0
    0.0400   26.9322   61.5628 O   0  0  0  0  0
    1.1153   28.1460   62.0666 P   0  0  0  0  0
    3.7264   24.6308   62.0706 Cl  0  0  0  0  0
  1  2  1  0  0  0
  2 16  1  0  0  0
  3  4  1  0  0  0
  3 19  1  0  0  0
  4 18  1  0  0  0
  5 15  1  0  0  0
  5 17  1  0  0  0
  7 18  1  0  0  0
  7  8  1  0  0  0
  7 20  1  0  0  0
  8  9  1  0  0  0
  8 26  1  0  0  0
  9 10  1  0  0  0
 10 20  1  0  0  0
 10 11  1  0  0  0
 11 21  1  0  0  0
 12 24  1  0  0  0
 12 13  1  0  0  0
 12 14  1  0  0  0
 18  6  1  0  0  0
 25 21  1  0  0  0
 25 23  1  0  0  0
 25 24  1  0  0  0
  2  3  2  0  0  0
  4 15  2  0  0  0
  5 16  2  0  0  0
  6 19  2  0  0  0
 25 22  2  0  0  0
M  END
> <rmsd>
0.591701746

$$$$
PubChem-102028525


 34 36  0  0  0  0  0  0  0  0999 V2000
   -4.0137   32.6392   59.7410 C   0  0  0  0  0
   -2.5698   33.0874   59.6431 C   0  0  0  0  0
   -1.7298   32.2670   60.5601 C   0  0  0  0  0
   -0.7178   31.5484   60.0787 C   0  0  0  0  0
    0.1288   30.7240   60.9898 C   0  0  0  0  0
   -0.6288   29.4898   61.4459 C   0  0  0  0  0
    0.1243   27.4386   61.8287 C   0  0  0  0  0
    1.4270   27.0482   61.1272 C   0  0  0  0  0
    2.5849   26.9244   62.1224 C   0  0  0  0  0
    2.1521   26.0811   63.3473 C   0  0  0  0  0
    0.7754   26.5705   63.8650 C   0  0  0  0  0
    0.2766   25.7319   65.0285 C   0  0  0  0  0
    3.2701   26.1865   64.3954 C   0  0  0  0  0
    3.5687   28.5287   63.7513 C   0  0  0  0  0
    3.1882   28.2810   62.4899 C   0  0  0  0  0
    3.4409   29.3160   61.4655 C   0  0  0  0  0
    4.0777   31.6295   60.9130 C   0  0  0  0  0
    3.9197   24.3568   65.4804 C   0  0  0  0  0
    4.5096   24.0615   66.8679 C   0  0  0  0  0
    3.4949   23.3619   67.7816 C   0  0  0  0  0
    2.7174   22.2695   67.0456 C   0  0  0  0  0
    2.2396   22.8053   65.6901 C   0  0  0  0  0
    1.4081   21.7762   64.9433 C   0  0  0  0  0
    0.1690   28.7509   62.3194 O   0  0  0  0  0
   -0.1986   26.5138   62.8450 O   0  0  0  0  0
    3.4777   27.5498   64.7450 O   0  0  0  0  0
    3.3008   29.0442   60.2411 O   0  0  0  0  0
    3.8446   30.5956   61.8567 O   0  0  0  0  0
    3.0110   25.4229   65.5364 O   0  0  0  0  0
    3.3358   23.2045   64.8986 O   0  0  0  0  0
    0.1929   21.5812   65.5995 O   0  0  0  0  0
    3.5303   21.1456   66.8728 O   0  0  0  0  0
    2.6086   24.3004   68.3120 O   0  0  0  0  0
    5.6518   23.2711   66.7348 O   0  0  0  0  0
  1  2  1  0  0  0
  2  3  1  0  0  0
  5  4  1  0  0  0
  5  6  1  0  0  0
  6 24  1  0  0  0
  7 24  1  0  0  0
  7  8  1  0  0  0
  7 25  1  0  0  0
  8  9  1  0  0  0
  9 10  1  0  0  0
  9 15  1  0  0  0
 10 11  1  0  0  0
 10 13  1  0  0  0
 11 25  1  0  0  0
 11 12  1  0  0  0
 13 26  1  0  0  0
 13 29  1  0  0  0
 14 26  1  0  0  0
 15 16  1  0  0  0
 16 28  1  0  0  0
 17 28  1  0  0  0
 18 29  1  0  0  0
 18 19  1  0  0  0
 18 30  1  0  0  0
 19 20  1  0  0  0
 19 34  1  0  0  0
 20 21  1  0  0  0
 20 33  1  0  0  0
 21 22  1  0  0  0
 21 32  1  0  0  0
 22 30  1  0  0  0
 22 23  1  0  0  0
 23 31  1  0  0  0
  3  4  2  0  0  0
 14 15  2  0  0  0
 16 27  2  0  0  0
M  END
> <rmsd>
0.70764184

$$$$
PubChem-156601031


 28 32  0  0  0  0  0  0  0  0999 V2000
    1.6250   21.9942   65.6410 C   0  0  0  0  0
    3.3394   23.8047   65.6023 C   0  0  0  0  0
    3.7059   25.1330   65.2262 C   0  0  0  0  0
    4.9962   25.6122   65.5627 C   0  0  0  0  0
    5.9223   24.8135   66.2487 C   0  0  0  0  0
    5.5302   23.5277   66.5910 C   0  0  0  0  0
    4.3003   23.0400   66.2864 C   0  0  0  0  0
    5.4448   21.3975   67.3897 C   0  0  0  0  0
    2.7997   26.0616   64.4955 C   0  0  0  0  0
    1.6229   25.6557   63.9995 C   0  0  0  0  0
    0.7936   26.5780   63.2173 C   0  0  0  0  0
    2.2797   28.4687   63.8841 C   0  0  0  0  0
    2.9542   29.4929   63.0016 C   0  0  0  0  0
    1.9579   29.7301   61.8684 C   0  0  0  0  0
    3.2899   30.7840   63.7004 C   0  0  0  0  0
    2.9116   31.0285   65.0303 C   0  0  0  0  0
    3.2540   32.2398   65.6322 C   0  0  0  0  0
    3.9693   33.1959   64.9110 C   0  0  0  0  0
    4.3332   32.9218   63.5917 C   0  0  0  0  0
    2.0654   23.3011   65.3002 O   0  0  0  0  0
    4.2063   21.7425   66.7566 O   0  0  0  0  0
    6.2613   22.5672   67.2610 O   0  0  0  0  0
   -0.2620   26.1717   62.6648 O   0  0  0  0  0
    1.2348   27.9258   63.0438 N   0  0  0  0  0
    3.2208   27.4207   64.2755 N   0  0  0  0  0
    1.0023   28.6235   61.8524 N   0  0  0  0  0
    2.6608   29.7865   60.5994 N   0  0  0  0  0
    3.9906   31.7351   63.0217 N   0  0  0  0  0
  1 20  1  0  0  0
  2 20  1  0  0  0
  3  4  1  0  0  0
  3  9  1  0  0  0
  5  6  1  0  0  0
  6 22  1  0  0  0
  7 21  1  0  0  0
  7  2  1  0  0  0
  8 21  1  0  0  0
  8 22  1  0  0  0
 10 11  1  0  0  0
 11 24  1  0  0  0
 12 24  1  0  0  0
 12 25  1  0  0  0
 12 13  1  0  0  0
 13 14  1  0  0  0
 13 15  1  0  0  0
 14 26  1  0  0  0
 14 27  1  0  0  0
 15 28  1  0  0  0
 16 17  1  0  0  0
 18 19  1  0  0  0
 25  9  1  0  0  0
 26 24  1  0  0  0
  2  3  2  0  0  0
  4  5  2  0  0  0
  6  7  2  0  0  0
  9 10  2  0  0  0
 11 23  2  0  0  0
 15 16  2  0  0  0
 17 18  2  0  0  0
 19 28  2  0  0  0
M  END
> <rmsd>
0.761768997

$$$$
PubChem-141050522


 28 31  0  0  0  0  0  0  0  0999 V2000
    6.8645   20.1369   68.9720 C   0  0  0  0  0
    7.8186   21.1152   69.2505 C   0  0  0  0  0
    7.6716   22.4004   68.7265 C   0  0  0  0  0
    6.5723   22.7174   67.9218 C   0  0  0  0  0
    5.5984   21.7321   67.6331 C   0  0  0  0  0
    5.7639   20.4444   68.1697 C   0  0  0  0  0
    4.4091   22.0000   66.7878 C   0  0  0  0  0
    3.0885   23.6764   65.3878 C   0  0  0  0  0
    2.9872   24.9683   64.8908 C   0  0  0  0  0
    1.9382   25.3170   64.1152 C   0  0  0  0  0
    1.0332   23.1730   64.2782 C   0  0  0  0  0
    3.1808   27.0213   64.3938 C   0  0  0  0  0
    1.0750   27.4349   63.0455 C   0  0  0  0  0
    1.7515   28.6074   62.3639 C   0  0  0  0  0
    1.9408   28.0990   60.9650 C   0  0  0  0  0
    0.8318   27.0862   60.8043 C   0  0  0  0  0
    1.3166   25.8871   60.0075 C   0  0  0  0  0
    3.5813   21.0724   66.5732 O   0  0  0  0  0
    0.3962   26.6641   62.0760 O   0  0  0  0  0
    1.5068   26.2447   58.6724 O   0  0  0  0  0
    1.8182   29.1188   60.0177 O   0  0  0  0  0
    0.8841   29.7037   62.3878 O   0  0  0  0  0
    6.4692   24.0105   67.4232 O   0  0  0  0  0
    4.1945   23.2973   66.2158 N   0  0  0  0  0
    0.9457   24.4499   63.7975 N   0  0  0  0  0
    2.0938   22.7953   65.0621 N   0  0  0  0  0
    2.0475   26.6059   63.7654 N   0  0  0  0  0
    3.7965   26.0238   65.0888 N   0  0  0  0  0
  2  3  1  0  0  0
  4  5  1  0  0  0
  4 23  1  0  0  0
  5  7  1  0  0  0
  6  1  1  0  0  0
  7 24  1  0  0  0
  8 26  1  0  0  0
  9 10  1  0  0  0
  9 28  1  0  0  0
 10 27  1  0  0  0
 11 25  1  0  0  0
 13 27  1  0  0  0
 13 14  1  0  0  0
 13 19  1  0  0  0
 14 15  1  0  0  0
 14 22  1  0  0  0
 15 16  1  0  0  0
 15 21  1  0  0  0
 16 19  1  0  0  0
 16 17  1  0  0  0
 17 20  1  0  0  0
 24  8  1  0  0  0
 27 12  1  0  0  0
  1  2  2  0  0  0
  3  4  2  0  0  0
  5  6  2  0  0  0
  7 18  2  0  0  0
  8  9  2  0  0  0
 10 25  2  0  0  0
 11 26  2  0  0  0
 12 28  2  0  0  0
M  END
> <rmsd>
0.741051733

$$$$
PubChem-143020853


 34 38  0  0  0  0  0  0  0  0999 V2000
    4.9630   32.0223   62.8518 C   0  0  0  0  0
    5.3764   30.9996   61.8102 C   0  0  0  0  0
    3.0746   30.3762   60.9462 C   0  0  0  0  0
    1.9920   29.3582   60.8218 C   0  0  0  0  0
    1.4110   29.0467   62.1858 C   0  0  0  0  0
    1.3266   27.5642   62.2173 C   0  0  0  0  0
    1.7600   27.1338   60.8323 C   0  0  0  0  0
   -0.6864   28.4357   62.6457 C   0  0  0  0  0
   -1.0721   28.5662   64.1093 C   0  0  0  0  0
   -1.9520   28.4339   61.8120 C   0  0  0  0  0
    3.0309   27.6104   64.1110 C   0  0  0  0  0
    3.2174   25.5456   64.5628 C   0  0  0  0  0
    3.5237   24.2859   65.0587 C   0  0  0  0  0
    1.9963   23.3736   63.4629 C   0  0  0  0  0
    2.3304   25.6795   63.5537 C   0  0  0  0  0
    4.8572   22.8875   66.7206 C   0  0  0  0  0
    6.2927   21.7990   68.4611 C   0  0  0  0  0
    7.2240   22.0196   69.4827 C   0  0  0  0  0
    7.7536   20.9462   70.2053 C   0  0  0  0  0
    7.3543   19.6402   69.9101 C   0  0  0  0  0
    6.4257   19.4078   68.8927 C   0  0  0  0  0
    5.8971   20.4821   68.1713 C   0  0  0  0  0
    4.3044   30.0386   61.5961 N   0  0  0  0  0
    2.1935   26.9755   63.2452 N   0  0  0  0  0
    3.6828   26.7492   64.9423 N   0  0  0  0  0
    2.8953   23.2131   64.4870 N   0  0  0  0  0
    1.7043   24.6207   62.9847 N   0  0  0  0  0
    4.4631   24.1304   66.1296 N   0  0  0  0  0
    2.8905   31.5344   60.4859 O   0  0  0  0  0
    2.5019   28.1764   60.2580 O   0  0  0  0  0
   -0.0059   27.2205   62.4455 O   0  0  0  0  0
    0.1078   29.5335   62.2677 O   0  0  0  0  0
    4.3706   21.8008   66.3048 O   0  0  0  0  0
    5.7916   22.9111   67.7662 O   0  0  0  0  0
  1  2  1  0  0  0
  2 23  1  0  0  0
  4  3  1  0  0  0
  4  5  1  0  0  0
  4 30  1  0  0  0
  5  6  1  0  0  0
  5 32  1  0  0  0
  6  7  1  0  0  0
  6 31  1  0  0  0
  6 24  1  0  0  0
  7 30  1  0  0  0
  8 31  1  0  0  0
  8 32  1  0  0  0
  8  9  1  0  0  0
  8 10  1  0  0  0
 12 25  1  0  0  0
 13 26  1  0  0  0
 13 28  1  0  0  0
 14 27  1  0  0  0
 15 24  1  0  0  0
 15 12  1  0  0  0
 16 34  1  0  0  0
 17 34  1  0  0  0
 18 19  1  0  0  0
 20 21  1  0  0  0
 22 17  1  0  0  0
 23  3  1  0  0  0
 24 11  1  0  0  0
 28 16  1  0  0  0
  3 29  2  0  0  0
 11 25  2  0  0  0
 12 13  2  0  0  0
 14 26  2  0  0  0
 15 27  2  0  0  0
 16 33  2  0  0  0
 17 18  2  0  0  0
 19 20  2  0  0  0
 21 22  2  0  0  0
M  END
> <rmsd>
0.768817484

$$$$
PubChem-58108019


 28 30  0  0  0  0  0  0  0  0999 V2000
    7.0276   24.0421   66.1797 C   0  0  0  0  0
    6.0284   22.0763   66.9378 C   0  0  0  0  0
    5.3647   20.9977   66.0936 C   0  0  0  0  0
    3.2194   21.6169   65.2413 C   0  0  0  0  0
    2.2745   22.6836   65.7800 C   0  0  0  0  0
    3.5473   23.8251   67.3933 C   0  0  0  0  0
    5.0337   24.1699   67.3823 C   0  0  0  0  0
    2.0092   24.9857   66.0685 C   0  0  0  0  0
    2.4767   26.1285   65.2343 C   0  0  0  0  0
    4.0550   27.8589   64.8348 C   0  0  0  0  0
    3.3565   28.2612   63.6943 C   0  0  0  0  0
    2.1959   27.5755   63.3266 C   0  0  0  0  0
    1.7497   26.5029   64.1022 C   0  0  0  0  0
    3.4579   19.5915   66.5233 C   0  0  0  0  0
    3.6526   18.6600   65.3475 C   0  0  0  0  0
    3.2178   17.3372   65.4699 C   0  0  0  0  0
    3.3852   16.4561   64.3999 C   0  0  0  0  0
    3.9835   16.9008   63.2203 C   0  0  0  0  0
    4.4068   18.2281   63.1306 C   0  0  0  0  0
    5.7461   23.3897   66.3773 N   0  0  0  0  0
    3.9273   20.9734   66.3441 N   0  0  0  0  0
    2.9970   23.9198   66.0474 N   0  0  0  0  0
    3.6046   26.8106   65.5755 N   0  0  0  0  0
    4.2345   19.0710   64.1843 N   0  0  0  0  0
    1.2991   28.0675   61.9030 S   0  0  0  0  0
    2.2462   28.2655   60.7527 O   0  0  0  0  0
    0.5700   29.3508   62.1852 O   0  0  0  0  0
    0.1871   26.8753   61.4942 O   0  0  0  0  0
  1 20  1  0  0  0
  2 20  1  0  0  0
  2  3  1  0  0  0
  3 21  1  0  0  0
  4 21  1  0  0  0
  4  5  1  0  0  0
  5 22  1  0  0  0
  6 22  1  0  0  0
  6  7  1  0  0  0
  7 20  1  0  0  0
  8 22  1  0  0  0
  8  9  1  0  0  0
 10 23  1  0  0  0
 11 12  1  0  0  0
 13  9  1  0  0  0
 14 21  1  0  0  0
 14 15  1  0  0  0
 15 24  1  0  0  0
 16 17  1  0  0  0
 18 19  1  0  0  0
 25 12  1  0  0  0
 25 28  1  0  0  0
  9 23  2  0  0  0
 10 11  2  0  0  0
 12 13  2  0  0  0
 15 16  2  0  0  0
 17 18  2  0  0  0
 19 24  2  0  0  0
 25 26  2  0  0  0
 25 27  2  0  0  0
M  END
> <rmsd>
0.749525368

$$$$
PubChem-59905551


 28 29  0  0  0  0  0  0  0  0999 V2000
    8.0512   23.7223   68.8627 C   0  0  0  0  0
    6.5532   23.5276   68.7535 C   0  0  0  0  0
    5.8664   24.8686   68.6796 C   0  0  0  0  0
    4.7900   24.6792   67.6545 C   0  0  0  0  0
    5.0124   23.2760   67.1324 C   0  0  0  0  0
    3.8873   22.3628   67.5922 C   0  0  0  0  0
    3.1107   20.2905   67.6411 C   0  0  0  0  0
    3.8773   19.1444   68.2710 C   0  0  0  0  0
    2.0889   19.7338   66.6708 C   0  0  0  0  0
    1.6263   26.5188   63.7399 C   0  0  0  0  0
    1.5505   27.0491   62.3153 C   0  0  0  0  0
    1.6963   28.5562   62.2163 C   0  0  0  0  0
    1.0167   28.8413   60.9096 C   0  0  0  0  0
    0.1726   27.6049   60.6513 C   0  0  0  0  0
   -1.2862   27.9977   60.5430 C   0  0  0  0  0
    1.9167   30.0077   63.8914 C   0  0  0  0  0
    1.7510   29.8567   65.3891 C   0  0  0  0  0
    1.6920   31.4572   63.5078 C   0  0  0  0  0
    6.2495   22.7935   67.5957 O   0  0  0  0  0
    3.9969   21.1234   66.9563 O   0  0  0  0  0
    2.0829   26.0268   66.6546 O   0  0  0  0  0
    2.8181   24.1066   65.0253 O   0  0  0  0  0
    2.8956   26.7688   64.2675 O   0  0  0  0  0
    0.3376   26.6941   61.7109 O   0  0  0  0  0
    1.9757   28.9634   59.9031 O   0  0  0  0  0
    0.9829   29.1974   63.2392 O   0  0  0  0  0
    5.0480   25.8786   66.3124 S   0  0  0  0  0
    3.0754   25.6913   65.5631 P   0  0  0  0  0
  2  1  1  0  0  0
  2  3  1  0  0  0
  2 19  1  0  0  0
  3  4  1  0  0  0
  4  5  1  0  0  0
  4 27  1  0  0  0
  5 19  1  0  0  0
  5  6  1  0  0  0
  6 20  1  0  0  0
  7 20  1  0  0  0
  7  8  1  0  0  0
  7  9  1  0  0  0
 10 23  1  0  0  0
 11 10  1  0  0  0
 11 12  1  0  0  0
 11 24  1  0  0  0
 12 13  1  0  0  0
 12 26  1  0  0  0
 13 14  1  0  0  0
 13 25  1  0  0  0
 14 24  1  0  0  0
 14 15  1  0  0  0
 16 26  1  0  0  0
 16 17  1  0  0  0
 16 18  1  0  0  0
 28 27  1  0  0  0
 28 22  1  0  0  0
 28 23  1  0  0  0
 28 21  2  0  0  0
M  END
> <rmsd>
0.803155184

$$$$
PubChem-88941498


 25 28  0  0  0  0  0  0  0  0999 V2000
    6.6463   28.7545   62.9450 C   0  0  0  0  0
    5.1870   28.5115   62.5998 C   0  0  0  0  0
    4.5840   27.4128   63.4685 C   0  0  0  0  0
    4.4855   27.7450   64.9482 C   0  0  0  0  0
    3.1121   26.1112   64.2691 C   0  0  0  0  0
    3.1590   27.0998   63.1516 C   0  0  0  0  0
    1.4457   28.5153   59.5435 C   0  0  0  0  0
    4.2860   25.2466   63.7953 C   0  0  0  0  0
    6.0417   24.4706   65.4553 C   0  0  0  0  0
    5.0305   22.8758   66.4247 C   0  0  0  0  0
    4.2003   23.4018   65.4995 C   0  0  0  0  0
    2.5256   21.8730   66.0442 C   0  0  0  0  0
    4.6109   21.8057   67.2019 C   0  0  0  0  0
    3.5298   26.8214   65.4297 O   0  0  0  0  0
    2.2981   28.1838   63.3851 O   0  0  0  0  0
    0.3673   29.4488   62.1664 O   0  0  0  0  0
    0.4450   26.8574   61.8156 O   0  0  0  0  0
    2.3082   28.5547   60.6401 O   0  0  0  0  0
    5.2569   26.1764   63.3443 O   0  0  0  0  0
    1.3269   28.2918   61.9997 P   0  0  0  0  0
    4.8128   24.4138   64.8766 N   0  0  0  0  0
    6.2080   23.5273   66.4259 N   0  0  0  0  0
    2.9491   22.9277   65.2828 N   0  0  0  0  0
    3.3509   21.3215   66.9922 N   0  0  0  0  0
    5.4587   21.2245   68.1863 N   0  0  0  0  0
  1  2  1  0  0  0
  3  2  1  0  0  0
  3  4  1  0  0  0
  3 19  1  0  0  0
  4 14  1  0  0  0
  5 14  1  0  0  0
  5  6  1  0  0  0
  5  8  1  0  0  0
  6 15  1  0  0  0
  6  3  1  0  0  0
  7 18  1  0  0  0
  8 19  1  0  0  0
  8 21  1  0  0  0
 10 22  1  0  0  0
 11 23  1  0  0  0
 11 21  1  0  0  0
 12 24  1  0  0  0
 13 25  1  0  0  0
 13 10  1  0  0  0
 20 15  1  0  0  0
 20 17  1  0  0  0
 20 18  1  0  0  0
 21  9  1  0  0  0
  9 22  2  0  0  0
 10 11  2  0  0  0
 12 23  2  0  0  0
 13 24  2  0  0  0
 20 16  2  0  0  0
M  END
> <rmsd>
0.629968941

$$$$
PubChem-88941498


 25 28  0  0  0  0  0  0  0  0999 V2000
    6.6866   28.7624   62.9744 C   0  0  0  0  0
    5.2296   28.5255   62.6156 C   0  0  0  0  0
    4.6152   27.4268   63.4762 C   0  0  0  0  0
    4.5049   27.7555   64.9559 C   0  0  0  0  0
    3.1315   26.1287   64.2603 C   0  0  0  0  0
    3.1920   27.1202   63.1459 C   0  0  0  0  0
   -0.2194   26.9447   60.6393 C   0  0  0  0  0
    4.3062   25.2609   63.7943 C   0  0  0  0  0
    6.0442   24.4733   65.4675 C   0  0  0  0  0
    5.0183   22.8798   66.4234 C   0  0  0  0  0
    4.1983   23.4118   65.4924 C   0  0  0  0  0
    2.5129   21.8881   66.0180 C   0  0  0  0  0
    4.5877   21.8093   67.1939 C   0  0  0  0  0
    3.5416   26.8340   65.4265 O   0  0  0  0  0
    2.3331   28.2067   63.3746 O   0  0  0  0  0
    0.3704   29.4380   62.1727 O   0  0  0  0  0
    2.2915   28.5586   60.6300 O   0  0  0  0  0
    0.4775   26.8348   61.8435 O   0  0  0  0  0
    5.2845   26.1883   63.3545 O   0  0  0  0  0
    1.3387   28.2886   62.0042 P   0  0  0  0  0
    4.8202   24.4231   64.8779 N   0  0  0  0  0
    6.1982   23.5267   66.4368 N   0  0  0  0  0
    2.9473   22.9431   65.2634 N   0  0  0  0  0
    3.3277   21.3307   66.9719 N   0  0  0  0  0
    5.4244   21.2220   68.1841 N   0  0  0  0  0
  1  2  1  0  0  0
  3  2  1  0  0  0
  3  4  1  0  0  0
  3 19  1  0  0  0
  4 14  1  0  0  0
  5 14  1  0  0  0
  5  6  1  0  0  0
  5  8  1  0  0  0
  6 15  1  0  0  0
  6  3  1  0  0  0
  7 18  1  0  0  0
  8 19  1  0  0  0
  8 21  1  0  0  0
 10 22  1  0  0  0
 11 23  1  0  0  0
 11 21  1  0  0  0
 12 24  1  0  0  0
 13 25  1  0  0  0
 13 10  1  0  0  0
 20 15  1  0  0  0
 20 17  1  0  0  0
 20 18  1  0  0  0
 21  9  1  0  0  0
  9 22  2  0  0  0
 10 11  2  0  0  0
 12 23  2  0  0  0
 13 24  2  0  0  0
 20 16  2  0  0  0
M  END
> <rmsd>
0.628004789

$$$$
PubChem-54378575


 24 25  0  0  0  0  0  0  0  0999 V2000
   -2.2333   26.8055   65.2164 C   0  0  0  0  0
   -1.2765   27.4922   66.1820 C   0  0  0  0  0
    0.0041   27.8911   65.4533 C   0  0  0  0  0
    0.6879   26.6784   64.8142 C   0  0  0  0  0
   -0.2728   25.8709   63.9262 C   0  0  0  0  0
   -1.5847   25.5464   64.6478 C   0  0  0  0  0
    0.4510   26.1499   61.7191 C   0  0  0  0  0
    0.6428   27.2138   60.6522 C   0  0  0  0  0
    1.4801   28.3358   61.1670 C   0  0  0  0  0
    2.6114   24.8508   64.8739 C   0  0  0  0  0
    3.9542   25.5842   64.7343 C   0  0  0  0  0
    4.8156   25.3699   65.9743 C   0  0  0  0  0
    4.8853   23.8846   66.3179 C   0  0  0  0  0
    3.4647   23.3026   66.3604 C   0  0  0  0  0
    3.4797   21.8248   66.7329 C   0  0  0  0  0
   -0.5402   26.5883   62.6888 N   0  0  0  0  0
    2.6008   28.5693   60.6455 O   0  0  0  0  0
    1.0227   29.1349   62.2072 O   0  0  0  0  0
    2.8022   23.4718   65.1229 O   0  0  0  0  0
    4.1348   21.0774   65.7518 O   0  0  0  0  0
    5.5018   23.7289   67.5613 O   0  0  0  0  0
    6.1018   25.8600   65.7436 O   0  0  0  0  0
    3.7564   26.9473   64.5065 O   0  0  0  0  0
    1.4626   25.6218   66.0800 S   0  0  0  0  0
  1  2  1  0  0  0
  2  3  1  0  0  0
  3  4  1  0  0  0
  4  5  1  0  0  0
  4 24  1  0  0  0
  5  6  1  0  0  0
  5 16  1  0  0  0
  6  1  1  0  0  0
  7 16  1  0  0  0
  7  8  1  0  0  0
  8  9  1  0  0  0
  9 18  1  0  0  0
 10 24  1  0  0  0
 10 11  1  0  0  0
 10 19  1  0  0  0
 11 12  1  0  0  0
 11 23  1  0  0  0
 12 13  1  0  0  0
 12 22  1  0  0  0
 13 14  1  0  0  0
 13 21  1  0  0  0
 14 19  1  0  0  0
 14 15  1  0  0  0
 15 20  1  0  0  0
  9 17  2  0  0  0
M  END
> <rmsd>
0.612155259

$$$$
PubChem-146604628


 35 38  0  0  0  0  0  0  0  0999 V2000
   -0.6538   22.0975   60.2522 C   0  0  0  0  0
   -1.5027   24.3874   60.6655 C   0  0  0  0  0
   -2.8365   23.9878   60.4758 C   0  0  0  0  0
   -3.8763   24.9145   60.5854 C   0  0  0  0  0
   -3.5934   26.2490   60.8837 C   0  0  0  0  0
   -2.2711   26.6563   61.0746 C   0  0  0  0  0
   -1.2245   25.7314   60.9715 C   0  0  0  0  0
    0.1858   26.1880   61.1803 C   0  0  0  0  0
    0.0447   27.7564   63.1545 C   0  0  0  0  0
    1.2033   28.5304   63.6899 C   0  0  0  0  0
    2.7961   26.6545   64.2384 C   0  0  0  0  0
    1.8466   25.5043   64.3214 C   0  0  0  0  0
    0.7857   25.4086   63.4863 C   0  0  0  0  0
    2.1457   24.4135   65.2886 C   0  0  0  0  0
    3.1874   23.6941   67.4863 C   0  0  0  0  0
    4.3656   22.9220   67.0004 C   0  0  0  0  0
    3.5421   28.5487   62.7780 C   0  0  0  0  0
    3.8767   27.8145   61.5172 C   0  0  0  0  0
    4.7433   26.7162   61.5759 C   0  0  0  0  0
    5.0395   25.9876   60.4223 C   0  0  0  0  0
    4.4681   26.3515   59.2019 C   0  0  0  0  0
    3.6018   27.4450   59.1354 C   0  0  0  0  0
    3.2987   28.1861   60.2901 C   0  0  0  0  0
    1.8084   29.7148   59.0339 C   0  0  0  0  0
   -0.4498   23.4713   60.5519 O   0  0  0  0  0
    0.6312   28.8110   62.4330 O   0  0  0  0  0
    3.9357   26.5509   64.7697 O   0  0  0  0  0
   -0.0270   24.2780   63.5033 O   0  0  0  0  0
    1.8121   23.2227   65.0379 O   0  0  0  0  0
    4.2229   21.7315   66.6197 O   0  0  0  0  0
    5.6176   23.5202   66.9510 O   0  0  0  0  0
    2.4376   29.2883   60.2345 O   0  0  0  0  0
    0.4491   26.4724   62.5883 N   0  0  0  0  0
    2.4850   27.8514   63.5047 N   0  0  0  0  0
    2.8188   24.7144   66.5157 N   0  0  0  0  0
  1 25  1  0  0  0
  2 25  1  0  0  0
  3  4  1  0  0  0
  5  6  1  0  0  0
  7  2  1  0  0  0
  8  7  1  0  0  0
  8 33  1  0  0  0
  9 33  1  0  0  0
  9 10  1  0  0  0
  9 26  1  0  0  0
 10 26  1  0  0  0
 10 34  1  0  0  0
 11 12  1  0  0  0
 12 14  1  0  0  0
 13 28  1  0  0  0
 13 33  1  0  0  0
 14 35  1  0  0  0
 15 35  1  0  0  0
 15 16  1  0  0  0
 16 31  1  0  0  0
 17 34  1  0  0  0
 17 18  1  0  0  0
 19 20  1  0  0  0
 21 22  1  0  0  0
 23 32  1  0  0  0
 23 18  1  0  0  0
 24 32  1  0  0  0
 34 11  1  0  0  0
  2  3  2  0  0  0
  4  5  2  0  0  0
  6  7  2  0  0  0
 11 27  2  0  0  0
 12 13  2  0  0  0
 14 29  2  0  0  0
 16 30  2  0  0  0
 18 19  2  0  0  0
 20 21  2  0  0  0
 22 23  2  0  0  0
M  END
> <rmsd>
0.61732018

$$$$
PubChem-90203874 CHEMBL3918459


 32 35  0  0  0  0  0  0  0  0999 V2000
    7.2962   20.9269   65.2662 C   0  0  0  0  0
    6.1611   21.4770   66.0527 C   0  0  0  0  0
    4.9244   22.7353   67.1649 C   0  0  0  0  0
    4.3378   23.9589   67.8295 C   0  0  0  0  0
    5.4169   24.6522   68.6498 C   0  0  0  0  0
    3.1564   23.6130   68.7508 C   0  0  0  0  0
    3.5375   22.6796   69.8933 C   0  0  0  0  0
    2.2737   22.1877   70.5678 C   0  0  0  0  0
    3.0862   23.2936   71.2027 C   0  0  0  0  0
    2.8593   24.6417   65.8389 C   0  0  0  0  0
    2.5230   25.6713   64.8444 C   0  0  0  0  0
    2.9087   27.8364   63.9443 C   0  0  0  0  0
    1.9270   27.6440   62.9621 C   0  0  0  0  0
    1.2110   26.4321   62.9519 C   0  0  0  0  0
    1.5209   25.4432   63.8959 C   0  0  0  0  0
   -0.5633   25.0324   61.9334 C   0  0  0  0  0
   -1.5708   25.1232   60.8017 C   0  0  0  0  0
    1.5989   28.7487   61.9888 C   0  0  0  0  0
    1.7677   28.3816   60.5424 C   0  0  0  0  0
    2.7009   29.7298   61.6990 C   0  0  0  0  0
    6.1214   22.7314   66.5375 N   0  0  0  0  0
    4.2768   21.5575   67.0396 N   0  0  0  0  0
    3.8884   24.8990   66.8044 N   0  0  0  0  0
    3.1852   26.8594   64.8473 N   0  0  0  0  0
    5.0794   20.8045   66.3521 O   0  0  0  0  0
    2.2445   23.5403   65.8415 O   0  0  0  0  0
    0.1999   26.2306   62.0053 O   0  0  0  0  0
    2.7915   29.3270   60.3552 O   0  0  0  0  0
    0.3797   29.3785   62.2409 O   0  0  0  0  0
   -2.3005   23.9515   60.7477 F   0  0  0  0  0
   -2.4287   26.1847   61.0222 F   0  0  0  0  0
   -0.9109   25.3049   59.6005 F   0  0  0  0  0
  1  2  1  0  0  0
  2 25  1  0  0  0
  3 21  1  0  0  0
  4  3  1  0  0  0
  4  5  1  0  0  0
  4  6  1  0  0  0
  4 23  1  0  0  0
  6  7  1  0  0  0
  7  8  1  0  0  0
  8  9  1  0  0  0
  9  7  1  0  0  0
 10 11  1  0  0  0
 12 24  1  0  0  0
 13 14  1  0  0  0
 14 27  1  0  0  0
 15 11  1  0  0  0
 16 27  1  0  0  0
 16 17  1  0  0  0
 17 30  1  0  0  0
 17 31  1  0  0  0
 17 32  1  0  0  0
 18 13  1  0  0  0
 18 19  1  0  0  0
 18 29  1  0  0  0
 19 28  1  0  0  0
 20 28  1  0  0  0
 20 18  1  0  0  0
 22 25  1  0  0  0
 23 10  1  0  0  0
  2 21  2  0  0  0
  3 22  2  0  0  0
 10 26  2  0  0  0
 11 24  2  0  0  0
 12 13  2  0  0  0
 14 15  2  0  0  0
M  END
> <rmsd>
0.588013291

$$$$
PubChem-3420994 MolPort-003-911-079


 31 36  0  0  0  0  0  0  0  0999 V2000
    5.2922   29.0517   65.9888 C   0  0  0  0  0
    5.8638   30.3164   65.3727 C   0  0  0  0  0
    6.3333   30.6619   63.0708 C   0  0  0  0  0
    5.1371   29.9545   62.4376 C   0  0  0  0  0
    4.5457   30.6250   61.2490 C   0  0  0  0  0
    3.5380   30.0664   60.5634 C   0  0  0  0  0
    2.8876   28.2494   62.2022 C   0  0  0  0  0
    4.2433   27.6773   62.6753 C   0  0  0  0  0
    5.4125   28.4822   62.1265 C   0  0  0  0  0
    6.7119   27.9838   62.7361 C   0  0  0  0  0
    6.7502   28.4746   64.1773 C   0  0  0  0  0
    5.5706   27.9464   65.0001 C   0  0  0  0  0
    4.2423   27.5899   64.2240 C   0  0  0  0  0
    4.8798   25.6954   65.4604 C   0  0  0  0  0
    4.8875   24.4568   65.9966 C   0  0  0  0  0
    6.0344   24.1080   66.8860 C   0  0  0  0  0
    7.0776   25.1267   67.1455 C   0  0  0  0  0
    6.9565   26.4502   66.5119 C   0  0  0  0  0
    5.9096   26.6803   65.7133 C   0  0  0  0  0
    1.8285   27.1528   62.2343 C   0  0  0  0  0
    0.4289   27.6872   62.1960 C   0  0  0  0  0
    6.7777   29.9533   64.2900 N   0  0  0  0  0
    3.8760   26.2298   64.6175 N   0  0  0  0  0
    3.8351   23.5050   65.7299 N   0  0  0  0  0
    2.9304   28.8351   60.8908 O   0  0  0  0  0
    6.1325   22.9645   67.4058 O   0  0  0  0  0
    8.0565   24.8728   67.8956 O   0  0  0  0  0
    3.0079   23.6984   64.8149 O   0  0  0  0  0
    3.7307   22.3524   66.4735 O   0  0  0  0  0
    0.1996   28.9263   62.1789 O   0  0  0  0  0
   -0.6349   26.7958   62.1869 O   0  0  0  0  0
  1  2  1  0  0  0
  2 22  1  0  0  0
  3 22  1  0  0  0
  4  3  1  0  0  0
  4  5  1  0  0  0
  6 25  1  0  0  0
  7 25  1  0  0  0
  7 20  1  0  0  0
  8  7  1  0  0  0
  8  9  1  0  0  0
  9 10  1  0  0  0
  9  4  1  0  0  0
 11 10  1  0  0  0
 11 12  1  0  0  0
 11 22  1  0  0  0
 12 13  1  0  0  0
 12  1  1  0  0  0
 12 19  1  0  0  0
 13 23  1  0  0  0
 13  8  1  0  0  0
 15 16  1  0  0  0
 15 24  1  0  0  0
 16 17  1  0  0  0
 17 18  1  0  0  0
 19 14  1  0  0  0
 20 21  1  0  0  0
 21 31  1  0  0  0
 23 14  1  0  0  0
 24 29  1  0  0  0
  5  6  2  0  0  0
 14 15  2  0  0  0
 16 26  2  0  0  0
 17 27  2  0  0  0
 18 19  2  0  0  0
 21 30  2  0  0  0
 24 28  2  0  0  0
M  CHG  2  24   1  29  -1
M  END
> <rmsd>
0.680819869

$$$$
PubChem-100955587


 34 38  0  0  0  0  0  0  0  0999 V2000
    4.7269   28.8650   61.5771 C   0  0  0  0  0
    3.2382   28.8802   61.8817 C   0  0  0  0  0
    1.6831   28.5206   60.3078 C   0  0  0  0  0
    0.2295   28.8427   60.7106 C   0  0  0  0  0
   -0.6367   27.5954   60.6101 C   0  0  0  0  0
    1.1548   26.0885   60.9731 C   0  0  0  0  0
    2.1981   27.2231   60.8727 C   0  0  0  0  0
    1.7055   24.9374   61.7667 C   0  0  0  0  0
    2.4314   24.0137   63.9291 C   0  0  0  0  0
    2.5148   24.4426   65.3994 C   0  0  0  0  0
    3.5856   25.5035   65.7212 C   0  0  0  0  0
    4.8539   24.9191   66.2802 C   0  0  0  0  0
    5.0646   23.4570   65.8756 C   0  0  0  0  0
    3.8126   22.6100   66.0061 C   0  0  0  0  0
    5.4398   21.7335   67.2574 C   0  0  0  0  0
    5.6992   21.7375   68.7506 C   0  0  0  0  0
    6.0723   20.4862   66.6640 C   0  0  0  0  0
    5.3359   26.4555   64.7187 C   0  0  0  0  0
    5.6274   27.9242   64.9600 C   0  0  0  0  0
    5.9848   26.0438   63.4110 C   0  0  0  0  0
   -1.1025   25.4784   61.4165 C   0  0  0  0  0
   -0.4269   30.6221   61.8564 C   0  0  0  0  0
    3.0198   29.6833   63.1495 C   0  0  0  0  0
    2.5468   29.4973   60.8125 O   0  0  0  0  0
    2.7822   27.5625   62.0874 O   0  0  0  0  0
    1.9870   23.8591   61.1767 O   0  0  0  0  0
    1.8884   25.0650   63.1445 O   0  0  0  0  0
    2.6291   23.3416   66.2799 O   0  0  0  0  0
    4.0503   21.7056   67.0365 O   0  0  0  0  0
    6.0351   22.8766   66.6894 O   0  0  0  0  0
    5.8918   25.6960   65.7701 O   0  0  0  0  0
    3.9434   26.2711   64.6162 O   0  0  0  0  0
    0.1539   29.3621   62.0081 O   0  0  0  0  0
   -0.1318   26.5604   61.5067 N   0  0  0  0  0
  1  2  1  0  0  0
  2 24  1  0  0  0
  2 23  1  0  0  0
  2 25  1  0  0  0
  3 24  1  0  0  0
  3  4  1  0  0  0
  4  5  1  0  0  0
  4 33  1  0  0  0
  5 34  1  0  0  0
  6 34  1  0  0  0
  6  7  1  0  0  0
  6  8  1  0  0  0
  7 25  1  0  0  0
  7  3  1  0  0  0
  8 27  1  0  0  0
  9 27  1  0  0  0
 10  9  1  0  0  0
 10 11  1  0  0  0
 10 28  1  0  0  0
 11 12  1  0  0  0
 11 32  1  0  0  0
 12 13  1  0  0  0
 12 31  1  0  0  0
 13 14  1  0  0  0
 13 30  1  0  0  0
 14 28  1  0  0  0
 14 29  1  0  0  0
 15 29  1  0  0  0
 15 30  1  0  0  0
 15 16  1  0  0  0
 15 17  1  0  0  0
 18 31  1  0  0  0
 18 32  1  0  0  0
 18 19  1  0  0  0
 18 20  1  0  0  0
 21 34  1  0  0  0
 22 33  1  0  0  0
  8 26  2  0  0  0
M  END
> <rmsd>
0.687824547

$$$$
PubChem-136498163


 31 34  0  0  0  0  0  0  0  0999 V2000
   -0.7189   24.0443   60.9850 C   0  0  0  0  0
   -0.8981   24.3671   62.4572 C   0  0  0  0  0
    0.3605   24.9335   63.0294 C   0  0  0  0  0
    0.8175   26.2147   62.6718 C   0  0  0  0  0
    2.0074   26.6982   63.2375 C   0  0  0  0  0
    2.7241   25.9334   64.1600 C   0  0  0  0  0
    2.2424   24.6699   64.5495 C   0  0  0  0  0
    1.0697   24.1760   63.9659 C   0  0  0  0  0
    2.9539   23.8392   65.5406 C   0  0  0  0  0
    4.2426   23.1707   67.3215 C   0  0  0  0  0
    3.1745   25.4711   67.5110 C   0  0  0  0  0
    1.9773   26.1604   67.2205 C   0  0  0  0  0
    1.6436   27.2561   68.0104 C   0  0  0  0  0
    2.4302   27.6681   69.0496 C   0  0  0  0  0
    3.6148   27.0102   69.3777 C   0  0  0  0  0
    3.9805   25.9005   68.5946 C   0  0  0  0  0
    0.7396   29.0369   68.9905 C   0  0  0  0  0
    0.5678   28.1155   67.9609 C   0  0  0  0  0
   -0.5614   28.0801   66.9920 C   0  0  0  0  0
    2.4198   29.4740   70.7841 C   0  0  0  0  0
    3.1304   22.5749   65.3711 N   0  0  0  0  0
    3.8999   22.0765   66.4252 N   0  0  0  0  0
    3.5755   24.3277   66.7344 N   0  0  0  0  0
    1.8871   28.7441   69.6464 N   0  0  0  0  0
    5.6235   23.3688   67.3072 O   0  0  0  0  0
    3.9172   26.4332   64.6689 O   0  0  0  0  0
    0.0794   26.9812   61.7600 O   0  0  0  0  0
   -0.4880   29.0941   60.2830 O   0  0  0  0  0
    0.5954   29.5865   62.6113 O   0  0  0  0  0
    2.0512   28.5169   60.5211 O   0  0  0  0  0
    0.5328   28.5661   61.2641 P   0  0  0  0  0
  1  2  1  0  0  0
  2  3  1  0  0  0
  4  5  1  0  0  0
  4 27  1  0  0  0
  6  7  1  0  0  0
  6 26  1  0  0  0
  7  9  1  0  0  0
  8  3  1  0  0  0
 10 22  1  0  0  0
 10 23  1  0  0  0
 10 25  1  0  0  0
 12 13  1  0  0  0
 14 15  1  0  0  0
 14 24  1  0  0  0
 16 11  1  0  0  0
 18 13  1  0  0  0
 19 18  1  0  0  0
 20 24  1  0  0  0
 22 21  1  0  0  0
 23 11  1  0  0  0
 23  9  1  0  0  0
 24 17  1  0  0  0
 31 27  1  0  0  0
 31 29  1  0  0  0
 31 30  1  0  0  0
  3  4  2  0  0  0
  5  6  2  0  0  0
  7  8  2  0  0  0
  9 21  2  0  0  0
 11 12  2  0  0  0
 13 14  2  0  0  0
 15 16  2  0  0  0
 17 18  2  0  0  0
 31 28  2  0  0  0
M  END
> <rmsd>
0.62887758

$$$$
PubChem-13887488


 21 23  0  0  0  0  0  0  0  0999 V2000
    4.9965   25.4796   66.0674 C   0  0  0  0  0
    4.6563   26.5483   65.2071 C   0  0  0  0  0
    3.1376   25.1633   64.0870 C   0  0  0  0  0
    3.4299   24.1086   64.8893 C   0  0  0  0  0
    4.3749   24.2224   65.9162 C   0  0  0  0  0
    1.9462   23.5026   63.4832 C   0  0  0  0  0
    1.5774   25.6007   62.1520 C   0  0  0  0  0
    0.7130   26.6817   62.7604 C   0  0  0  0  0
    1.0129   27.8796   61.9262 C   0  0  0  0  0
    2.3717   27.5673   61.3455 C   0  0  0  0  0
    2.4952   28.1312   59.9405 C   0  0  0  0  0
    3.7252   26.3784   64.2213 N   0  0  0  0  0
    4.7112   23.1301   66.7859 N   0  0  0  0  0
    2.6890   23.0421   64.5285 N   0  0  0  0  0
    2.2083   24.8004   63.1947 N   0  0  0  0  0
    4.1660   22.0146   66.6570 O   0  0  0  0  0
    5.6476   23.3039   67.7790 O   0  0  0  0  0
    2.5555   26.1728   61.3138 O   0  0  0  0  0
    2.5774   29.5231   59.9891 O   0  0  0  0  0
    1.0908   29.0117   62.7370 O   0  0  0  0  0
   -0.6327   26.3401   62.6325 O   0  0  0  0  0
  2 12  1  0  0  0
  3  4  1  0  0  0
  4 14  1  0  0  0
  5 13  1  0  0  0
  5  1  1  0  0  0
  6 15  1  0  0  0
  7 15  1  0  0  0
  7  8  1  0  0  0
  7 18  1  0  0  0
  8  9  1  0  0  0
  8 21  1  0  0  0
  9 10  1  0  0  0
  9 20  1  0  0  0
 10 18  1  0  0  0
 10 11  1  0  0  0
 11 19  1  0  0  0
 13 17  1  0  0  0
 15  3  1  0  0  0
  1  2  2  0  0  0
  3 12  2  0  0  0
  4  5  2  0  0  0
  6 14  2  0  0  0
 13 16  2  0  0  0
M  CHG  2  13   1  17  -1
M  END
> <rmsd>
0.725183308

$$$$
PubChem-20062968


 32 33  0  0  0  0  0  0  0  0999 V2000
    1.4119   22.2560   63.6122 C   0  0  0  0  0
    1.7977   22.5583   65.0498 C   0  0  0  0  0
    2.2149   24.5392   66.2958 C   0  0  0  0  0
    1.0346   25.4608   65.9995 C   0  0  0  0  0
    0.0980   26.9901   64.4935 C   0  0  0  0  0
   -0.5063   26.2228   63.3245 C   0  0  0  0  0
    0.2057   24.9869   61.4338 C   0  0  0  0  0
    1.1097   23.8924   61.9756 C   0  0  0  0  0
    0.1172   27.3434   61.2399 C   0  0  0  0  0
   -1.3663   27.7234   61.0872 C   0  0  0  0  0
   -2.1067   26.7444   60.2388 C   0  0  0  0  0
   -3.1371   25.9827   60.8001 C   0  0  0  0  0
   -3.8399   25.0661   60.0121 C   0  0  0  0  0
   -3.5160   24.9129   58.6606 C   0  0  0  0  0
   -2.4920   25.6790   58.0954 C   0  0  0  0  0
   -1.7888   26.5956   58.8828 C   0  0  0  0  0
    0.9505   28.5415   61.5619 C   0  0  0  0  0
    2.1557   27.4608   65.4826 C   0  0  0  0  0
    3.2998   27.7680   64.5792 C   0  0  0  0  0
    4.0240   23.4607   65.1360 C   0  0  0  0  0
    4.4665   22.7226   66.3695 C   0  0  0  0  0
    2.5897   23.7821   65.1054 N   0  0  0  0  0
    1.3526   26.3859   64.9178 N   0  0  0  0  0
    0.3962   26.2314   62.1697 N   0  0  0  0  0
    0.4864   23.2653   63.1281 N   0  0  0  0  0
   -4.2307   23.9799   57.8597 N   0  0  0  0  0
    0.7122   29.2362   62.5848 O   0  0  0  0  0
    1.9875   28.9016   60.7127 O   0  0  0  0  0
    3.4185   28.9192   64.0864 O   0  0  0  0  0
    4.2422   26.7904   64.2889 O   0  0  0  0  0
    5.2544   23.2777   67.1779 O   0  0  0  0  0
    4.0378   21.4231   66.6080 O   0  0  0  0  0
  1  2  1  0  0  0
  1 25  1  0  0  0
  2 22  1  0  0  0
  3 22  1  0  0  0
  3  4  1  0  0  0
  4 23  1  0  0  0
  5 23  1  0  0  0
  5  6  1  0  0  0
  6 24  1  0  0  0
  7 24  1  0  0  0
  7  8  1  0  0  0
  8 25  1  0  0  0
  9 24  1  0  0  0
  9 10  1  0  0  0
  9 17  1  0  0  0
 10 11  1  0  0  0
 12 13  1  0  0  0
 14 15  1  0  0  0
 14 26  1  0  0  0
 16 11  1  0  0  0
 17 28  1  0  0  0
 18 23  1  0  0  0
 18 19  1  0  0  0
 19 30  1  0  0  0
 20 22  1  0  0  0
 20 21  1  0  0  0
 21 32  1  0  0  0
 11 12  2  0  0  0
 13 14  2  0  0  0
 15 16  2  0  0  0
 17 27  2  0  0  0
 19 29  2  0  0  0
 21 31  2  0  0  0
M  END
> <rmsd>
0.640563071

$$$$
PubChem-67201542


 22 24  0  0  0  0  0  0  0  0999 V2000
    4.9210   24.7406   62.8977 C   0  0  0  0  0
    4.9397   25.5050   64.2030 C   0  0  0  0  0
    3.2519   26.4257   63.0669 C   0  0  0  0  0
    3.7960   25.3656   62.1315 C   0  0  0  0  0
    1.7295   26.4245   63.0503 C   0  0  0  0  0
    1.1858   27.0334   61.7639 C   0  0  0  0  0
    1.3800   28.5149   61.7438 C   0  0  0  0  0
    6.2411   24.6342   66.1702 C   0  0  0  0  0
    5.0212   23.0288   66.8384 C   0  0  0  0  0
    4.4294   23.5890   65.7626 C   0  0  0  0  0
    2.6497   22.0872   65.8821 C   0  0  0  0  0
    4.4205   21.9528   67.4759 C   0  0  0  0  0
    3.7069   26.1556   64.3660 O   0  0  0  0  0
    4.2929   25.9703   60.9774 O   0  0  0  0  0
    0.8295   29.2446   62.6105 O   0  0  0  0  0
    2.1713   29.0907   60.7595 O   0  0  0  0  0
   -0.1712   26.7345   61.6434 O   0  0  0  0  0
    5.1828   24.6033   65.3217 N   0  0  0  0  0
    6.1723   23.6645   67.1268 N   0  0  0  0  0
    3.2500   23.1478   65.2610 N   0  0  0  0  0
    3.2324   21.4991   66.9771 N   0  0  0  0  0
    5.0141   21.3368   68.6134 N   0  0  0  0  0
  1  2  1  0  0  0
  2 13  1  0  0  0
  2 18  1  0  0  0
  3 13  1  0  0  0
  3  4  1  0  0  0
  3  5  1  0  0  0
  4 14  1  0  0  0
  4  1  1  0  0  0
  6  5  1  0  0  0
  6  7  1  0  0  0
  6 17  1  0  0  0
  7 16  1  0  0  0
  9 19  1  0  0  0
 10 20  1  0  0  0
 10 18  1  0  0  0
 11 21  1  0  0  0
 12 22  1  0  0  0
 12  9  1  0  0  0
 18  8  1  0  0  0
  7 15  2  0  0  0
  8 19  2  0  0  0
  9 10  2  0  0  0
 11 20  2  0  0  0
 12 21  2  0  0  0
M  END
> <rmsd>
0.56447804

$$$$
PubChem-88638744


 23 25  0  0  0  0  0  0  0  0999 V2000
    4.4408   28.0917   64.3079 C   0  0  0  0  0
    2.8926   26.1838   63.9772 C   0  0  0  0  0
    2.5296   24.8493   64.2731 C   0  0  0  0  0
    1.3883   24.3031   63.6672 C   0  0  0  0  0
    0.6145   25.0564   62.7836 C   0  0  0  0  0
    0.9663   26.3729   62.4871 C   0  0  0  0  0
    2.1036   26.9295   63.0857 C   0  0  0  0  0
   -0.7445   29.2763   60.0125 C   0  0  0  0  0
    3.3092   23.9982   65.2021 C   0  0  0  0  0
    3.9087   22.3302   66.3432 C   0  0  0  0  0
    5.0953   20.8444   67.8373 C   0  0  0  0  0
    6.0400   22.0172   68.0354 C   0  0  0  0  0
    4.7835   23.3427   66.5576 C   0  0  0  0  0
    4.0263   26.7568   64.5662 O   0  0  0  0  0
    0.1707   27.1016   61.5980 O   0  0  0  0  0
    1.8475   28.8068   60.5013 O   0  0  0  0  0
    0.4740   29.5961   62.3769 O   0  0  0  0  0
    7.0275   21.9035   68.8064 O   0  0  0  0  0
    0.4973   28.7213   61.1554 S   0  0  0  0  0
    2.9552   22.7124   65.4841 N   0  0  0  0  0
    4.0005   21.1621   66.9020 N   0  0  0  0  0
    5.8087   23.2563   67.3445 N   0  0  0  0  0
    4.4325   24.4215   65.8465 N   0  0  0  0  0
  1 14  1  0  0  0
  2 14  1  0  0  0
  3  4  1  0  0  0
  3  9  1  0  0  0
  5  6  1  0  0  0
  6 15  1  0  0  0
  7  2  1  0  0  0
 10 20  1  0  0  0
 11 21  1  0  0  0
 11 12  1  0  0  0
 12 22  1  0  0  0
 13 23  1  0  0  0
 13 10  1  0  0  0
 19 15  1  0  0  0
 19  8  1  0  0  0
 23  9  1  0  0  0
  2  3  2  0  0  0
  4  5  2  0  0  0
  6  7  2  0  0  0
  9 20  2  0  0  0
 10 21  2  0  0  0
 12 18  2  0  0  0
 13 22  2  0  0  0
 19 16  2  0  0  0
 19 17  2  0  0  0
M  END
> <rmsd>
0.622543275

$$$$
PubChem-54235521


 25 26  0  0  0  0  0  0  0  0999 V2000
    4.6143   26.4339   62.2163 C   0  0  0  0  0
    3.1912   26.4716   62.7493 C   0  0  0  0  0
    3.1553   26.0466   64.1831 C   0  0  0  0  0
    2.2749   24.8945   64.5796 C   0  0  0  0  0
    1.2304   25.3017   65.5910 C   0  0  0  0  0
    0.1851   26.1497   65.2038 C   0  0  0  0  0
   -0.7730   26.5581   66.1355 C   0  0  0  0  0
   -0.6907   26.1218   67.4601 C   0  0  0  0  0
    0.3496   25.2754   67.8546 C   0  0  0  0  0
    1.3173   24.8706   66.9298 C   0  0  0  0  0
    2.3872   23.9167   67.3625 C   0  0  0  0  0
    3.5559   23.9264   66.3822 C   0  0  0  0  0
    4.5240   22.8506   66.7307 C   0  0  0  0  0
    1.6400   27.7656   61.5637 C   0  0  0  0  0
    1.9104   28.8386   60.5030 C   0  0  0  0  0
    0.9705   28.6644   59.3214 C   0  0  0  0  0
    0.2808   27.9212   62.1725 C   0  0  0  0  0
    3.8211   26.6366   65.0221 O   0  0  0  0  0
    5.7054   23.1504   67.0426 O   0  0  0  0  0
    4.1327   21.5172   66.7096 O   0  0  0  0  0
   -0.0182   28.9638   62.8139 O   0  0  0  0  0
   -0.6594   26.9096   62.0225 O   0  0  0  0  0
    3.0689   23.7358   65.0143 N   0  0  0  0  0
    2.6507   27.8154   62.6129 N   0  0  0  0  0
    3.2808   28.7376   60.0233 N   0  0  0  0  0
  2  1  1  0  0  0
  2  3  1  0  0  0
  2 24  1  0  0  0
  4  3  1  0  0  0
  4  5  1  0  0  0
  4 23  1  0  0  0
  6  7  1  0  0  0
  8  9  1  0  0  0
 10  5  1  0  0  0
 11 10  1  0  0  0
 11 12  1  0  0  0
 12 23  1  0  0  0
 12 13  1  0  0  0
 13 20  1  0  0  0
 14 24  1  0  0  0
 14 15  1  0  0  0
 14 17  1  0  0  0
 15 16  1  0  0  0
 15 25  1  0  0  0
 17 22  1  0  0  0
  3 18  2  0  0  0
  5  6  2  0  0  0
  7  8  2  0  0  0
  9 10  2  0  0  0
 13 19  2  0  0  0
 17 21  2  0  0  0
M  END
> <rmsd>
0.633266389

$$$$
PubChem-140036305


 22 24  0  0  0  0  0  0  0  0999 V2000
    0.2428   26.7370   64.5615 C   0  0  0  0  0
    0.3930   26.7040   63.0468 C   0  0  0  0  0
    1.2502   27.8409   62.5728 C   0  0  0  0  0
    1.9041   27.2774   61.3314 C   0  0  0  0  0
    1.1347   25.4829   62.5012 C   0  0  0  0  0
    1.6410   23.4869   63.9414 C   0  0  0  0  0
    3.3835   24.1047   65.0026 C   0  0  0  0  0
    4.5124   24.2309   65.8199 C   0  0  0  0  0
    5.2144   25.4534   65.7447 C   0  0  0  0  0
    4.7699   26.4751   64.8755 C   0  0  0  0  0
    2.9940   25.1152   64.1842 C   0  0  0  0  0
    3.2937   27.8620   61.1434 C   0  0  0  0  0
    1.9915   25.8759   61.4503 O   0  0  0  0  0
    5.9659   23.3379   67.4062 O   0  0  0  0  0
    4.2652   21.9901   66.7707 O   0  0  0  0  0
    3.2029   29.2027   60.7683 O   0  0  0  0  0
    0.4920   28.9727   62.2592 O   0  0  0  0  0
   -0.8749   26.7549   62.4598 O   0  0  0  0  0
    1.8946   24.7474   63.5129 N   0  0  0  0  0
    2.5433   23.0600   64.8684 N   0  0  0  0  0
    3.6593   26.2939   64.1004 N   0  0  0  0  0
    4.9510   23.1805   66.6964 N   0  0  0  0  0
  2  1  1  0  0  0
  2  3  1  0  0  0
  2 18  1  0  0  0
  3  4  1  0  0  0
  3 17  1  0  0  0
  4 13  1  0  0  0
  4 12  1  0  0  0
  5 13  1  0  0  0
  5 19  1  0  0  0
  5  2  1  0  0  0
  7 20  1  0  0  0
  8  9  1  0  0  0
  8 22  1  0  0  0
 10 21  1  0  0  0
 11 19  1  0  0  0
 11  7  1  0  0  0
 12 16  1  0  0  0
 19  6  1  0  0  0
 22 15  1  0  0  0
  6 20  2  0  0  0
  7  8  2  0  0  0
  9 10  2  0  0  0
 11 21  2  0  0  0
 22 14  2  0  0  0
M  CHG  2  22   1  15  -1
M  END
> <rmsd>
0.659933865

$$$$
PubChem-45100887


 27 30  0  0  0  0  0  0  0  0999 V2000
    3.2148   19.7838   68.4335 C   0  0  0  0  0
    3.3398   20.0601   66.9478 C   0  0  0  0  0
    3.6434   22.3594   66.1163 C   0  0  0  0  0
    1.9149   23.5087   64.9285 C   0  0  0  0  0
    3.9053   24.6165   65.4364 C   0  0  0  0  0
    4.4065   23.5163   66.0373 C   0  0  0  0  0
    5.8868   25.0404   66.1041 C   0  0  0  0  0
    4.7386   26.9519   64.9375 C   0  0  0  0  0
    4.9980   27.0570   63.4263 C   0  0  0  0  0
    3.7724   27.7757   62.9029 C   0  0  0  0  0
    3.1901   28.3809   64.1818 C   0  0  0  0  0
    1.6742   28.5716   64.0757 C   0  0  0  0  0
   -0.7859   27.7727   61.0318 C   0  0  0  0  0
    5.2599   25.7222   62.7215 C   0  0  0  0  0
    4.1410   21.2179   66.7466 O   0  0  0  0  0
    3.4913   27.5239   65.2527 O   0  0  0  0  0
    1.3217   29.1111   62.8297 O   0  0  0  0  0
    1.9995   28.4469   60.3709 O   0  0  0  0  0
    2.8552   26.8814   62.3006 O   0  0  0  0  0
    0.1933   26.9083   61.5322 O   0  0  0  0  0
    2.3964   22.3833   65.5507 N   0  0  0  0  0
    2.6782   24.6443   64.8622 N   0  0  0  0  0
    5.6612   23.7462   66.4733 N   0  0  0  0  0
    4.8230   25.5926   65.4658 N   0  0  0  0  0
    0.6196   23.4927   64.3422 N   0  0  0  0  0
    1.5934   27.8558   61.7078 P   0  0  0  0  0
    6.0997   27.8693   63.2358 F   0  0  0  0  0
  1  2  1  0  0  0
  2 15  1  0  0  0
  3 15  1  0  0  0
  4 21  1  0  0  0
  4 25  1  0  0  0
  5 22  1  0  0  0
  6 23  1  0  0  0
  6  3  1  0  0  0
  7 24  1  0  0  0
  8 24  1  0  0  0
  8  9  1  0  0  0
  8 16  1  0  0  0
  9 10  1  0  0  0
  9 14  1  0  0  0
  9 27  1  0  0  0
 10 11  1  0  0  0
 10 19  1  0  0  0
 11 16  1  0  0  0
 11 12  1  0  0  0
 12 17  1  0  0  0
 13 20  1  0  0  0
 24  5  1  0  0  0
 26 17  1  0  0  0
 26 19  1  0  0  0
 26 20  1  0  0  0
  3 21  2  0  0  0
  4 22  2  0  0  0
  5  6  2  0  0  0
  7 23  2  0  0  0
 26 18  2  0  0  0
M  END
> <rmsd>
0.785541117

$$$$
PubChem-152818833


 30 34  0  0  0  0  0  0  0  0999 V2000
   -0.1480   24.7076   61.3263 C   0  0  0  0  0
    0.2188   25.9903   60.6074 C   0  0  0  0  0
   -0.6344   26.1281   59.3631 C   0  0  0  0  0
    1.7181   28.3384   64.0954 C   0  0  0  0  0
    3.2195   28.0038   64.1533 C   0  0  0  0  0
    3.6796   27.3310   62.8391 C   0  0  0  0  0
    4.6422   26.3416   63.3774 C   0  0  0  0  0
    5.4649   25.4028   62.5211 C   0  0  0  0  0
    6.0707   26.7000   63.0335 C   0  0  0  0  0
    4.4489   26.1965   64.8574 C   0  0  0  0  0
    2.8801   24.2079   64.8081 C   0  0  0  0  0
    3.9309   22.8189   66.0225 C   0  0  0  0  0
    4.6592   23.9533   65.9526 C   0  0  0  0  0
    6.3240   23.0440   67.3096 C   0  0  0  0  0
    4.3999   21.7421   66.7608 C   0  0  0  0  0
    4.0330   29.2865   64.3820 C   0  0  0  0  0
   -0.0073   27.0803   61.4516 O   0  0  0  0  0
    1.9868   28.4403   60.4054 O   0  0  0  0  0
    1.3814   28.9871   62.8974 O   0  0  0  0  0
    2.6370   26.6306   62.2038 O   0  0  0  0  0
    3.4503   27.1205   65.2411 O   0  0  0  0  0
    3.7460   20.6700   66.8469 O   0  0  0  0  0
    1.5117   27.7995   61.6906 P   0  0  0  0  0
    4.0192   24.8434   65.1909 N   0  0  0  0  0
    2.7955   22.9425   65.3094 N   0  0  0  0  0
    5.8522   24.0996   66.5783 N   0  0  0  0  0
    5.6012   21.8798   67.3964 N   0  0  0  0  0
    7.5714   23.1531   67.9837 N   0  0  0  0  0
    3.8875   30.1758   63.3308 F   0  0  0  0  0
    3.6632   29.9000   65.5664 F   0  0  0  0  0
  1  2  1  0  0  0
  2  3  1  0  0  0
  2 17  1  0  0  0
  4 19  1  0  0  0
  4  5  1  0  0  0
  5  6  1  0  0  0
  5 16  1  0  0  0
  5 21  1  0  0  0
  6 20  1  0  0  0
  6  7  1  0  0  0
  7  8  1  0  0  0
  7 10  1  0  0  0
  8  9  1  0  0  0
  9  7  1  0  0  0
 10 21  1  0  0  0
 10 24  1  0  0  0
 12 25  1  0  0  0
 13 26  1  0  0  0
 13 24  1  0  0  0
 14 27  1  0  0  0
 14 28  1  0  0  0
 15 12  1  0  0  0
 16 29  1  0  0  0
 16 30  1  0  0  0
 23 17  1  0  0  0
 23 19  1  0  0  0
 23 20  1  0  0  0
 24 11  1  0  0  0
 27 15  1  0  0  0
 11 25  2  0  0  0
 12 13  2  0  0  0
 14 26  2  0  0  0
 15 22  2  0  0  0
 23 18  2  0  0  0
M  END
> <rmsd>
0.768502712

$$$$
PubChem-57915410


 18 18  0  0  0  0  0  0  0  0999 V2000
    1.8256   22.9127   68.2951 C   0  0  0  0  0
    2.4397   22.5912   66.9469 C   0  0  0  0  0
    3.8554   22.0979   67.1301 C   0  0  0  0  0
    4.6176   22.8164   66.0697 C   0  0  0  0  0
    3.7693   24.0325   65.8051 C   0  0  0  0  0
    3.8850   24.4321   64.3369 C   0  0  0  0  0
    3.4386   25.8684   64.0673 C   0  0  0  0  0
    1.9395   26.0415   64.2795 C   0  0  0  0  0
    1.4496   27.3608   63.6981 C   0  0  0  0  0
    1.4232   27.3147   62.1763 C   0  0  0  0  0
    1.2416   28.6870   61.6195 C   0  0  0  0  0
    2.4315   23.7389   66.1303 O   0  0  0  0  0
    0.2011   29.3504   61.8738 O   0  0  0  0  0
    2.2277   29.2354   60.8109 O   0  0  0  0  0
    5.8639   23.2036   66.5612 O   0  0  0  0  0
    3.9117   20.7233   66.9034 O   0  0  0  0  0
    0.3476   26.4498   61.7196 N   0  0  0  0  0
    4.1849   26.8019   64.8970 N   0  0  0  0  0
  2  1  1  0  0  0
  2  3  1  0  0  0
  2 12  1  0  0  0
  3  4  1  0  0  0
  3 16  1  0  0  0
  4  5  1  0  0  0
  4 15  1  0  0  0
  5 12  1  0  0  0
  5  6  1  0  0  0
  7  6  1  0  0  0
  7  8  1  0  0  0
  7 18  1  0  0  0
  8  9  1  0  0  0
 10  9  1  0  0  0
 10 11  1  0  0  0
 10 17  1  0  0  0
 11 14  1  0  0  0
 11 13  2  0  0  0
M  END
> <rmsd>
0.730742812

$$$$
PubChem-13771833


 32 34  0  0  0  0  0  0  0  0999 V2000
    4.8699   28.3393   66.2998 C   0  0  0  0  0
    4.3711   26.9095   66.4295 C   0  0  0  0  0
    5.6068   25.9766   66.3941 C   0  0  0  0  0
    5.2004   24.5796   66.0597 C   0  0  0  0  0
    4.0831   24.3682   65.0645 C   0  0  0  0  0
    4.3866   23.2352   64.0056 C   0  0  0  0  0
    4.5986   21.8454   64.6728 C   0  0  0  0  0
    4.7552   20.7350   63.6349 C   0  0  0  0  0
    3.4987   20.6338   62.7738 C   0  0  0  0  0
    3.2032   21.9358   62.0286 C   0  0  0  0  0
    3.1881   23.1397   63.0118 C   0  0  0  0  0
    2.7495   24.4826   62.3918 C   0  0  0  0  0
    2.5372   25.5610   63.4685 C   0  0  0  0  0
    3.7559   25.7506   64.3960 C   0  0  0  0  0
    4.9102   26.3402   63.5633 C   0  0  0  0  0
    0.8852   26.9841   62.2937 C   0  0  0  0  0
    0.5615   28.2801   61.6282 C   0  0  0  0  0
    1.2425   28.3885   60.2697 C   0  0  0  0  0
    4.2223   22.1133   60.9111 C   0  0  0  0  0
    1.8324   21.7869   61.3940 C   0  0  0  0  0
    5.6808   23.5512   63.2485 C   0  0  0  0  0
    3.6710   26.7612   67.7548 C   0  0  0  0  0
    4.2830   26.9563   68.9256 C   0  0  0  0  0
    5.7007   23.6443   66.6642 O   0  0  0  0  0
    3.3941   26.6923   65.4016 O   0  0  0  0  0
    2.1385   26.7991   62.8842 O   0  0  0  0  0
    0.0276   26.0605   62.2983 O   0  0  0  0  0
    2.6311   28.4407   60.4122 O   0  0  0  0  0
    0.9292   29.3509   62.4451 O   0  0  0  0  0
    3.6461   24.9171   61.4114 O   0  0  0  0  0
    3.5634   21.5071   65.5497 O   0  0  0  0  0
    2.9517   24.0005   65.8065 O   0  0  0  0  0
  2  1  1  0  0  0
  2  3  1  0  0  0
  2 22  1  0  0  0
  2 25  1  0  0  0
  3  4  1  0  0  0
  5  4  1  0  0  0
  5  6  1  0  0  0
  5 32  1  0  0  0
  6  7  1  0  0  0
  6 21  1  0  0  0
  7  8  1  0  0  0
  7 31  1  0  0  0
  8  9  1  0  0  0
  9 10  1  0  0  0
 10 19  1  0  0  0
 10 20  1  0  0  0
 11 10  1  0  0  0
 11 12  1  0  0  0
 11  6  1  0  0  0
 12 13  1  0  0  0
 12 30  1  0  0  0
 13 14  1  0  0  0
 13 26  1  0  0  0
 14 25  1  0  0  0
 14 15  1  0  0  0
 14  5  1  0  0  0
 16 26  1  0  0  0
 17 16  1  0  0  0
 17 18  1  0  0  0
 17 29  1  0  0  0
 18 28  1  0  0  0
  4 24  2  0  0  0
 16 27  2  0  0  0
 22 23  2  0  0  0
M  END
> <rmsd>
0.673958719

$$$$
PubChem-89423484


 28 29  0  0  0  0  0  0  0  0999 V2000
    1.6054   33.3631   64.3382 C   0  0  0  0  0
    1.5454   31.8497   64.3819 C   0  0  0  0  0
    2.3476   31.3540   65.5728 C   0  0  0  0  0
    2.3321   29.8374   65.6237 C   0  0  0  0  0
    2.6504   28.0197   64.4043 C   0  0  0  0  0
    2.2414   27.8293   62.9432 C   0  0  0  0  0
    1.6956   26.4127   62.7719 C   0  0  0  0  0
    2.7018   25.4006   63.3055 C   0  0  0  0  0
    3.0946   25.8133   64.7307 C   0  0  0  0  0
    4.0935   24.8225   65.3000 C   0  0  0  0  0
    4.5023   23.3402   68.3330 C   0  0  0  0  0
    0.4252   27.1074   60.9753 C   0  0  0  0  0
    0.9686   28.5756   61.1795 C   0  0  0  0  0
   -0.1277   29.6008   60.8443 C   0  0  0  0  0
    1.9275   29.1110   59.0944 C   0  0  0  0  0
    0.1407   26.8466   59.4912 C   0  0  0  0  0
   -1.2220   25.6301   61.6705 C   0  0  0  0  0
    3.1230   29.3199   64.5955 O   0  0  0  0  0
    3.6716   27.1005   64.7237 O   0  0  0  0  0
    3.4714   23.5926   65.5303 O   0  0  0  0  0
    4.1174   21.1936   66.3194 O   0  0  0  0  0
    5.6976   22.3919   64.8910 O   0  0  0  0  0
    5.4981   23.1407   67.3756 O   0  0  0  0  0
    1.4099   26.1738   61.4115 O   0  0  0  0  0
    1.2521   28.7585   62.5580 O   0  0  0  0  0
    2.1750   28.8117   60.4475 O   0  0  0  0  0
   -0.7817   26.9658   61.7180 O   0  0  0  0  0
    4.7049   22.5448   66.0100 S   0  0  0  0  0
  1  2  1  0  0  0
  2  3  1  0  0  0
  3  4  1  0  0  0
  4 18  1  0  0  0
  5 18  1  0  0  0
  5  6  1  0  0  0
  5 19  1  0  0  0
  6  7  1  0  0  0
  6 25  1  0  0  0
  7  8  1  0  0  0
  7 24  1  0  0  0
  8  9  1  0  0  0
  9 19  1  0  0  0
  9 10  1  0  0  0
 10 20  1  0  0  0
 11 23  1  0  0  0
 12 24  1  0  0  0
 12 13  1  0  0  0
 12 16  1  0  0  0
 12 27  1  0  0  0
 13 25  1  0  0  0
 13 14  1  0  0  0
 13 26  1  0  0  0
 15 26  1  0  0  0
 17 27  1  0  0  0
 28 20  1  0  0  0
 28 23  1  0  0  0
 28 21  2  0  0  0
 28 22  2  0  0  0
M  END
> <rmsd>
0.636347175

$$$$
PubChem-89423484


 28 29  0  0  0  0  0  0  0  0999 V2000
    5.4991   31.6106   67.5027 C   0  0  0  0  0
    4.7488   30.4310   66.9224 C   0  0  0  0  0
    3.4693   30.9173   66.2701 C   0  0  0  0  0
    2.7070   29.7472   65.6772 C   0  0  0  0  0
    2.8654   27.9705   64.3692 C   0  0  0  0  0
    2.4042   27.8096   62.9178 C   0  0  0  0  0
    1.8319   26.4050   62.7377 C   0  0  0  0  0
    2.8200   25.3638   63.2471 C   0  0  0  0  0
    3.2391   25.7528   64.6684 C   0  0  0  0  0
    4.2034   24.7233   65.2250 C   0  0  0  0  0
    4.3214   23.3644   68.3815 C   0  0  0  0  0
    0.5061   27.0853   60.9963 C   0  0  0  0  0
    0.9432   28.5862   61.2629 C   0  0  0  0  0
   -0.3038   29.4567   61.1592 C   0  0  0  0  0
    3.0043   28.3452   60.1688 C   0  0  0  0  0
    0.2444   26.9113   59.4946 C   0  0  0  0  0
   -1.0333   25.4531   61.5841 C   0  0  0  0  0
    3.3856   29.2516   64.5616 O   0  0  0  0  0
    3.8622   27.0159   64.6557 O   0  0  0  0  0
    3.5296   23.5248   65.4747 O   0  0  0  0  0
    4.0344   21.1637   66.4451 O   0  0  0  0  0
    5.7629   22.2328   65.0906 O   0  0  0  0  0
    5.3819   23.1317   67.5032 O   0  0  0  0  0
    1.5452   26.1927   61.3775 O   0  0  0  0  0
    1.4328   28.7777   62.5877 O   0  0  0  0  0
    1.8422   29.1224   60.2956 O   0  0  0  0  0
   -0.6875   26.8099   61.7240 O   0  0  0  0  0
    4.6871   22.4769   66.1124 S   0  0  0  0  0
  1  2  1  0  0  0
  2  3  1  0  0  0
  3  4  1  0  0  0
  4 18  1  0  0  0
  5 18  1  0  0  0
  5  6  1  0  0  0
  5 19  1  0  0  0
  6  7  1  0  0  0
  6 25  1  0  0  0
  7  8  1  0  0  0
  7 24  1  0  0  0
  8  9  1  0  0  0
  9 19  1  0  0  0
  9 10  1  0  0  0
 10 20  1  0  0  0
 11 23  1  0  0  0
 12 24  1  0  0  0
 12 13  1  0  0  0
 12 16  1  0  0  0
 12 27  1  0  0  0
 13 25  1  0  0  0
 13 14  1  0  0  0
 13 26  1  0  0  0
 15 26  1  0  0  0
 17 27  1  0  0  0
 28 20  1  0  0  0
 28 23  1  0  0  0
 28 21  2  0  0  0
 28 22  2  0  0  0
M  END
> <rmsd>
0.706721663

$$$$
PubChem-140139517


 24 25  0  0  0  0  0  0  0  0999 V2000
    0.9936   25.9336   60.7681 C   0  0  0  0  0
    2.7791   27.2346   63.0438 C   0  0  0  0  0
    2.1154   26.6760   64.2856 C   0  0  0  0  0
    3.0155   24.7056   65.4393 C   0  0  0  0  0
    3.9513   23.9933   66.1491 C   0  0  0  0  0
    6.0828   25.8865   65.8148 C   0  0  0  0  0
    6.5306   25.6446   64.5111 C   0  0  0  0  0
    6.9740   26.7041   63.7140 C   0  0  0  0  0
    6.9674   28.0082   64.2179 C   0  0  0  0  0
    6.5174   28.2529   65.5188 C   0  0  0  0  0
    6.0736   27.1935   66.3159 C   0  0  0  0  0
    3.2010   29.5598   60.9905 C   0  0  0  0  0
    0.3430   26.8836   61.5572 O   0  0  0  0  0
    0.8725   29.1529   62.7290 O   0  0  0  0  0
    3.0958   26.0545   65.0985 O   0  0  0  0  0
    2.3191   22.7210   65.6259 O   0  0  0  0  0
    6.4938   23.4446   66.7673 O   0  0  0  0  0
    5.2899   25.0120   68.2136 O   0  0  0  0  0
    4.0505   21.6745   66.8668 O   0  0  0  0  0
    2.2597   28.6213   60.5625 O   0  0  0  0  0
    1.5321   28.0190   61.9748 P   0  0  0  0  0
    1.9946   23.8797   65.1185 N   0  0  0  0  0
    3.4648   22.7492   66.2405 N   0  0  0  0  0
    5.4848   24.5580   66.7942 S   0  0  0  0  0
  1 13  1  0  0  0
  2  3  1  0  0  0
  3 15  1  0  0  0
  4 15  1  0  0  0
  5  4  1  0  0  0
  7  8  1  0  0  0
  9 10  1  0  0  0
 11  6  1  0  0  0
 12 20  1  0  0  0
 21 13  1  0  0  0
 21  2  1  0  0  0
 21 20  1  0  0  0
 22 16  1  0  0  0
 23 16  1  0  0  0
 23 19  1  0  0  0
 24  5  1  0  0  0
 24  6  1  0  0  0
  4 22  2  0  0  0
  6  7  2  0  0  0
  8  9  2  0  0  0
 10 11  2  0  0  0
 21 14  2  0  0  0
 23  5  2  0  0  0
 24 17  2  0  0  0
 24 18  2  0  0  0
M  CHG  2  23   1  19  -1
M  END
> <rmsd>
0.704111338

$$$$
PubChem-91407511


 32 35  0  0  0  0  0  0  0  0999 V2000
    3.8175   29.1837   59.4190 C   0  0  0  0  0
    3.4476   29.1911   60.8871 C   0  0  0  0  0
    2.0369   28.4984   62.4443 C   0  0  0  0  0
    1.9196   27.0708   62.9035 C   0  0  0  0  0
    0.8852   26.2427   62.4367 C   0  0  0  0  0
    0.8058   24.9211   62.8770 C   0  0  0  0  0
   -0.2893   22.8117   62.8587 C   0  0  0  0  0
    0.6557   22.2805   63.7406 C   0  0  0  0  0
    1.7085   23.0932   64.1812 C   0  0  0  0  0
    1.7734   24.4345   63.7766 C   0  0  0  0  0
    2.8528   26.5548   63.8223 C   0  0  0  0  0
    3.6843   24.7817   65.2947 C   0  0  0  0  0
    3.9451   23.2727   65.2017 C   0  0  0  0  0
    4.8680   22.9890   64.0252 C   0  0  0  0  0
    4.5994   22.7987   66.4657 C   0  0  0  0  0
    0.5640   20.8438   64.1447 C   0  0  0  0  0
    1.3950   19.9872   63.2486 C   0  0  0  0  0
    0.8662   19.5112   62.0432 C   0  0  0  0  0
    1.6538   18.7278   61.1941 C   0  0  0  0  0
    2.9717   18.4220   61.5472 C   0  0  0  0  0
    3.5031   18.9006   62.7487 C   0  0  0  0  0
    2.7159   19.6837   63.5981 C   0  0  0  0  0
    2.2188   28.5531   61.0604 O   0  0  0  0  0
    3.7705   27.3030   64.2624 O   0  0  0  0  0
    2.7118   22.5785   65.0073 O   0  0  0  0  0
    5.7047   23.2826   66.8302 O   0  0  0  0  0
    3.9932   21.8219   67.2474 O   0  0  0  0  0
   -0.0599   26.7309   61.5384 O   0  0  0  0  0
    0.8960   29.2190   62.8022 O   0  0  0  0  0
   -0.1945   24.1043   62.4467 N   0  0  0  0  0
    2.7685   25.2540   64.2427 N   0  0  0  0  0
    3.7345   17.6633   60.7243 F   0  0  0  0  0
  1  2  1  0  0  0
  2 23  1  0  0  0
  3 23  1  0  0  0
  3  4  1  0  0  0
  3 29  1  0  0  0
  5  6  1  0  0  0
  5 28  1  0  0  0
  7 30  1  0  0  0
  8  9  1  0  0  0
  9 25  1  0  0  0
 10 31  1  0  0  0
 10  6  1  0  0  0
 11  4  1  0  0  0
 12 31  1  0  0  0
 12 13  1  0  0  0
 13 25  1  0  0  0
 13 14  1  0  0  0
 13 15  1  0  0  0
 15 27  1  0  0  0
 16  8  1  0  0  0
 16 17  1  0  0  0
 18 19  1  0  0  0
 20 21  1  0  0  0
 20 32  1  0  0  0
 22 17  1  0  0  0
 31 11  1  0  0  0
  4  5  2  0  0  0
  6 30  2  0  0  0
  7  8  2  0  0  0
  9 10  2  0  0  0
 11 24  2  0  0  0
 15 26  2  0  0  0
 17 18  2  0  0  0
 19 20  2  0  0  0
 21 22  2  0  0  0
M  END
> <rmsd>
0.702118218

$$$$
PubChem-157550129


 29 31  0  0  0  0  0  0  0  0999 V2000
   -2.6087   23.4250   63.1215 C   0  0  0  0  0
   -2.0856   24.7522   63.6370 C   0  0  0  0  0
   -0.5887   24.6621   63.9187 C   0  0  0  0  0
   -0.3294   23.8780   65.1949 C   0  0  0  0  0
    0.0834   26.0376   63.9956 C   0  0  0  0  0
   -0.5848   26.9781   64.9925 C   0  0  0  0  0
    0.2134   26.6788   62.6466 C   0  0  0  0  0
    1.5656   26.8131   62.0231 C   0  0  0  0  0
    2.3544   28.7535   64.4029 C   0  0  0  0  0
    3.0743   27.8973   65.4297 C   0  0  0  0  0
    2.5554   26.6263   67.1533 C   0  0  0  0  0
    2.8630   25.7499   65.9791 C   0  0  0  0  0
    5.2214   25.1101   66.6469 C   0  0  0  0  0
    5.1038   22.9904   66.6026 C   0  0  0  0  0
    5.2998   21.6175   66.6435 C   0  0  0  0  0
    3.0181   21.3432   66.0005 C   0  0  0  0  0
    3.8938   23.4872   66.2691 C   0  0  0  0  0
   -0.7771   27.0586   62.0400 O   0  0  0  0  0
    0.9309   29.4601   61.9593 O   0  0  0  0  0
    2.8706   28.7136   60.6775 O   0  0  0  0  0
    3.1324   28.8657   63.2479 O   0  0  0  0  0
    2.3465   27.8953   66.6299 O   0  0  0  0  0
    3.2374   26.5904   64.9328 O   0  0  0  0  0
    2.1049   28.5186   61.9549 S   0  0  0  0  0
    3.9413   24.8213   66.2927 N   0  0  0  0  0
    5.9719   23.9896   66.8494 N   0  0  0  0  0
    4.2387   20.8132   66.3379 N   0  0  0  0  0
    2.8353   22.6982   65.9629 N   0  0  0  0  0
    6.5613   21.0567   66.9897 N   0  0  0  0  0
  1  2  1  0  0  0
  2  3  1  0  0  0
  3  4  1  0  0  0
  3  5  1  0  0  0
  5  6  1  0  0  0
  5  7  1  0  0  0
  8  7  1  0  0  0
  8 24  1  0  0  0
  9 21  1  0  0  0
 10  9  1  0  0  0
 10 22  1  0  0  0
 10 23  1  0  0  0
 11 22  1  0  0  0
 11 12  1  0  0  0
 12 23  1  0  0  0
 12 25  1  0  0  0
 14 26  1  0  0  0
 15 27  1  0  0  0
 15 29  1  0  0  0
 16 28  1  0  0  0
 17 25  1  0  0  0
 17 14  1  0  0  0
 24 21  1  0  0  0
 25 13  1  0  0  0
  7 18  2  0  0  0
 13 26  2  0  0  0
 14 15  2  0  0  0
 16 27  2  0  0  0
 17 28  2  0  0  0
 24 19  2  0  0  0
 24 20  2  0  0  0
M  END
> <rmsd>
0.648065448

$$$$
PubChem-118205099


 31 34  0  0  0  0  0  0  0  0999 V2000
   -0.9782   17.7373   65.6489 C   0  0  0  0  0
    0.0398   18.6863   65.7807 C   0  0  0  0  0
    1.1548   18.4192   66.5917 C   0  0  0  0  0
    1.2383   17.1958   67.2651 C   0  0  0  0  0
    0.2201   16.2469   67.1327 C   0  0  0  0  0
   -0.8880   16.5177   66.3252 C   0  0  0  0  0
    2.2435   19.3919   66.7542 C   0  0  0  0  0
    2.2453   20.5767   66.1484 C   0  0  0  0  0
    3.3428   21.5360   66.3223 C   0  0  0  0  0
    3.3286   22.7673   65.6788 C   0  0  0  0  0
    4.3507   23.6330   65.8530 C   0  0  0  0  0
    5.4469   22.1510   67.2785 C   0  0  0  0  0
    2.9326   24.5066   64.5247 C   0  0  0  0  0
    4.9825   25.9087   65.0168 C   0  0  0  0  0
    5.6623   25.9205   63.6621 C   0  0  0  0  0
    4.9273   27.0052   62.9283 C   0  0  0  0  0
    4.3933   27.8718   64.0412 C   0  0  0  0  0
    3.0741   28.5202   63.6430 C   0  0  0  0  0
    0.3329   14.7199   67.9798 Cl  0  0  0  0  0
    5.4198   23.3589   66.6387 N   0  0  0  0  0
    4.4197   21.2549   67.1197 N   0  0  0  0  0
    4.1212   24.7388   65.1409 N   0  0  0  0  0
    2.4101   23.2882   64.8425 N   0  0  0  0  0
    4.2259   27.0865   65.1968 O   0  0  0  0  0
    2.0868   27.5484   63.4497 O   0  0  0  0  0
    0.4636   29.3419   62.4209 O   0  0  0  0  0
    2.2394   28.3228   60.7868 O   0  0  0  0  0
    0.0810   26.8645   61.6860 O   0  0  0  0  0
    5.7713   27.7410   62.0927 O   0  0  0  0  0
    7.0087   26.2528   63.8385 O   0  0  0  0  0
    1.2016   28.0620   62.0979 P   0  0  0  0  0
  2  3  1  0  0  0
  3  7  1  0  0  0
  4  5  1  0  0  0
  5 19  1  0  0  0
  6  1  1  0  0  0
  8  9  1  0  0  0
  9 21  1  0  0  0
 10 11  1  0  0  0
 10 23  1  0  0  0
 11 22  1  0  0  0
 12 20  1  0  0  0
 14 22  1  0  0  0
 14 15  1  0  0  0
 14 24  1  0  0  0
 15 16  1  0  0  0
 15 30  1  0  0  0
 16 17  1  0  0  0
 16 29  1  0  0  0
 17 24  1  0  0  0
 17 18  1  0  0  0
 18 25  1  0  0  0
 22 13  1  0  0  0
 31 25  1  0  0  0
 31 27  1  0  0  0
 31 28  1  0  0  0
  1  2  2  0  0  0
  3  4  2  0  0  0
  5  6  2  0  0  0
  7  8  2  0  0  0
  9 10  2  0  0  0
 11 20  2  0  0  0
 12 21  2  0  0  0
 13 23  2  0  0  0
 31 26  2  0  0  0
M  END
> <rmsd>
0.727740228

$$$$
PubChem-121868146 CSC057523064 MCULE-7883001231 ZINC000263451362


 20 20  0  0  0  0  0  0  0  0999 V2000
    4.3937   27.6673   63.8632 C   0  0  0  0  0
    4.4316   25.5135   65.0665 C   0  0  0  0  0
    6.2567   24.9907   66.4836 C   0  0  0  0  0
    4.4972   23.4197   66.2690 C   0  0  0  0  0
    4.6043   21.2816   67.4969 C   0  0  0  0  0
    3.8210   24.2773   65.3737 C   0  0  0  0  0
    2.5142   23.8879   64.7766 C   0  0  0  0  0
    0.7954   24.1409   62.9422 C   0  0  0  0  0
    0.5871   24.9778   61.6944 C   0  0  0  0  0
    1.1136   27.0289   61.0637 C   0  0  0  0  0
    1.5284   28.3676   61.5776 C   0  0  0  0  0
    3.8077   26.4198   64.2040 O   0  0  0  0  0
    3.9549   22.1748   66.6040 O   0  0  0  0  0
    1.7935   23.0181   65.3381 O   0  0  0  0  0
    0.4206   26.3184   62.0455 O   0  0  0  0  0
    2.1555   29.1543   60.8221 O   0  0  0  0  0
    1.2314   28.7546   62.8795 O   0  0  0  0  0
    5.6299   25.8328   65.6276 N   0  0  0  0  0
    5.6920   23.8001   66.7977 N   0  0  0  0  0
    2.0648   24.4898   63.5603 N   0  0  0  0  0
  1 12  1  0  0  0
  2 12  1  0  0  0
  3 18  1  0  0  0
  4 19  1  0  0  0
  4 13  1  0  0  0
  5 13  1  0  0  0
  6  7  1  0  0  0
  6  2  1  0  0  0
  7 20  1  0  0  0
  8 20  1  0  0  0
  8  9  1  0  0  0
  9 15  1  0  0  0
 10 15  1  0  0  0
 10 11  1  0  0  0
 11 17  1  0  0  0
  2 18  2  0  0  0
  3 19  2  0  0  0
  4  6  2  0  0  0
  7 14  2  0  0  0
 11 16  2  0  0  0
M  END
> <rmsd>
0.745785117

$$$$
PubChem-74819354


 30 33  0  0  0  0  0  0  0  0999 V2000
    5.3272   22.0481   68.0745 C   0  0  0  0  0
    6.6023   22.7206   67.5666 C   0  0  0  0  0
    5.1940   24.2727   66.2567 C   0  0  0  0  0
    5.1059   25.4687   65.5409 C   0  0  0  0  0
    3.9992   25.7306   64.7298 C   0  0  0  0  0
    2.9716   24.7791   64.6409 C   0  0  0  0  0
    3.0409   23.5831   65.3597 C   0  0  0  0  0
    4.1545   23.3250   66.1835 C   0  0  0  0  0
    4.2814   22.1003   67.0056 C   0  0  0  0  0
    2.8795   27.3441   63.1698 C   0  0  0  0  0
    1.5855   27.5603   63.9600 C   0  0  0  0  0
    0.5000   28.1047   63.0312 C   0  0  0  0  0
    0.4026   27.2750   61.7496 C   0  0  0  0  0
    1.7837   26.8986   61.1822 C   0  0  0  0  0
    2.3925   27.9027   60.2004 C   0  0  0  0  0
    7.6357   22.8000   68.6415 C   0  0  0  0  0
    8.8413   22.1075   68.4864 C   0  0  0  0  0
    9.8234   22.1758   69.4793 C   0  0  0  0  0
    9.6031   22.9389   70.6299 C   0  0  0  0  0
    8.4011   23.6349   70.7880 C   0  0  0  0  0
    7.4186   23.5672   69.7957 C   0  0  0  0  0
    6.3203   24.0241   67.0507 O   0  0  0  0  0
    3.5383   21.1013   66.8168 O   0  0  0  0  0
    1.9952   22.6736   65.2548 O   0  0  0  0  0
    3.9516   26.9421   64.0252 O   0  0  0  0  0
    2.6960   26.3953   62.1408 O   0  0  0  0  0
    2.7961   29.0728   60.8441 O   0  0  0  0  0
   -0.3241   26.1119   62.0045 O   0  0  0  0  0
    0.7356   29.4454   62.7175 O   0  0  0  0  0
    1.8020   28.4425   65.0210 O   0  0  0  0  0
  1  2  1  0  0  0
  1  9  1  0  0  0
  2 22  1  0  0  0
  2 16  1  0  0  0
  3 22  1  0  0  0
  4  5  1  0  0  0
  5 25  1  0  0  0
  6  7  1  0  0  0
  7 24  1  0  0  0
  8  9  1  0  0  0
  8  3  1  0  0  0
 10 25  1  0  0  0
 10 11  1  0  0  0
 10 26  1  0  0  0
 11 12  1  0  0  0
 11 30  1  0  0  0
 12 13  1  0  0  0
 12 29  1  0  0  0
 13 14  1  0  0  0
 13 28  1  0  0  0
 14 26  1  0  0  0
 14 15  1  0  0  0
 15 27  1  0  0  0
 17 18  1  0  0  0
 19 20  1  0  0  0
 21 16  1  0  0  0
  3  4  2  0  0  0
  5  6  2  0  0  0
  7  8  2  0  0  0
  9 23  2  0  0  0
 16 17  2  0  0  0
 18 19  2  0  0  0
 20 21  2  0  0  0
M  END
> <rmsd>
0.655467093

$$$$
PubChem-155197350


 34 37  0  0  0  0  0  0  0  0999 V2000
    5.3936   23.9593   62.4763 C   0  0  0  0  0
    4.7498   23.7423   63.8302 C   0  0  0  0  0
    5.4735   22.6125   64.5467 C   0  0  0  0  0
    5.2296   22.6660   66.0170 C   0  0  0  0  0
    5.4285   23.8023   68.0816 C   0  0  0  0  0
    4.7766   22.7541   68.7281 C   0  0  0  0  0
    4.3628   21.6588   67.9726 C   0  0  0  0  0
    2.4014   26.0659   63.4085 C   0  0  0  0  0
    2.2518   28.1538   63.6935 C   0  0  0  0  0
    1.2853   27.2680   61.5361 C   0  0  0  0  0
    0.0320   26.6637   61.3256 C   0  0  0  0  0
   -0.5742   26.7494   60.0627 C   0  0  0  0  0
    0.0581   27.4240   59.0186 C   0  0  0  0  0
    1.3038   28.0161   59.2252 C   0  0  0  0  0
    1.9288   27.9406   60.4795 C   0  0  0  0  0
    3.8924   29.2250   59.6857 C   0  0  0  0  0
   -1.8577   25.3565   62.2508 C   0  0  0  0  0
    1.9173   29.5860   63.5572 C   0  0  0  0  0
    0.7328   31.3293   62.4658 C   0  0  0  0  0
    1.2887   32.2604   63.3435 C   0  0  0  0  0
    2.4669   30.5234   64.4393 C   0  0  0  0  0
    5.6445   23.7403   66.7418 N   0  0  0  0  0
    4.5967   21.6331   66.6344 N   0  0  0  0  0
    2.3204   24.7602   62.8319 N   0  0  0  0  0
    3.0043   26.3384   64.5806 N   0  0  0  0  0
    2.9080   27.6482   64.7599 N   0  0  0  0  0
    1.9184   27.1752   62.8217 N   0  0  0  0  0
    1.0570   30.0161   62.5941 N   0  0  0  0  0
    2.1427   31.8370   64.3119 N   0  0  0  0  0
    4.5519   22.7979   70.0630 F   0  0  0  0  0
    3.0018   23.3393   63.6024 S   0  0  0  0  0
    2.3970   23.3625   65.0002 O   0  0  0  0  0
    3.1853   28.5180   60.6954 O   0  0  0  0  0
   -0.5949   25.9946   62.3832 O   0  0  0  0  0
  2  1  1  0  0  0
  2  3  1  0  0  0
  2 31  1  0  0  0
  3  4  1  0  0  0
  4 23  1  0  0  0
  5 22  1  0  0  0
  6  7  1  0  0  0
  6 30  1  0  0  0
  9 27  1  0  0  0
  9 18  1  0  0  0
 11 12  1  0  0  0
 11 34  1  0  0  0
 13 14  1  0  0  0
 15 33  1  0  0  0
 15 10  1  0  0  0
 16 33  1  0  0  0
 17 34  1  0  0  0
 19 28  1  0  0  0
 20 29  1  0  0  0
 21 18  1  0  0  0
 24  8  1  0  0  0
 25 26  1  0  0  0
 27 10  1  0  0  0
 27  8  1  0  0  0
 31 24  1  0  0  0
  4 22  2  0  0  0
  5  6  2  0  0  0
  7 23  2  0  0  0
  8 25  2  0  0  0
  9 26  2  0  0  0
 10 11  2  0  0  0
 12 13  2  0  0  0
 14 15  2  0  0  0
 18 28  2  0  0  0
 19 20  2  0  0  0
 21 29  2  0  0  0
 31 32  2  0  0  0
M  END
> <rmsd>
0.731125653

$$$$
PubChem-160766178


 29 31  0  0  0  0  0  0  0  0999 V2000
    3.1242   33.3010   62.8055 C   0  0  0  0  0
    2.5881   32.8783   61.4544 C   0  0  0  0  0
    1.5585   31.7804   61.6414 C   0  0  0  0  0
    1.0172   31.3228   60.2950 C   0  0  0  0  0
    2.0460   30.4944   59.5353 C   0  0  0  0  0
    1.6427   30.3863   58.0770 C   0  0  0  0  0
    2.2129   29.1301   60.1381 C   0  0  0  0  0
    1.0743   28.1543   60.1722 C   0  0  0  0  0
    1.4718   27.0621   64.0277 C   0  0  0  0  0
    2.5656   27.4102   65.0187 C   0  0  0  0  0
    2.0328   27.2872   66.4246 C   0  0  0  0  0
    3.1935   26.7463   67.2009 C   0  0  0  0  0
    4.2389   26.4509   66.1451 C   0  0  0  0  0
    6.1097   24.8432   66.6323 C   0  0  0  0  0
    5.1242   22.9644   66.5253 C   0  0  0  0  0
    4.7371   21.6321   66.5076 C   0  0  0  0  0
    2.5212   22.3555   65.9963 C   0  0  0  0  0
    4.2148   23.9322   66.2846 C   0  0  0  0  0
    3.3035   28.8033   60.5778 O   0  0  0  0  0
   -0.4606   26.7134   61.8217 O   0  0  0  0  0
   -0.0007   29.0388   62.4672 O   0  0  0  0  0
    1.9264   27.2826   62.7251 O   0  0  0  0  0
    3.6463   26.5277   64.8741 O   0  0  0  0  0
    0.5807   27.7976   61.8482 S   0  0  0  0  0
    4.8135   25.1273   66.3497 N   0  0  0  0  0
    6.3372   23.5034   66.7501 N   0  0  0  0  0
    3.4267   21.3530   66.2405 N   0  0  0  0  0
    2.9131   23.6659   66.0161 N   0  0  0  0  0
    5.6676   20.5843   66.7571 N   0  0  0  0  0
  1  2  1  0  0  0
  2  3  1  0  0  0
  3  4  1  0  0  0
  4  5  1  0  0  0
  5  6  1  0  0  0
  5  7  1  0  0  0
  8  7  1  0  0  0
  8 24  1  0  0  0
  9 22  1  0  0  0
 10  9  1  0  0  0
 10 11  1  0  0  0
 10 23  1  0  0  0
 11 12  1  0  0  0
 12 13  1  0  0  0
 13 23  1  0  0  0
 13 25  1  0  0  0
 15 26  1  0  0  0
 16 27  1  0  0  0
 16 29  1  0  0  0
 17 28  1  0  0  0
 18 25  1  0  0  0
 18 15  1  0  0  0
 24 22  1  0  0  0
 25 14  1  0  0  0
  7 19  2  0  0  0
 14 26  2  0  0  0
 15 16  2  0  0  0
 17 27  2  0  0  0
 18 28  2  0  0  0
 24 20  2  0  0  0
 24 21  2  0  0  0
M  END
> <rmsd>
0.585685313

$$$$
