PubChem-136647449


 41 44  0  0  0  0  0  0  0  0999 V2000
    1.0015   26.4059   61.4669 C   0  0  0  0  0
    1.6788   27.7691   61.5272 C   0  0  0  0  0
    1.1632   28.6485   62.6592 C   0  0  0  0  0
    1.0550   27.8899   64.0006 C   0  0  0  0  0
    2.4424   27.5279   64.6165 C   0  0  0  0  0
    3.2102   26.4050   63.8580 C   0  0  0  0  0
    2.2652   25.2529   63.4130 C   0  0  0  0  0
    0.8910   25.7312   62.8534 C   0  0  0  0  0
   -1.2351   26.8250   63.6762 C   0  0  0  0  0
    0.4748   28.9355   59.5827 C   0  0  0  0  0
    0.5967   29.5012   58.2268 C   0  0  0  0  0
    0.3058   30.4809   56.2828 C   0  0  0  0  0
   -0.3356   30.2152   57.4717 C   0  0  0  0  0
   -1.6434   30.6663   57.7129 C   0  0  0  0  0
   -2.2962   31.3851   56.6941 C   0  0  0  0  0
   -1.6414   31.6509   55.4723 C   0  0  0  0  0
   -0.3252   31.2007   55.2558 C   0  0  0  0  0
    2.5931   29.9982   55.2847 C   0  0  0  0  0
    0.2458   26.6397   63.8497 N   0  0  0  0  0
    1.6523   28.4514   60.2369 N   0  0  0  0  0
    1.7291   29.3723   57.4976 N   0  0  0  0  0
    1.5547   29.9610   56.3217 N   0  0  0  0  0
   -1.7618   27.6581   64.6642 O   0  0  0  0  0
   -1.8901   25.5977   63.7921 O   0  0  0  0  0
   -1.5301   27.3697   62.4257 O   0  0  0  0  0
    0.1170   24.5786   62.6616 O   0  0  0  0  0
    2.0120   24.4403   64.5264 O   0  0  0  0  0
    2.9121   24.4705   62.4486 O   0  0  0  0  0
    4.1926   25.8823   64.7054 O   0  0  0  0  0
    3.8787   26.9383   62.7506 O   0  0  0  0  0
    3.2412   28.6743   64.6698 O   0  0  0  0  0
    2.2249   27.0944   65.9310 O   0  0  0  0  0
    0.4454   28.7712   64.9018 O   0  0  0  0  0
   -0.6425   28.8680   60.1609 O   0  0  0  0  0
    0.3096   31.4748   54.0517 O   0  0  0  0  0
   -2.3022   32.3608   54.4765 O   0  0  0  0  0
   -3.5964   31.8400   56.8918 O   0  0  0  0  0
   -2.2938   30.4321   58.9165 O   0  0  0  0  0
    3.7406   29.3390   55.7311 O   0  0  0  0  0
    2.9199   31.3237   54.9920 O   0  0  0  0  0
    2.1283   29.3636   54.1305 O   0  0  0  0  0
  1  2  1  0  0  0
  2  3  1  0  0  0
  2 20  1  0  0  0
  3  4  1  0  0  0
  4  5  1  0  0  0
  4 33  1  0  0  0
  4 19  1  0  0  0
  5  6  1  0  0  0
  5 31  1  0  0  0
  5 32  1  0  0  0
  6  7  1  0  0  0
  6 29  1  0  0  0
  6 30  1  0  0  0
  7  8  1  0  0  0
  7 27  1  0  0  0
  7 28  1  0  0  0
  8 19  1  0  0  0
  8 26  1  0  0  0
  8  1  1  0  0  0
  9 19  1  0  0  0
  9 23  1  0  0  0
  9 24  1  0  0  0
  9 25  1  0  0  0
 10 11  1  0  0  0
 13 14  1  0  0  0
 13 11  1  0  0  0
 14 38  1  0  0  0
 15 16  1  0  0  0
 15 37  1  0  0  0
 16 36  1  0  0  0
 17 35  1  0  0  0
 17 12  1  0  0  0
 18 22  1  0  0  0
 18 39  1  0  0  0
 18 40  1  0  0  0
 18 41  1  0  0  0
 20 10  1  0  0  0
 22 21  1  0  0  0
 22 12  1  0  0  0
 10 34  2  0  0  0
 11 21  2  0  0  0
 12 13  2  0  0  0
 14 15  2  0  0  0
 16 17  2  0  0  0
M  END
> <rmsd>
0.732575178

$$$$
PubChem-136649640


 39 41  0  0  0  0  0  0  0  0999 V2000
    0.7179   23.1296   65.1900 C   0  0  0  0  0
    1.1026   23.3961   63.7430 C   0  0  0  0  0
    2.2252   24.4676   63.6207 C   0  0  0  0  0
    1.8637   25.8589   64.2621 C   0  0  0  0  0
    2.9075   26.9969   63.9427 C   0  0  0  0  0
    2.8555   27.4424   62.4658 C   0  0  0  0  0
    1.6218   28.2700   62.1515 C   0  0  0  0  0
    1.6161   29.4987   63.0410 C   0  0  0  0  0
    1.6391   29.0995   64.5169 C   0  0  0  0  0
    3.9424   28.9591   64.9766 C   0  0  0  0  0
    0.5331   29.2732   60.0936 C   0  0  0  0  0
    0.6662   29.6698   58.6795 C   0  0  0  0  0
    0.4001   30.4206   56.6320 C   0  0  0  0  0
   -0.2520   30.3006   57.8397 C   0  0  0  0  0
   -1.5619   30.7757   58.0102 C   0  0  0  0  0
   -2.1993   31.3768   56.9090 C   0  0  0  0  0
   -1.5314   31.4964   55.6721 C   0  0  0  0  0
   -0.2179   31.0173   55.5220 C   0  0  0  0  0
    2.6856   29.8005   55.7147 C   0  0  0  0  0
    2.7217   28.1609   64.8665 N   0  0  0  0  0
    1.6484   28.6645   60.7510 N   0  0  0  0  0
    1.7997   29.4401   57.9782 N   0  0  0  0  0
    1.6413   29.8925   56.7403 N   0  0  0  0  0
    0.3982   28.6252   64.9425 O   0  0  0  0  0
   -0.5422   29.4507   60.7230 O   0  0  0  0  0
    0.4296   31.1428   54.2989 O   0  0  0  0  0
   -2.1762   32.0930   54.5941 O   0  0  0  0  0
   -3.4975   31.8574   57.0410 O   0  0  0  0  0
   -2.2344   30.6721   59.2202 O   0  0  0  0  0
    2.2238   29.0452   54.6360 O   0  0  0  0  0
    3.8222   29.1828   56.2411 O   0  0  0  0  0
    3.0324   31.0792   55.2767 O   0  0  0  0  0
    4.1868   26.4622   64.1503 O   0  0  0  0  0
    0.5955   26.2418   63.8183 O   0  0  0  0  0
    1.8073   25.7090   65.6523 O   0  0  0  0  0
    2.5010   24.6394   62.2606 O   0  0  0  0  0
    3.3748   23.9590   64.2371 O   0  0  0  0  0
    1.5542   22.1947   63.1917 O   0  0  0  0  0
   -0.0375   23.7967   63.0429 O   0  0  0  0  0
  1  2  1  0  0  0
  2  3  1  0  0  0
  2 38  1  0  0  0
  2 39  1  0  0  0
  3  4  1  0  0  0
  3 36  1  0  0  0
  3 37  1  0  0  0
  4  5  1  0  0  0
  4 34  1  0  0  0
  4 35  1  0  0  0
  5  6  1  0  0  0
  5 33  1  0  0  0
  5 20  1  0  0  0
  6  7  1  0  0  0
  7  8  1  0  0  0
  7 21  1  0  0  0
  8  9  1  0  0  0
  9 20  1  0  0  0
  9 24  1  0  0  0
 10 20  1  0  0  0
 11 12  1  0  0  0
 14 15  1  0  0  0
 14 12  1  0  0  0
 15 29  1  0  0  0
 16 17  1  0  0  0
 16 28  1  0  0  0
 17 27  1  0  0  0
 18 26  1  0  0  0
 18 13  1  0  0  0
 19 23  1  0  0  0
 19 30  1  0  0  0
 19 31  1  0  0  0
 19 32  1  0  0  0
 21 11  1  0  0  0
 23 22  1  0  0  0
 23 13  1  0  0  0
 11 25  2  0  0  0
 12 22  2  0  0  0
 13 14  2  0  0  0
 15 16  2  0  0  0
 17 18  2  0  0  0
M  END
> <rmsd>
0.609507263

$$$$
