PubChem-136647449


 41 44  0  0  0  0  0  0  0  0999 V2000
    0.9974   26.3706   61.4889 C   0  0  0  0  0
    1.6659   27.7389   61.5280 C   0  0  0  0  0
    1.1504   28.6294   62.6514 C   0  0  0  0  0
    1.0545   27.8874   64.0030 C   0  0  0  0  0
    2.4475   27.5425   64.6160 C   0  0  0  0  0
    3.2188   26.4150   63.8679 C   0  0  0  0  0
    2.2791   25.2511   63.4427 C   0  0  0  0  0
    0.8988   25.7130   62.8845 C   0  0  0  0  0
   -1.2302   26.8032   63.7047 C   0  0  0  0  0
    0.4437   28.8722   59.5753 C   0  0  0  0  0
    0.5546   29.4212   58.2116 C   0  0  0  0  0
    0.2468   30.3738   56.2568 C   0  0  0  0  0
   -0.3864   30.1192   57.4525 C   0  0  0  0  0
   -1.6959   30.5647   57.6949 C   0  0  0  0  0
   -2.3590   31.2660   56.6705 C   0  0  0  0  0
   -1.7125   31.5204   55.4419 C   0  0  0  0  0
   -0.3945   31.0762   55.2241 C   0  0  0  0  0
    2.5319   29.8935   55.2526 C   0  0  0  0  0
    0.2528   26.6299   63.8726 N   0  0  0  0  0
    1.6279   28.4043   60.2293 N   0  0  0  0  0
    1.6839   29.2904   57.4780 N   0  0  0  0  0
    1.4994   29.8628   56.2956 N   0  0  0  0  0
   -1.7571   27.6454   64.6848 O   0  0  0  0  0
   -1.8763   25.5732   63.8399 O   0  0  0  0  0
   -1.5354   27.3298   62.4489 O   0  0  0  0  0
    0.1315   24.5529   62.7117 O   0  0  0  0  0
    2.0373   24.4512   64.5679 O   0  0  0  0  0
    2.9261   24.4606   62.4850 O   0  0  0  0  0
    4.2091   25.9098   64.7165 O   0  0  0  0  0
    3.8778   26.9384   62.7501 O   0  0  0  0  0
    3.2389   28.6947   64.6503 O   0  0  0  0  0
    2.2400   27.1245   65.9371 O   0  0  0  0  0
    0.4438   28.7761   64.8961 O   0  0  0  0  0
   -0.6700   28.8047   60.1604 O   0  0  0  0  0
    0.2320   31.3390   54.0131 O   0  0  0  0  0
   -2.3833   32.2131   54.4407 O   0  0  0  0  0
   -3.6611   31.7148   56.8694 O   0  0  0  0  0
   -2.3383   30.3417   58.9050 O   0  0  0  0  0
    3.6862   29.2477   55.7011 O   0  0  0  0  0
    2.8483   31.2173   54.9411 O   0  0  0  0  0
    2.0652   29.2410   54.1092 O   0  0  0  0  0
  1  2  1  0  0  0
  2  3  1  0  0  0
  2 20  1  0  0  0
  3  4  1  0  0  0
  4  5  1  0  0  0
  4 33  1  0  0  0
  4 19  1  0  0  0
  5  6  1  0  0  0
  5 31  1  0  0  0
  5 32  1  0  0  0
  6  7  1  0  0  0
  6 29  1  0  0  0
  6 30  1  0  0  0
  7  8  1  0  0  0
  7 27  1  0  0  0
  7 28  1  0  0  0
  8 19  1  0  0  0
  8 26  1  0  0  0
  8  1  1  0  0  0
  9 19  1  0  0  0
  9 23  1  0  0  0
  9 24  1  0  0  0
  9 25  1  0  0  0
 10 11  1  0  0  0
 13 14  1  0  0  0
 13 11  1  0  0  0
 14 38  1  0  0  0
 15 16  1  0  0  0
 15 37  1  0  0  0
 16 36  1  0  0  0
 17 35  1  0  0  0
 17 12  1  0  0  0
 18 22  1  0  0  0
 18 39  1  0  0  0
 18 40  1  0  0  0
 18 41  1  0  0  0
 20 10  1  0  0  0
 22 21  1  0  0  0
 22 12  1  0  0  0
 10 34  2  0  0  0
 11 21  2  0  0  0
 12 13  2  0  0  0
 14 15  2  0  0  0
 16 17  2  0  0  0
M  END
> <rmsd>
0.728418291

$$$$
PubChem-136649640


 39 41  0  0  0  0  0  0  0  0999 V2000
    0.7440   23.1514   65.2187 C   0  0  0  0  0
    1.1175   23.4058   63.7666 C   0  0  0  0  0
    2.2340   24.4814   63.6263 C   0  0  0  0  0
    1.8701   25.8771   64.2568 C   0  0  0  0  0
    2.9062   27.0170   63.9192 C   0  0  0  0  0
    2.8419   27.4479   62.4385 C   0  0  0  0  0
    1.6021   28.2666   62.1247 C   0  0  0  0  0
    1.5965   29.5037   63.0024 C   0  0  0  0  0
    1.6316   29.1189   64.4819 C   0  0  0  0  0
    3.9386   28.9939   64.9270 C   0  0  0  0  0
    0.4946   29.2446   60.0649 C   0  0  0  0  0
    0.6160   29.6282   58.6461 C   0  0  0  0  0
    0.3323   30.3579   56.5934 C   0  0  0  0  0
   -0.3109   30.2464   57.8067 C   0  0  0  0  0
   -1.6220   30.7169   57.9816 C   0  0  0  0  0
   -2.2698   31.3042   56.8791 C   0  0  0  0  0
   -1.6110   31.4151   55.6365 C   0  0  0  0  0
   -0.2962   30.9409   55.4819 C   0  0  0  0  0
    2.6144   29.7399   55.6663 C   0  0  0  0  0
    2.7211   28.1889   64.8330 N   0  0  0  0  0
    1.6172   28.6476   60.7204 N   0  0  0  0  0
    1.7458   29.3971   57.9392 N   0  0  0  0  0
    1.5768   29.8368   56.6982 N   0  0  0  0  0
    0.3959   28.6428   64.9205 O   0  0  0  0  0
   -0.5773   29.4230   60.6999 O   0  0  0  0  0
    0.3423   31.0576   54.2533 O   0  0  0  0  0
   -2.2660   31.9982   54.5572 O   0  0  0  0  0
   -3.5693   31.7798   57.0154 O   0  0  0  0  0
   -2.2856   30.6217   59.1971 O   0  0  0  0  0
    2.1489   28.9720   54.5981 O   0  0  0  0  0
    3.7576   29.1327   56.1909 O   0  0  0  0  0
    2.9521   31.0159   55.2137 O   0  0  0  0  0
    4.1894   26.4904   64.1232 O   0  0  0  0  0
    0.5971   26.2496   63.8181 O   0  0  0  0  0
    1.8240   25.7404   65.6487 O   0  0  0  0  0
    2.4996   24.6414   62.2627 O   0  0  0  0  0
    3.3902   23.9842   64.2396 O   0  0  0  0  0
    1.5711   22.2013   63.2238 O   0  0  0  0  0
   -0.0293   23.7942   63.0706 O   0  0  0  0  0
  1  2  1  0  0  0
  2  3  1  0  0  0
  2 38  1  0  0  0
  2 39  1  0  0  0
  3  4  1  0  0  0
  3 36  1  0  0  0
  3 37  1  0  0  0
  4  5  1  0  0  0
  4 34  1  0  0  0
  4 35  1  0  0  0
  5  6  1  0  0  0
  5 33  1  0  0  0
  5 20  1  0  0  0
  6  7  1  0  0  0
  7  8  1  0  0  0
  7 21  1  0  0  0
  8  9  1  0  0  0
  9 20  1  0  0  0
  9 24  1  0  0  0
 10 20  1  0  0  0
 11 12  1  0  0  0
 14 15  1  0  0  0
 14 12  1  0  0  0
 15 29  1  0  0  0
 16 17  1  0  0  0
 16 28  1  0  0  0
 17 27  1  0  0  0
 18 26  1  0  0  0
 18 13  1  0  0  0
 19 23  1  0  0  0
 19 30  1  0  0  0
 19 31  1  0  0  0
 19 32  1  0  0  0
 21 11  1  0  0  0
 23 22  1  0  0  0
 23 13  1  0  0  0
 11 25  2  0  0  0
 12 22  2  0  0  0
 13 14  2  0  0  0
 15 16  2  0  0  0
 17 18  2  0  0  0
M  END
> <rmsd>
0.610288382

$$$$
