MolPort-047-542-199 MCULE-2992553382


 33 36  0  0  0  0  0  0  0  0999 V2000
   -0.8776   30.0511   64.2615 C   0  0  0  0  0
    1.0855   28.6562   63.6887 C   0  0  0  0  0
    0.9883   28.9745   62.3245 C   0  0  0  0  0
    1.8978   28.4462   61.4000 C   0  0  0  0  0
    2.9129   27.5920   61.8476 C   0  0  0  0  0
    3.0189   27.2686   63.2024 C   0  0  0  0  0
    2.1068   27.7993   64.1240 C   0  0  0  0  0
    1.7876   28.7860   59.9724 C   0  0  0  0  0
    2.1899   28.8580   57.8875 C   0  0  0  0  0
    1.0767   29.6427   58.1563 C   0  0  0  0  0
    0.1967   30.3486   57.2007 C   0  0  0  0  0
    0.1991   30.0283   55.8366 C   0  0  0  0  0
   -0.6532   30.6883   54.9382 C   0  0  0  0  0
    0.2255   29.4120   53.0087 C   0  0  0  0  0
   -1.5282   31.6711   55.4205 C   0  0  0  0  0
   -1.5480   31.9853   56.7821 C   0  0  0  0  0
   -0.6923   31.3254   57.6676 C   0  0  0  0  0
    2.8553   28.6311   56.5945 C   0  0  0  0  0
    3.2983   29.7020   55.7965 C   0  0  0  0  0
    3.9149   29.4169   54.5753 C   0  0  0  0  0
    4.0951   28.0910   54.1897 C   0  0  0  0  0
    3.6536   27.0783   55.0419 C   0  0  0  0  0
    3.8436   25.6557   54.6569 C   0  0  0  0  0
    0.1833   29.1772   64.6225 O   0  0  0  0  0
    4.0325   26.4192   63.6280 O   0  0  0  0  0
    2.2147   27.4757   65.4721 O   0  0  0  0  0
   -0.6448   30.3838   53.5729 O   0  0  0  0  0
   -2.3819   32.3377   54.5505 O   0  0  0  0  0
    3.1461   31.0209   56.2151 O   0  0  0  0  0
    4.3124   30.3471   53.8255 O   0  0  0  0  0
    3.0631   27.3775   56.1957 O   0  0  0  0  0
    2.6304   28.3075   59.0319 N   0  0  0  0  0
    0.8297   29.6003   59.4789 N   0  0  0  0  0
  1 24  1  0  0  0
  2 24  1  0  0  0
  3  4  1  0  0  0
  4  8  1  0  0  0
  5  6  1  0  0  0
  6 25  1  0  0  0
  7 26  1  0  0  0
  7  2  1  0  0  0
  9 32  1  0  0  0
  9 18  1  0  0  0
 10 33  1  0  0  0
 10 11  1  0  0  0
 12 13  1  0  0  0
 13 27  1  0  0  0
 14 27  1  0  0  0
 15 28  1  0  0  0
 15 16  1  0  0  0
 17 11  1  0  0  0
 18 31  1  0  0  0
 19 29  1  0  0  0
 19 20  1  0  0  0
 20 21  1  0  0  0
 22 31  1  0  0  0
 23 22  1  0  0  0
 33  8  1  0  0  0
  2  3  2  0  0  0
  4  5  2  0  0  0
  6  7  2  0  0  0
  8 32  2  0  0  0
  9 10  2  0  0  0
 11 12  2  0  0  0
 13 15  2  0  0  0
 16 17  2  0  0  0
 18 19  2  0  0  0
 20 30  2  0  0  0
 21 22  2  0  0  0
M  END
> <rmsd>
0.643017232

$$$$
MolPort-003-939-824 MolPort-046-760-728 CHEMBL5081317 MCULE-3174866493 MCULE-6654114590 PubChem-119803 PubChem-154701544 PubChem-16667346 PubChem-71308616


 36 38  0  0  0  0  0  0  0  0999 V2000
   -1.8014   31.5535   57.3964 C   0  0  0  0  0
   -0.4854   31.1010   57.3355 C   0  0  0  0  0
   -0.6707   30.8148   54.9942 C   0  0  0  0  0
   -2.5314   31.6218   56.2135 C   0  0  0  0  0
    1.4523   30.2635   56.0992 C   0  0  0  0  0
    2.4140   31.3930   56.3761 C   0  0  0  0  0
    3.5492   30.7079   57.0816 C   0  0  0  0  0
    2.8850   29.4912   57.6885 C   0  0  0  0  0
    2.6426   29.7264   59.1692 C   0  0  0  0  0
    3.0723   27.8442   64.5602 C   0  0  0  0  0
    4.0376   26.8076   63.9670 C   0  0  0  0  0
    5.4910   27.2708   64.1051 C   0  0  0  0  0
    5.5968   28.7882   64.2741 C   0  0  0  0  0
    4.6546   29.2945   65.3858 C   0  0  0  0  0
    4.1093   30.6747   65.0468 C   0  0  0  0  0
    0.0670   30.7331   56.1432 N   0  0  0  0  0
   -1.9560   31.2548   55.0400 N   0  0  0  0  0
   -0.1696   30.4866   53.8843 O   0  0  0  0  0
   -3.7233   32.0240   56.2315 O   0  0  0  0  0
    1.6579   29.2344   57.0395 O   0  0  0  0  0
    2.1415   28.5636   59.7578 O   0  0  0  0  0
    0.4569   29.9702   61.1871 O   0  0  0  0  0
    2.9119   29.7935   62.1104 O   0  0  0  0  0
    1.1631   27.6224   62.1498 O   0  0  0  0  0
   -0.6454   27.5413   64.0314 O   0  0  0  0  0
    0.7711   29.7224   64.0418 O   0  0  0  0  0
    1.8197   27.2838   64.8222 O   0  0  0  0  0
    3.6133   28.3955   65.7365 O   0  0  0  0  0
    3.4374   31.2026   66.1492 O   0  0  0  0  0
    6.9114   29.1441   64.5785 O   0  0  0  0  0
    6.2193   26.8633   62.9875 O   0  0  0  0  0
    3.8913   25.5768   64.6090 O   0  0  0  0  0
    4.5222   30.2819   56.1730 O   0  0  0  0  0
    2.8222   31.9945   55.1832 O   0  0  0  0  0
    1.6328   29.0247   61.3080 P   0  0  0  0  0
    0.7498   28.0505   63.7521 P   0  0  0  0  0
  2 16  1  0  0  0
  3 17  1  0  0  0
  4  1  1  0  0  0
  5 16  1  0  0  0
  5  6  1  0  0  0
  5 20  1  0  0  0
  6  7  1  0  0  0
  6 34  1  0  0  0
  7  8  1  0  0  0
  7 33  1  0  0  0
  8 20  1  0  0  0
  8  9  1  0  0  0
  9 21  1  0  0  0
 10 27  1  0  0  0
 10 11  1  0  0  0
 10 28  1  0  0  0
 11 12  1  0  0  0
 11 32  1  0  0  0
 12 13  1  0  0  0
 12 31  1  0  0  0
 13 14  1  0  0  0
 13 30  1  0  0  0
 14 28  1  0  0  0
 14 15  1  0  0  0
 15 29  1  0  0  0
 16  3  1  0  0  0
 17  4  1  0  0  0
 35 21  1  0  0  0
 35 23  1  0  0  0
 35 24  1  0  0  0
 36 24  1  0  0  0
 36 26  1  0  0  0
 36 27  1  0  0  0
  1  2  2  0  0  0
  3 18  2  0  0  0
  4 19  2  0  0  0
 35 22  2  0  0  0
 36 25  2  0  0  0
M  CHG  2  23  -1  26  -1
M  END
> <rmsd>
0.761496723

$$$$
MolPort-003-939-824 MolPort-046-760-728 CHEMBL5081317 MCULE-3174866493 MCULE-6654114590 PubChem-119803 PubChem-154701544 PubChem-16667346 PubChem-71308616


 36 38  0  0  0  0  0  0  0  0999 V2000
   -1.7436   32.2585   57.3419 C   0  0  0  0  0
   -0.7213   31.3137   57.2914 C   0  0  0  0  0
   -0.8284   31.2945   54.9279 C   0  0  0  0  0
   -2.2922   32.7024   56.1424 C   0  0  0  0  0
    0.8017   29.8477   56.0602 C   0  0  0  0  0
    2.1132   30.4636   56.4823 C   0  0  0  0  0
    2.8188   29.3266   57.1645 C   0  0  0  0  0
    1.6765   28.4476   57.6251 C   0  0  0  0  0
    1.4381   28.6560   59.1105 C   0  0  0  0  0
    0.6626   26.3863   64.3103 C   0  0  0  0  0
    1.1699   25.0907   63.6604 C   0  0  0  0  0
    2.6716   24.9091   63.9008 C   0  0  0  0  0
    3.3671   26.2350   64.2179 C   0  0  0  0  0
    2.6279   27.0019   65.3338 C   0  0  0  0  0
    2.7127   28.5046   65.1063 C   0  0  0  0  0
   -0.2756   30.8377   56.0927 N   0  0  0  0  0
   -1.8266   32.2164   54.9635 N   0  0  0  0  0
   -0.4197   30.8696   53.8129 O   0  0  0  0  0
   -3.2184   33.5537   56.1505 O   0  0  0  0  0
    0.5030   28.7607   56.9055 O   0  0  0  0  0
    0.4677   27.7606   59.5648 O   0  0  0  0  0
   -0.6098   29.6275   61.0525 O   0  0  0  0  0
    1.4879   28.3991   62.0532 O   0  0  0  0  0
   -0.9853   27.1344   61.8146 O   0  0  0  0  0
   -2.8099   27.6659   63.6051 O   0  0  0  0  0
   -0.6394   29.0718   63.8809 O   0  0  0  0  0
   -0.7256   26.3692   64.4668 O   0  0  0  0  0
    1.2892   26.5840   65.5547 O   0  0  0  0  0
    2.2294   29.1815   66.2259 O   0  0  0  0  0
    4.6865   26.0006   64.6078 O   0  0  0  0  0
    3.2562   24.3199   62.7798 O   0  0  0  0  0
    0.4916   23.9848   64.1757 O   0  0  0  0  0
    3.6031   28.6059   56.2595 O   0  0  0  0  0
    2.8184   30.9287   55.3696 O   0  0  0  0  0
    0.0723   28.2784   61.1300 P   0  0  0  0  0
   -1.3110   27.5795   63.4323 P   0  0  0  0  0
  2 16  1  0  0  0
  3 17  1  0  0  0
  4  1  1  0  0  0
  5 16  1  0  0  0
  5  6  1  0  0  0
  5 20  1  0  0  0
  6  7  1  0  0  0
  6 34  1  0  0  0
  7  8  1  0  0  0
  7 33  1  0  0  0
  8 20  1  0  0  0
  8  9  1  0  0  0
  9 21  1  0  0  0
 10 27  1  0  0  0
 10 11  1  0  0  0
 10 28  1  0  0  0
 11 12  1  0  0  0
 11 32  1  0  0  0
 12 13  1  0  0  0
 12 31  1  0  0  0
 13 14  1  0  0  0
 13 30  1  0  0  0
 14 28  1  0  0  0
 14 15  1  0  0  0
 15 29  1  0  0  0
 16  3  1  0  0  0
 17  4  1  0  0  0
 35 21  1  0  0  0
 35 23  1  0  0  0
 35 24  1  0  0  0
 36 24  1  0  0  0
 36 26  1  0  0  0
 36 27  1  0  0  0
  1  2  2  0  0  0
  3 18  2  0  0  0
  4 19  2  0  0  0
 35 22  2  0  0  0
 36 25  2  0  0  0
M  CHG  2  23  -1  26  -1
M  END
> <rmsd>
0.662636936

$$$$
MolPort-003-939-824 MolPort-046-760-728 CHEMBL5081317 MCULE-3174866493 MCULE-6654114590 PubChem-119803 PubChem-154701544 PubChem-16667346 PubChem-71308616


 36 38  0  0  0  0  0  0  0  0999 V2000
   -1.8667   31.9647   57.3786 C   0  0  0  0  0
   -0.6812   31.2386   57.4675 C   0  0  0  0  0
   -0.6868   30.9042   55.1252 C   0  0  0  0  0
   -2.4410   32.1399   56.1232 C   0  0  0  0  0
    1.1429   29.9560   56.4614 C   0  0  0  0  0
    2.2941   30.8635   56.8201 C   0  0  0  0  0
    3.1760   29.9802   57.6553 C   0  0  0  0  0
    2.2054   28.9596   58.2088 C   0  0  0  0  0
    1.8716   29.3011   59.6505 C   0  0  0  0  0
    1.3349   27.5903   65.0889 C   0  0  0  0  0
    2.1067   26.3478   64.6211 C   0  0  0  0  0
    3.6044   26.4940   64.9064 C   0  0  0  0  0
    4.0198   27.9591   65.0590 C   0  0  0  0  0
    3.1029   28.7002   66.0539 C   0  0  0  0  0
    2.9076   30.1502   65.6340 C   0  0  0  0  0
   -0.1045   30.7129   56.3480 N   0  0  0  0  0
   -1.8436   31.6109   55.0249 N   0  0  0  0  0
   -0.1595   30.4316   54.0815 O   0  0  0  0  0
   -3.5126   32.7884   56.0059 O   0  0  0  0  0
    1.0238   28.9457   57.4363 O   0  0  0  0  0
    1.0729   28.2974   60.2023 O   0  0  0  0  0
   -0.4014   30.0890   61.4174 O   0  0  0  0  0
    1.8503   29.4279   62.6020 O   0  0  0  0  0
   -0.3233   27.6854   62.4917 O   0  0  0  0  0
   -2.2869   28.0699   64.1692 O   0  0  0  0  0
   -0.4387   29.8954   64.2932 O   0  0  0  0  0
   -0.0295   27.3224   65.2246 O   0  0  0  0  0
    1.8611   28.0600   66.3065 O   0  0  0  0  0
    2.2587   30.8540   66.6483 O   0  0  0  0  0
    5.3428   28.0371   65.4964 O   0  0  0  0  0
    4.3359   25.8951   63.8808 O   0  0  0  0  0
    1.6323   25.2039   65.2654 O   0  0  0  0  0
    4.1198   29.3191   56.8642 O   0  0  0  0  0
    2.9416   31.3148   55.6674 O   0  0  0  0  0
    0.5226   28.9192   61.6805 P   0  0  0  0  0
   -0.7935   28.2566   64.0324 P   0  0  0  0  0
  2 16  1  0  0  0
  3 17  1  0  0  0
  4  1  1  0  0  0
  5 16  1  0  0  0
  5  6  1  0  0  0
  5 20  1  0  0  0
  6  7  1  0  0  0
  6 34  1  0  0  0
  7  8  1  0  0  0
  7 33  1  0  0  0
  8 20  1  0  0  0
  8  9  1  0  0  0
  9 21  1  0  0  0
 10 27  1  0  0  0
 10 11  1  0  0  0
 10 28  1  0  0  0
 11 12  1  0  0  0
 11 32  1  0  0  0
 12 13  1  0  0  0
 12 31  1  0  0  0
 13 14  1  0  0  0
 13 30  1  0  0  0
 14 28  1  0  0  0
 14 15  1  0  0  0
 15 29  1  0  0  0
 16  3  1  0  0  0
 17  4  1  0  0  0
 35 21  1  0  0  0
 35 23  1  0  0  0
 35 24  1  0  0  0
 36 24  1  0  0  0
 36 26  1  0  0  0
 36 27  1  0  0  0
  1  2  2  0  0  0
  3 18  2  0  0  0
  4 19  2  0  0  0
 35 22  2  0  0  0
 36 25  2  0  0  0
M  CHG  2  23  -1  26  -1
M  END
> <rmsd>
0.402289689

$$$$
MolPort-016-581-139 44171668 MCULE-3953818072 MCULE-4540932395 MCULE-5024061800 PubChem-160698143 PubChem-9867013 ZINC000044171668 ZINC44171668


 29 31  0  0  0  0  0  0  0  0999 V2000
    0.8251   29.0264   64.6225 O   0  0  0  0  0
    2.4695   28.0688   62.4862 O   0  0  0  0  0
    2.6796   28.3813   60.2299 O   0  0  0  0  0
    0.6041   29.2988   57.4331 O   0  0  0  0  0
    2.9320   31.3105   55.9088 O   0  0  0  0  0
    3.8906   30.3196   58.0833 O   0  0  0  0  0
   -3.6877   33.0097   55.1622 O   0  0  0  0  0
   -0.2281   30.3697   53.9127 O   0  0  0  0  0
    2.8901   25.5957   59.8661 O   0  0  0  0  0
    3.5367   24.1245   62.2652 O   0  0  0  0  0
    3.9209   26.1954   64.0341 O   0  0  0  0  0
    1.6892   27.9394   64.7557 C   0  0  0  0  0
    1.8338   27.2285   63.4204 C   0  0  0  0  0
    2.2826   27.4808   61.2203 C   0  0  0  0  0
    1.4973   28.7331   59.5745 C   0  0  0  0  0
    1.8016   29.1669   58.1511 C   0  0  0  0  0
    0.8670   30.2559   56.4367 C   0  0  0  0  0
    1.9646   31.1896   56.9108 C   0  0  0  0  0
    2.5063   30.5046   58.1429 C   0  0  0  0  0
   -1.0134   31.6813   57.0830 C   0  0  0  0  0
   -2.1752   32.3891   56.7858 C   0  0  0  0  0
   -2.6412   32.3808   55.4714 C   0  0  0  0  0
   -0.8291   31.0006   54.8241 C   0  0  0  0  0
    3.1053   26.1893   61.1106 C   0  0  0  0  0
    2.6767   25.2235   62.2182 C   0  0  0  0  0
    2.6256   25.9246   63.5795 C   0  0  0  0  0
   -0.3503   30.9982   56.1057 N   0  0  0  0  0
   -1.9624   31.6887   54.5208 N   0  0  0  0  0
   -2.8309   33.0687   57.7591 F   0  0  0  0  0
 12  1  1  0  0  0
 13 12  1  0  0  0
 13  2  1  0  0  0
 14  2  1  0  0  0
 14  3  1  0  0  0
 14 24  1  0  0  0
 15  3  1  0  0  0
 16 15  1  0  0  0
 16  4  1  0  0  0
 17  4  1  0  0  0
 17 18  1  0  0  0
 17 27  1  0  0  0
 18  5  1  0  0  0
 18 19  1  0  0  0
 19  6  1  0  0  0
 19 16  1  0  0  0
 21 29  1  0  0  0
 21 22  1  0  0  0
 22 28  1  0  0  0
 23 27  1  0  0  0
 24  9  1  0  0  0
 24 25  1  0  0  0
 25 10  1  0  0  0
 25 26  1  0  0  0
 26 11  1  0  0  0
 26 13  1  0  0  0
 27 20  1  0  0  0
 28 23  1  0  0  0
 20 21  2  0  0  0
 22  7  2  0  0  0
 23  8  2  0  0  0
M  END
> <rmsd>
0.459257782

$$$$
MolPort-016-581-139 44171668 MCULE-3953818072 MCULE-4540932395 MCULE-5024061800 PubChem-160698143 PubChem-9867013 ZINC000044171668 ZINC44171668


 29 31  0  0  0  0  0  0  0  0999 V2000
   -0.0228   29.3807   64.8984 O   0  0  0  0  0
    0.4680   28.1275   62.4529 O   0  0  0  0  0
    0.6950   27.7909   60.1528 O   0  0  0  0  0
    0.5271   29.3746   57.7619 O   0  0  0  0  0
    3.0691   30.9732   56.2385 O   0  0  0  0  0
    3.7175   30.5286   58.6999 O   0  0  0  0  0
   -3.5341   33.1230   55.1680 O   0  0  0  0  0
   -0.1944   30.2381   54.1615 O   0  0  0  0  0
    2.9680   26.1569   60.6643 O   0  0  0  0  0
    4.1057   26.3954   63.3129 O   0  0  0  0  0
    2.5944   28.4746   64.3018 O   0  0  0  0  0
   -0.3411   28.0318   64.7282 C   0  0  0  0  0
    0.5345   27.3962   63.6538 C   0  0  0  0  0
    0.9976   27.2968   61.4403 C   0  0  0  0  0
    1.2153   29.0907   60.0370 C   0  0  0  0  0
    1.6484   29.3453   58.6057 C   0  0  0  0  0
    0.8580   30.2461   56.7061 C   0  0  0  0  0
    2.0015   31.1551   57.1219 C   0  0  0  0  0
    2.3408   30.6798   58.5117 C   0  0  0  0  0
   -0.9534   31.8075   57.2186 C   0  0  0  0  0
   -2.0742   32.5485   56.8538 C   0  0  0  0  0
   -2.5241   32.4684   55.5368 C   0  0  0  0  0
   -0.7748   30.9603   55.0166 C   0  0  0  0  0
    2.5056   27.0416   61.6396 C   0  0  0  0  0
    2.7397   26.4409   63.0276 C   0  0  0  0  0
    1.9918   27.2268   64.1081 C   0  0  0  0  0
   -0.3134   31.0250   56.3026 N   0  0  0  0  0
   -1.8685   31.6788   54.6482 N   0  0  0  0  0
   -2.7071   33.3268   57.7662 F   0  0  0  0  0
 12  1  1  0  0  0
 13 12  1  0  0  0
 13  2  1  0  0  0
 14  2  1  0  0  0
 14  3  1  0  0  0
 14 24  1  0  0  0
 15  3  1  0  0  0
 16 15  1  0  0  0
 16  4  1  0  0  0
 17  4  1  0  0  0
 17 18  1  0  0  0
 17 27  1  0  0  0
 18  5  1  0  0  0
 18 19  1  0  0  0
 19  6  1  0  0  0
 19 16  1  0  0  0
 21 29  1  0  0  0
 21 22  1  0  0  0
 22 28  1  0  0  0
 23 27  1  0  0  0
 24  9  1  0  0  0
 24 25  1  0  0  0
 25 10  1  0  0  0
 25 26  1  0  0  0
 26 11  1  0  0  0
 26 13  1  0  0  0
 27 20  1  0  0  0
 28 23  1  0  0  0
 20 21  2  0  0  0
 22  7  2  0  0  0
 23  8  2  0  0  0
M  END
> <rmsd>
0.600773811

$$$$
MolPort-016-581-139 44171668 MCULE-3953818072 MCULE-4540932395 MCULE-5024061800 PubChem-160698143 PubChem-9867013 ZINC000044171668 ZINC44171668


 29 31  0  0  0  0  0  0  0  0999 V2000
    0.7912   28.7491   64.7012 O   0  0  0  0  0
    2.7555   28.8488   62.6360 O   0  0  0  0  0
    2.8841   29.8235   60.5657 O   0  0  0  0  0
    0.6974   29.9917   57.7053 O   0  0  0  0  0
    2.9932   31.4041   55.6202 O   0  0  0  0  0
    4.0094   31.1231   57.9707 O   0  0  0  0  0
   -3.6613   33.2137   54.8891 O   0  0  0  0  0
   -0.3688   30.2115   54.0914 O   0  0  0  0  0
    3.3768   26.7514   59.8839 O   0  0  0  0  0
    5.4529   27.6498   62.6167 O   0  0  0  0  0
    3.9570   26.1562   64.2783 O   0  0  0  0  0
    1.8899   27.8904   64.6683 C   0  0  0  0  0
    2.3159   27.6505   63.2259 C   0  0  0  0  0
    2.7420   28.6150   61.2494 C   0  0  0  0  0
    1.6767   29.9940   59.8841 C   0  0  0  0  0
    1.9232   30.0388   58.3849 C   0  0  0  0  0
    0.9088   30.6657   56.4883 C   0  0  0  0  0
    2.0633   31.6396   56.6365 C   0  0  0  0  0
    2.6257   31.3197   58.0000 C   0  0  0  0  0
   -0.8827   32.2813   56.8910 C   0  0  0  0  0
   -2.0465   32.9431   56.5089 C   0  0  0  0  0
   -2.6104   32.6354   55.2716 C   0  0  0  0  0
   -0.8848   31.0678   54.8596 C   0  0  0  0  0
    3.8650   27.6491   60.8331 C   0  0  0  0  0
    4.4468   26.8802   62.0262 C   0  0  0  0  0
    3.3664   26.5221   63.0637 C   0  0  0  0  0
   -0.3113   31.3557   56.0678 N   0  0  0  0  0
   -2.0213   31.7070   54.4752 N   0  0  0  0  0
   -2.6111   33.8639   57.3290 F   0  0  0  0  0
 12  1  1  0  0  0
 13 12  1  0  0  0
 13  2  1  0  0  0
 14  2  1  0  0  0
 14  3  1  0  0  0
 14 24  1  0  0  0
 15  3  1  0  0  0
 16 15  1  0  0  0
 16  4  1  0  0  0
 17  4  1  0  0  0
 17 18  1  0  0  0
 17 27  1  0  0  0
 18  5  1  0  0  0
 18 19  1  0  0  0
 19  6  1  0  0  0
 19 16  1  0  0  0
 21 29  1  0  0  0
 21 22  1  0  0  0
 22 28  1  0  0  0
 23 27  1  0  0  0
 24  9  1  0  0  0
 24 25  1  0  0  0
 25 10  1  0  0  0
 25 26  1  0  0  0
 26 11  1  0  0  0
 26 13  1  0  0  0
 27 20  1  0  0  0
 28 23  1  0  0  0
 20 21  2  0  0  0
 22  7  2  0  0  0
 23  8  2  0  0  0
M  END
> <rmsd>
0.605371475

$$$$
MolPort-047-014-024 MCULE-2308154856 PubChem-110158307


 28 30  0  0  0  0  0  0  0  0999 V2000
    2.7983   28.9935   56.2165 C   0  0  0  0  0
    1.7532   29.9754   56.7186 C   0  0  0  0  0
    1.6908   29.9215   58.2481 C   0  0  0  0  0
    1.0655   28.6121   58.7883 C   0  0  0  0  0
    0.0098   28.9849   59.8597 C   0  0  0  0  0
    0.2160   28.2698   61.1915 C   0  0  0  0  0
    2.7005   28.2869   60.7261 C   0  0  0  0  0
    2.2095   27.7636   59.3734 C   0  0  0  0  0
    1.8177   29.0154   62.9701 C   0  0  0  0  0
    3.2091   29.2487   63.4706 C   0  0  0  0  0
    3.6379   28.1421   64.4211 C   0  0  0  0  0
    3.9820   26.8804   63.6519 C   0  0  0  0  0
   -0.4107   28.6404   57.0004 C   0  0  0  0  0
    0.3818   29.6056   56.1077 C   0  0  0  0  0
   -0.8851   31.5970   56.7763 C   0  0  0  0  0
   -1.6615   32.7142   56.4815 C   0  0  0  0  0
   -1.9670   32.9748   55.1444 C   0  0  0  0  0
   -0.7493   31.0564   54.4775 C   0  0  0  0  0
    1.5834   28.4989   61.6509 N   0  0  0  0  0
    4.3780   25.8397   64.5822 N   0  0  0  0  0
   -0.4349   30.7807   55.7797 N   0  0  0  0  0
   -1.5068   32.1437   54.1749 N   0  0  0  0  0
    0.8466   29.2641   63.7345 O   0  0  0  0  0
    0.4586   27.8350   57.7643 O   0  0  0  0  0
   -2.6661   33.9737   54.8302 O   0  0  0  0  0
   -0.3418   30.3103   53.5466 O   0  0  0  0  0
    2.1433   31.2573   56.3245 O   0  0  0  0  0
   -2.2761   33.8403   57.8980 Br  0  0  0  0  0
  2  1  1  0  0  0
  2  3  1  0  0  0
  2 27  1  0  0  0
  3  4  1  0  0  0
  4  5  1  0  0  0
  4 24  1  0  0  0
  5  6  1  0  0  0
  6 19  1  0  0  0
  7 19  1  0  0  0
  7  8  1  0  0  0
  8  4  1  0  0  0
 10  9  1  0  0  0
 10 11  1  0  0  0
 11 12  1  0  0  0
 12 20  1  0  0  0
 13 24  1  0  0  0
 13 14  1  0  0  0
 14 21  1  0  0  0
 14  2  1  0  0  0
 16 17  1  0  0  0
 16 28  1  0  0  0
 17 22  1  0  0  0
 18 21  1  0  0  0
 19  9  1  0  0  0
 21 15  1  0  0  0
 22 18  1  0  0  0
  9 23  2  0  0  0
 15 16  2  0  0  0
 17 25  2  0  0  0
 18 26  2  0  0  0
M  END
> <rmsd>
0.871524453

$$$$
MolPort-044-727-630 MCULE-1486897569 MCULE-3226121453 MCULE-8185792302 MCULE-8372022650 PubChem-137949194


 36 38  0  0  0  0  0  0  0  0999 V2000
    1.3379   28.5067   68.9989 O   0  0  0  0  0
    3.2344   28.1175   66.9079 O   0  0  0  0  0
    3.4568   28.6952   64.7014 O   0  0  0  0  0
    1.4086   27.4037   63.3195 O   0  0  0  0  0
    0.9638   29.4773   64.8372 O   0  0  0  0  0
    2.1697   29.9696   62.5763 O   0  0  0  0  0
    4.9038   29.4746   62.4269 O   0  0  0  0  0
    3.1808   27.9418   61.1910 O   0  0  0  0  0
    3.5497   30.3354   60.2012 O   0  0  0  0  0
    1.1308   30.1481   57.5388 O   0  0  0  0  0
    2.9223   32.0224   55.2969 O   0  0  0  0  0
    4.2117   31.8139   57.5146 O   0  0  0  0  0
   -3.9499   32.4408   55.0569 O   0  0  0  0  0
   -0.1953   30.1379   54.0096 O   0  0  0  0  0
    3.9081   25.5795   64.5534 O   0  0  0  0  0
    5.8726   26.7339   67.2526 O   0  0  0  0  0
    3.0023   24.6923   67.6283 O   0  0  0  0  0
    2.3662   27.5673   69.0717 C   0  0  0  0  0
    2.7068   27.0681   67.6803 C   0  0  0  0  0
    3.2552   27.6362   65.5886 C   0  0  0  0  0
    2.2762   30.3121   59.6268 C   0  0  0  0  0
    2.3842   30.4020   58.1148 C   0  0  0  0  0
    1.1262   30.8477   56.3189 C   0  0  0  0  0
    2.0747   32.0284   56.4081 C   0  0  0  0  0
    2.8259   31.7856   57.6953 C   0  0  0  0  0
   -0.9158   32.0848   56.8513 C   0  0  0  0  0
   -2.2107   32.5033   56.5542 C   0  0  0  0  0
   -2.7823   32.0820   55.3574 C   0  0  0  0  0
   -0.8159   30.8818   54.8166 C   0  0  0  0  0
    4.3615   26.5876   65.4034 C   0  0  0  0  0
    4.8198   25.9779   66.7363 C   0  0  0  0  0
    3.6944   25.8938   67.7787 C   0  0  0  0  0
    1.9821   28.8952   63.8828 P   0  0  0  0  0
    3.4330   29.3785   61.5961 P   0  0  0  0  0
   -0.2301   31.2844   55.9851 N   0  0  0  0  0
   -2.0792   31.2829   54.5150 N   0  0  0  0  0
 18  1  1  0  0  0
 19 18  1  0  0  0
 19  2  1  0  0  0
 20  2  1  0  0  0
 20  3  1  0  0  0
 20 30  1  0  0  0
 21  9  1  0  0  0
 22 21  1  0  0  0
 22 10  1  0  0  0
 23 10  1  0  0  0
 23 24  1  0  0  0
 23 35  1  0  0  0
 24 11  1  0  0  0
 24 25  1  0  0  0
 25 12  1  0  0  0
 25 22  1  0  0  0
 27 28  1  0  0  0
 28 36  1  0  0  0
 29 35  1  0  0  0
 30 15  1  0  0  0
 30 31  1  0  0  0
 31 16  1  0  0  0
 31 32  1  0  0  0
 32 17  1  0  0  0
 32 19  1  0  0  0
 33  3  1  0  0  0
 33  4  1  0  0  0
 33  6  1  0  0  0
 34  6  1  0  0  0
 34  7  1  0  0  0
 34  9  1  0  0  0
 35 26  1  0  0  0
 36 29  1  0  0  0
 26 27  2  0  0  0
 28 13  2  0  0  0
 29 14  2  0  0  0
 33  5  2  0  0  0
 34  8  2  0  0  0
M  CHG  2   4  -1   7  -1
M  END
> <rmsd>
0.842884541

$$$$
MolPort-019-936-973 67902873 CSSS00159278714 MCULE-1031362963 MCULE-4216405029 PubChem-5483905 ZINC000067902873


 42 46  0  0  0  0  0  0  0  0999 V2000
    1.8215   27.6288   62.6676 O   0  0  0  0  0
    4.3154   26.3065   63.8594 O   0  0  0  0  0
    4.8535   23.9041   62.8623 O   0  0  0  0  0
    2.5050   26.4920   60.7918 O   0  0  0  0  0
    5.0241   24.1437   60.0330 O   0  0  0  0  0
   -1.6199   32.3445   62.0967 O   0  0  0  0  0
    0.8544   30.9313   61.9099 O   0  0  0  0  0
    2.0140   29.7458   60.2901 O   0  0  0  0  0
   -1.7628   31.0624   57.6506 O   0  0  0  0  0
   -7.9571   32.4572   56.8987 O   0  0  0  0  0
   -2.1919   31.9720   54.1420 O   0  0  0  0  0
    0.4391   31.4162   54.3200 O   0  0  0  0  0
    2.6027   30.6996   55.6218 O   0  0  0  0  0
   -0.2228   29.2063   64.7798 O   0  0  0  0  0
    2.9131   30.6847   64.0807 O   0  0  0  0  0
    2.8922   26.9654   62.0629 C   0  0  0  0  0
    3.3692   25.8154   62.9567 C   0  0  0  0  0
    3.9570   24.6711   62.1135 C   0  0  0  0  0
    4.6294   25.2044   60.8481 C   0  0  0  0  0
    3.6664   26.1189   60.0676 C   0  0  0  0  0
    4.3905   27.3317   59.5051 C   0  0  0  0  0
    2.1429   28.9863   62.5810 C   0  0  0  0  0
    1.9851   29.6500   63.9578 C   0  0  0  0  0
    0.5717   30.1984   64.2057 C   0  0  0  0  0
   -0.0965   30.7078   62.9196 C   0  0  0  0  0
   -0.8569   31.9879   63.2087 C   0  0  0  0  0
    1.2744   29.6538   61.5025 C   0  0  0  0  0
    1.4450   30.1269   59.0714 C   0  0  0  0  0
    0.0777   30.4093   58.9542 C   0  0  0  0  0
   -0.4650   30.7954   57.7273 C   0  0  0  0  0
   -2.3711   31.4434   56.5279 C   0  0  0  0  0
   -3.8331   31.7111   56.5929 C   0  0  0  0  0
   -4.4992   31.5673   57.8205 C   0  0  0  0  0
   -5.8717   31.8122   57.9230 C   0  0  0  0  0
   -6.5967   32.2049   56.7962 C   0  0  0  0  0
   -5.9497   32.3499   55.5679 C   0  0  0  0  0
   -4.5769   32.1046   55.4683 C   0  0  0  0  0
   -1.6104   31.5747   55.3432 C   0  0  0  0  0
   -0.2392   31.3003   55.3775 C   0  0  0  0  0
    0.3621   30.9033   56.5869 C   0  0  0  0  0
    1.7409   30.6128   56.7094 C   0  0  0  0  0
    2.2650   30.2279   57.9469 C   0  0  0  0  0
 16  1  1  0  0  0
 16 17  1  0  0  0
 16  4  1  0  0  0
 17  2  1  0  0  0
 17 18  1  0  0  0
 18  3  1  0  0  0
 18 19  1  0  0  0
 19 20  1  0  0  0
 19  5  1  0  0  0
 20 21  1  0  0  0
 20  4  1  0  0  0
 22  1  1  0  0  0
 22 23  1  0  0  0
 23 24  1  0  0  0
 23 15  1  0  0  0
 24 25  1  0  0  0
 24 14  1  0  0  0
 25 26  1  0  0  0
 25  7  1  0  0  0
 26  6  1  0  0  0
 27  7  1  0  0  0
 27  8  1  0  0  0
 27 22  1  0  0  0
 28  8  1  0  0  0
 29 30  1  0  0  0
 30  9  1  0  0  0
 31  9  1  0  0  0
 31 32  1  0  0  0
 33 34  1  0  0  0
 35 10  1  0  0  0
 35 36  1  0  0  0
 37 32  1  0  0  0
 38 11  1  0  0  0
 38 39  1  0  0  0
 39 40  1  0  0  0
 40 41  1  0  0  0
 41 13  1  0  0  0
 42 28  1  0  0  0
 28 29  2  0  0  0
 31 38  2  0  0  0
 32 33  2  0  0  0
 34 35  2  0  0  0
 36 37  2  0  0  0
 39 12  2  0  0  0
 40 30  2  0  0  0
 41 42  2  0  0  0
M  END
> <rmsd>
0.605672598

$$$$
MolPort-019-936-973 67902873 CSSS00159278714 MCULE-1031362963 MCULE-4216405029 PubChem-5483905 ZINC000067902873


 42 46  0  0  0  0  0  0  0  0999 V2000
    2.3205   27.5131   62.3024 O   0  0  0  0  0
    4.1852   26.2215   64.3690 O   0  0  0  0  0
    5.1106   23.8328   63.6213 O   0  0  0  0  0
    3.7474   26.4551   60.8398 O   0  0  0  0  0
    6.4131   24.1654   61.1216 O   0  0  0  0  0
   -1.5322   31.5328   63.8878 O   0  0  0  0  0
    1.2090   30.8016   61.6919 O   0  0  0  0  0
    2.3038   29.6831   59.9833 O   0  0  0  0  0
   -1.6653   30.9535   57.6189 O   0  0  0  0  0
   -7.9444   32.0842   57.2380 O   0  0  0  0  0
   -2.3381   31.9761   54.1821 O   0  0  0  0  0
    0.3274   31.5496   54.1918 O   0  0  0  0  0
    2.5938   30.8878   55.3422 O   0  0  0  0  0
    0.2853   28.8859   64.4714 O   0  0  0  0  0
    3.3215   30.5838   63.7654 O   0  0  0  0  0
    3.5671   26.8982   62.1666 C   0  0  0  0  0
    3.6840   25.7350   63.1598 C   0  0  0  0  0
    4.5848   24.6217   62.5975 C   0  0  0  0  0
    5.7001   25.1991   61.7295 C   0  0  0  0  0
    5.1148   26.1265   60.6467 C   0  0  0  0  0
    5.9711   27.3691   60.4640 C   0  0  0  0  0
    2.5844   28.8842   62.2486 C   0  0  0  0  0
    2.4529   29.4988   63.6517 C   0  0  0  0  0
    1.0221   29.9572   63.9666 C   0  0  0  0  0
    0.3039   30.5420   62.7355 C   0  0  0  0  0
   -0.4153   31.8224   63.1092 C   0  0  0  0  0
    1.6384   29.5433   61.2336 C   0  0  0  0  0
    1.6545   30.0979   58.8157 C   0  0  0  0  0
    0.2725   30.3272   58.7874 C   0  0  0  0  0
   -0.3540   30.7465   57.6124 C   0  0  0  0  0
   -2.3491   31.3602   56.5511 C   0  0  0  0  0
   -3.8132   31.5555   56.7018 C   0  0  0  0  0
   -4.5682   32.2875   55.7715 C   0  0  0  0  0
   -5.9427   32.4650   55.9492 C   0  0  0  0  0
   -6.5776   31.9150   57.0645 C   0  0  0  0  0
   -5.8381   31.1908   58.0018 C   0  0  0  0  0
   -4.4632   31.0168   57.8233 C   0  0  0  0  0
   -1.6648   31.5768   55.3338 C   0  0  0  0  0
   -0.2824   31.3674   55.2808 C   0  0  0  0  0
    0.4029   30.9436   56.4352 C   0  0  0  0  0
    1.7973   30.7085   56.4684 C   0  0  0  0  0
    2.4053   30.2868   57.6544 C   0  0  0  0  0
 16  1  1  0  0  0
 16 17  1  0  0  0
 16  4  1  0  0  0
 17  2  1  0  0  0
 17 18  1  0  0  0
 18  3  1  0  0  0
 18 19  1  0  0  0
 19 20  1  0  0  0
 19  5  1  0  0  0
 20 21  1  0  0  0
 20  4  1  0  0  0
 22  1  1  0  0  0
 22 23  1  0  0  0
 23 24  1  0  0  0
 23 15  1  0  0  0
 24 25  1  0  0  0
 24 14  1  0  0  0
 25 26  1  0  0  0
 25  7  1  0  0  0
 26  6  1  0  0  0
 27  7  1  0  0  0
 27  8  1  0  0  0
 27 22  1  0  0  0
 28  8  1  0  0  0
 29 30  1  0  0  0
 30  9  1  0  0  0
 31  9  1  0  0  0
 31 32  1  0  0  0
 33 34  1  0  0  0
 35 10  1  0  0  0
 35 36  1  0  0  0
 37 32  1  0  0  0
 38 11  1  0  0  0
 38 39  1  0  0  0
 39 40  1  0  0  0
 40 41  1  0  0  0
 41 13  1  0  0  0
 42 28  1  0  0  0
 28 29  2  0  0  0
 31 38  2  0  0  0
 32 33  2  0  0  0
 34 35  2  0  0  0
 36 37  2  0  0  0
 39 12  2  0  0  0
 40 30  2  0  0  0
 41 42  2  0  0  0
M  END
> <rmsd>
0.619484007

$$$$
Molport-053-129-964


 40 44  0  0  0  0  0  0  0  0999 V2000
   -2.8271   32.9940   64.2464 N   0  0  0  0  0
   -2.6061   30.8319   62.1732 N   0  0  0  0  0
   -1.0081   29.2146   62.2183 N   0  0  0  0  0
    0.2283   29.8903   55.6242 N   0  0  0  0  0
   -1.5096   31.4945   55.4271 N   0  0  0  0  0
    0.1031   29.9775   64.2304 N   0  0  0  0  0
   -0.8820   31.9077   65.2104 N   0  0  0  0  0
   -1.8354   31.9666   64.2333 C   0  0  0  0  0
   -1.7991   30.9967   63.2379 C   0  0  0  0  0
   -2.0843   29.7284   61.5691 C   0  0  0  0  0
   -0.1967   28.0671   61.8017 C   0  0  0  0  0
    1.6402   26.8882   62.4259 C   0  0  0  0  0
    2.7725   27.1757   63.4277 C   0  0  0  0  0
    1.9139   27.3817   60.9856 C   0  0  0  0  0
    3.4669   27.0324   56.9351 C   0  0  0  0  0
    3.0437   27.7241   55.6294 C   0  0  0  0  0
    1.4377   29.2377   55.0752 C   0  0  0  0  0
    2.6922   30.0831   55.2962 C   0  0  0  0  0
    3.7914   29.0410   55.3232 C   0  0  0  0  0
   -0.2288   29.5620   56.8723 C   0  0  0  0  0
   -1.3410   30.1989   57.4142 C   0  0  0  0  0
   -1.9797   31.1777   56.6619 C   0  0  0  0  0
   -0.4160   30.8701   54.9086 C   0  0  0  0  0
    0.8671   28.4583   60.7831 C   0  0  0  0  0
   -0.8448   30.0384   63.2634 C   0  0  0  0  0
    0.0788   30.9281   65.2129 C   0  0  0  0  0
    0.4504   27.4814   62.9057 O   0  0  0  0  0
    3.9297   26.4549   63.0959 O   0  0  0  0  0
    3.2259   27.9016   60.8311 O   0  0  0  0  0
    3.9803   25.7662   59.4817 O   0  0  0  0  0
    5.5349   27.8570   59.3241 O   0  0  0  0  0
    3.0844   27.8143   58.0453 O   0  0  0  0  0
    1.6522   27.9704   55.6565 O   0  0  0  0  0
    2.6336   30.8339   56.4888 O   0  0  0  0  0
    4.7815   29.3628   56.2693 O   0  0  0  0  0
   -2.9888   31.7710   57.1273 O   0  0  0  0  0
   -0.0018   31.2060   53.7643 O   0  0  0  0  0
    1.3777   29.7527   61.0105 O   0  0  0  0  0
    3.9491   27.2787   59.4159 P   0  0  0  0  0
    5.3264   29.8801   59.2143 Na  0  0  0  0  0
  1  8  1  0  0  0
  3 25  1  0  0  0
  4 20  1  0  0  0
  5 23  1  0  0  0
  8  7  1  0  0  0
  9  2  1  0  0  0
 10  3  1  0  0  0
 11  3  1  0  0  0
 11 27  1  0  0  0
 12 27  1  0  0  0
 12 13  1  0  0  0
 12 14  1  0  0  0
 13 28  1  0  0  0
 14 29  1  0  0  0
 14 24  1  0  0  0
 15 32  1  0  0  0
 15 16  1  0  0  0
 16 33  1  0  0  0
 17 33  1  0  0  0
 17 18  1  0  0  0
 17  4  1  0  0  0
 18 34  1  0  0  0
 18 19  1  0  0  0
 19 35  1  0  0  0
 19 16  1  0  0  0
 21 22  1  0  0  0
 22  5  1  0  0  0
 23  4  1  0  0  0
 24 38  1  0  0  0
 24 11  1  0  0  0
 25  9  1  0  0  0
 26  6  1  0  0  0
 31 40  1  0  0  0
 39 29  1  0  0  0
 39 31  1  0  0  0
 39 32  1  0  0  0
  8  9  2  0  0  0
 10  2  2  0  0  0
 20 21  2  0  0  0
 22 36  2  0  0  0
 23 37  2  0  0  0
 25  6  2  0  0  0
 26  7  2  0  0  0
 39 30  2  0  0  0
M  END
> <rmsd>
0.785826802

$$$$
Molport-051-997-326 MCULE-5518674135 MCULE-7803325323 PubChem-644105


 34 36  0  0  0  0  0  0  0  0999 V2000
    4.9231   29.5863   66.5630 C   0  0  0  0  0
    5.9091   28.4382   66.7789 C   0  0  0  0  0
    5.3633   27.1800   66.1020 C   0  0  0  0  0
    4.9651   27.4726   64.6561 C   0  0  0  0  0
    4.0878   28.7321   64.5895 C   0  0  0  0  0
    0.2497   28.2610   59.0228 C   0  0  0  0  0
    0.9091   28.1567   57.6562 C   0  0  0  0  0
    2.1604   29.0111   57.6045 C   0  0  0  0  0
    1.6977   30.2376   56.8732 C   0  0  0  0  0
    0.5355   29.7290   56.0544 C   0  0  0  0  0
   -1.1569   31.2191   57.0031 C   0  0  0  0  0
   -2.1440   32.1937   56.8777 C   0  0  0  0  0
   -2.4343   32.6794   55.6063 C   0  0  0  0  0
   -0.8009   31.2499   54.6641 C   0  0  0  0  0
    4.7343   29.8419   65.1858 O   0  0  0  0  0
    2.8220   28.5150   65.1559 O   0  0  0  0  0
    0.3124   28.7543   64.5018 O   0  0  0  0  0
    1.9133   30.6408   63.6490 O   0  0  0  0  0
    1.9555   28.0504   62.5690 O   0  0  0  0  0
    1.6960   30.0543   60.8826 O   0  0  0  0  0
   -0.5444   29.0311   61.7895 O   0  0  0  0  0
    1.0622   27.6724   59.9952 O   0  0  0  0  0
   -0.0029   28.5790   56.6663 O   0  0  0  0  0
   -3.3188   33.5616   55.4561 O   0  0  0  0  0
   -0.1990   30.8298   53.6390 O   0  0  0  0  0
    2.6916   30.7613   56.0429 O   0  0  0  0  0
    3.1405   28.3299   56.8765 O   0  0  0  0  0
    4.2870   26.3808   64.1116 O   0  0  0  0  0
    6.3091   26.1538   66.1468 O   0  0  0  0  0
    7.1580   28.7822   66.2539 O   0  0  0  0  0
    1.7079   28.9897   63.9692 P   0  0  0  0  0
    1.0550   28.7499   61.3053 P   0  0  0  0  0
   -0.4939   30.7583   55.9031 N   0  0  0  0  0
   -1.7623   32.2011   54.5283 N   0  0  0  0  0
  1  2  1  0  0  0
  1 15  1  0  0  0
  2  3  1  0  0  0
  2 30  1  0  0  0
  3  4  1  0  0  0
  3 29  1  0  0  0
  4  5  1  0  0  0
  4 28  1  0  0  0
  5 15  1  0  0  0
  5 16  1  0  0  0
  6 22  1  0  0  0
  7  6  1  0  0  0
  7  8  1  0  0  0
  7 23  1  0  0  0
  8  9  1  0  0  0
  8 27  1  0  0  0
  9 10  1  0  0  0
  9 26  1  0  0  0
 10 23  1  0  0  0
 10 33  1  0  0  0
 12 13  1  0  0  0
 13 34  1  0  0  0
 14 33  1  0  0  0
 31 16  1  0  0  0
 31 18  1  0  0  0
 31 19  1  0  0  0
 32 19  1  0  0  0
 32 21  1  0  0  0
 32 22  1  0  0  0
 33 11  1  0  0  0
 34 14  1  0  0  0
 11 12  2  0  0  0
 13 24  2  0  0  0
 14 25  2  0  0  0
 31 17  2  0  0  0
 32 20  2  0  0  0
M  END
> <rmsd>
0.511655152

$$$$
MolPort-047-849-965 MolPort-051-524-051 CHEMBL375951 MCULE-2105037973 MCULE-8767349175 PubChem-56650434 PubChem-72165201 PubChem-8629 PubChem-89761043


 36 38  0  0  0  0  0  0  0  0999 V2000
   -4.0144   32.4984   55.3519 O   0  0  0  0  0
    1.1130   29.9376   57.4749 O   0  0  0  0  0
    3.3754   30.1922   60.2715 O   0  0  0  0  0
    3.7668   27.6067   60.1796 O   0  0  0  0  0
    4.9706   28.8797   62.1016 O   0  0  0  0  0
    2.2079   28.4350   62.1093 O   0  0  0  0  0
    0.8668   29.4921   64.0904 O   0  0  0  0  0
    2.4527   31.1263   62.8308 O   0  0  0  0  0
    3.4317   29.1641   64.5106 O   0  0  0  0  0
    2.6906   27.7607   66.2247 O   0  0  0  0  0
    2.7840   30.2725   67.6367 O   0  0  0  0  0
    4.6978   25.9660   67.5531 O   0  0  0  0  0
    6.1708   28.3978   65.3708 O   0  0  0  0  0
    4.0241   25.6040   64.6898 O   0  0  0  0  0
    4.0480   31.8593   57.7722 O   0  0  0  0  0
    2.9726   31.8423   55.4240 O   0  0  0  0  0
   -0.2899   30.3364   53.9530 O   0  0  0  0  0
   -2.8463   32.0945   55.5859 C   0  0  0  0  0
   -2.2569   32.3479   56.8206 C   0  0  0  0  0
   -0.9611   31.8873   57.0410 C   0  0  0  0  0
    1.0710   30.7365   56.3154 C   0  0  0  0  0
    2.3149   30.2539   58.1260 C   0  0  0  0  0
    2.1431   30.0678   59.6242 C   0  0  0  0  0
    3.1878   27.8398   64.8973 C   0  0  0  0  0
    3.6778   28.1013   67.1871 C   0  0  0  0  0
    3.9517   29.5995   67.2742 C   0  0  0  0  0
    4.9553   27.2588   67.0959 C   0  0  0  0  0
    5.5088   27.2068   65.6731 C   0  0  0  0  0
    4.4067   26.9455   64.6502 C   0  0  0  0  0
    2.6610   31.6873   57.8033 C   0  0  0  0  0
    2.0287   31.9065   56.4529 C   0  0  0  0  0
   -0.8957   30.9667   54.8618 C   0  0  0  0  0
   -0.2927   31.2055   56.0664 N   0  0  0  0  0
   -2.1599   31.4118   54.6342 N   0  0  0  0  0
    3.5778   28.7534   61.1481 P   0  0  0  0  0
    2.2100   29.5494   63.3970 P   0  0  0  0  0
 18 19  1  0  0  0
 20 33  1  0  0  0
 21 33  1  0  0  0
 21  2  1  0  0  0
 22  2  1  0  0  0
 22 23  1  0  0  0
 22 30  1  0  0  0
 23  3  1  0  0  0
 24  9  1  0  0  0
 24 10  1  0  0  0
 25 10  1  0  0  0
 25 26  1  0  0  0
 25 27  1  0  0  0
 26 11  1  0  0  0
 27 12  1  0  0  0
 27 28  1  0  0  0
 28 13  1  0  0  0
 28 29  1  0  0  0
 29 14  1  0  0  0
 29 24  1  0  0  0
 30 15  1  0  0  0
 30 31  1  0  0  0
 31 16  1  0  0  0
 31 21  1  0  0  0
 32 34  1  0  0  0
 33 32  1  0  0  0
 34 18  1  0  0  0
 35  3  1  0  0  0
 35  5  1  0  0  0
 35  6  1  0  0  0
 36  6  1  0  0  0
 36  8  1  0  0  0
 36  9  1  0  0  0
 18  1  2  0  0  0
 19 20  2  0  0  0
 32 17  2  0  0  0
 35  4  2  0  0  0
 36  7  2  0  0  0
M  END
> <rmsd>
0.746108472

$$$$
Molport-053-131-682


 36 38  0  0  0  0  0  0  0  0999 V2000
    5.5440   29.5811   60.9824 O   0  0  0  0  0
    2.9791   26.9957   60.8966 O   0  0  0  0  0
    1.2052   27.4908   62.3396 O   0  0  0  0  0
   -1.0051   26.4748   61.3302 O   0  0  0  0  0
    0.3603   28.0333   59.7342 O   0  0  0  0  0
    0.3474   29.3927   57.2698 O   0  0  0  0  0
    2.8373   31.0149   55.9324 O   0  0  0  0  0
    3.0966   31.2620   58.5426 O   0  0  0  0  0
   -4.0799   32.9696   54.9399 O   0  0  0  0  0
   -0.1802   31.0629   53.6376 O   0  0  0  0  0
   -1.1068   29.0263   61.8902 O   0  0  0  0  0
   -2.3246   30.0410   64.1480 O   0  0  0  0  0
    0.3256   29.3136   64.2626 O   0  0  0  0  0
   -1.5939   27.5414   64.0333 O   0  0  0  0  0
    1.7980   25.1818   63.8696 O   0  0  0  0  0
    4.5106   25.8413   64.5736 O   0  0  0  0  0
    5.6343   26.3869   62.1331 O   0  0  0  0  0
    4.7288   28.5765   60.4371 C   0  0  0  0  0
    3.8358   27.9453   61.5169 C   0  0  0  0  0
    2.0290   26.4653   61.8118 C   0  0  0  0  0
    0.7521   29.3824   59.6444 C   0  0  0  0  0
    1.3243   29.6507   58.2505 C   0  0  0  0  0
    0.5578   30.3035   56.2072 C   0  0  0  0  0
    1.6389   31.3162   56.6045 C   0  0  0  0  0
    1.7772   31.0942   58.0923 C   0  0  0  0  0
   -1.5704   31.3627   56.8618 C   0  0  0  0  0
   -2.7484   32.0417   56.5648 C   0  0  0  0  0
   -3.0195   32.3577   55.2383 C   0  0  0  0  0
   -0.9848   31.3464   54.5674 C   0  0  0  0  0
    2.7335   25.7064   62.9580 C   0  0  0  0  0
    3.7576   26.6083   63.6706 C   0  0  0  0  0
    4.6812   27.2914   62.6420 C   0  0  0  0  0
   -0.1551   27.7263   61.3316 P   0  0  0  0  0
   -1.1801   28.9283   63.5894 P   0  0  0  0  0
   -0.7040   30.9964   55.8667 N   0  0  0  0  0
   -2.1360   32.0100   54.2670 N   0  0  0  0  0
 18  1  1  0  0  0
 18 19  1  0  0  0
 19  2  1  0  0  0
 20  2  1  0  0  0
 20  3  1  0  0  0
 20 30  1  0  0  0
 21  5  1  0  0  0
 21 22  1  0  0  0
 22  6  1  0  0  0
 23  6  1  0  0  0
 23 24  1  0  0  0
 23 35  1  0  0  0
 24  7  1  0  0  0
 24 25  1  0  0  0
 25  8  1  0  0  0
 25 22  1  0  0  0
 27 28  1  0  0  0
 28 36  1  0  0  0
 29 35  1  0  0  0
 30 15  1  0  0  0
 30 31  1  0  0  0
 31 16  1  0  0  0
 31 32  1  0  0  0
 32 17  1  0  0  0
 32 19  1  0  0  0
 33  3  1  0  0  0
 33  5  1  0  0  0
 33 11  1  0  0  0
 34 11  1  0  0  0
 34 12  1  0  0  0
 34 13  1  0  0  0
 35 26  1  0  0  0
 36 29  1  0  0  0
 26 27  2  0  0  0
 28  9  2  0  0  0
 29 10  2  0  0  0
 33  4  2  0  0  0
 34 14  2  0  0  0
M  END
> <rmsd>
0.630170822

$$$$
Molport-053-131-682


 36 38  0  0  0  0  0  0  0  0999 V2000
    6.8550   30.5413   60.2559 O   0  0  0  0  0
    4.7288   27.6144   60.6834 O   0  0  0  0  0
    3.1600   27.9284   62.3905 O   0  0  0  0  0
    0.9929   26.5527   61.8010 O   0  0  0  0  0
    1.8296   28.2011   59.9508 O   0  0  0  0  0
    1.2106   29.4079   57.4847 O   0  0  0  0  0
    3.1764   31.2945   55.6968 O   0  0  0  0  0
    3.8179   31.7185   58.2168 O   0  0  0  0  0
   -4.0242   32.1810   55.8325 O   0  0  0  0  0
   -0.1474   30.7842   53.9460 O   0  0  0  0  0
    0.6014   29.0900   62.2935 O   0  0  0  0  0
   -0.3703   30.0417   64.6936 O   0  0  0  0  0
    2.3420   29.7088   64.3793 O   0  0  0  0  0
    0.6994   27.6700   64.5316 O   0  0  0  0  0
    4.3348   25.8152   63.8663 O   0  0  0  0  0
    6.9955   26.8940   64.0806 O   0  0  0  0  0
    7.6111   27.4607   61.4698 O   0  0  0  0  0
    6.1223   29.4020   59.8869 C   0  0  0  0  0
    5.5226   28.7093   61.1209 C   0  0  0  0  0
    4.0315   27.0041   61.7617 C   0  0  0  0  0
    1.9941   29.5855   59.7556 C   0  0  0  0  0
    2.2844   29.8564   58.2775 C   0  0  0  0  0
    1.1055   30.2800   56.3750 C   0  0  0  0  0
    2.0722   31.4572   56.5530 C   0  0  0  0  0
    2.4832   31.3390   58.0018 C   0  0  0  0  0
   -1.0221   31.0576   57.3487 C   0  0  0  0  0
   -2.3213   31.5436   57.2354 C   0  0  0  0  0
   -2.8496   31.7445   55.9651 C   0  0  0  0  0
   -0.8230   30.9999   54.9898 C   0  0  0  0  0
    5.0194   26.4178   62.7942 C   0  0  0  0  0
    5.9986   27.4947   63.2957 C   0  0  0  0  0
    6.6287   28.2458   62.1055 C   0  0  0  0  0
    1.6338   27.9112   61.6209 P   0  0  0  0  0
    0.8219   29.0756   63.9828 P   0  0  0  0  0
   -0.2846   30.7653   56.2326 N   0  0  0  0  0
   -2.0942   31.4744   54.8691 N   0  0  0  0  0
 18  1  1  0  0  0
 18 19  1  0  0  0
 19  2  1  0  0  0
 20  2  1  0  0  0
 20  3  1  0  0  0
 20 30  1  0  0  0
 21  5  1  0  0  0
 21 22  1  0  0  0
 22  6  1  0  0  0
 23  6  1  0  0  0
 23 24  1  0  0  0
 23 35  1  0  0  0
 24  7  1  0  0  0
 24 25  1  0  0  0
 25  8  1  0  0  0
 25 22  1  0  0  0
 27 28  1  0  0  0
 28 36  1  0  0  0
 29 35  1  0  0  0
 30 15  1  0  0  0
 30 31  1  0  0  0
 31 16  1  0  0  0
 31 32  1  0  0  0
 32 17  1  0  0  0
 32 19  1  0  0  0
 33  3  1  0  0  0
 33  5  1  0  0  0
 33 11  1  0  0  0
 34 11  1  0  0  0
 34 12  1  0  0  0
 34 13  1  0  0  0
 35 26  1  0  0  0
 36 29  1  0  0  0
 26 27  2  0  0  0
 28  9  2  0  0  0
 29 10  2  0  0  0
 33  4  2  0  0  0
 34 14  2  0  0  0
M  END
> <rmsd>
0.472624779

$$$$
Molport-053-131-682


 36 38  0  0  0  0  0  0  0  0999 V2000
    6.8517   30.4193   60.0676 O   0  0  0  0  0
    4.4444   27.7907   60.8195 O   0  0  0  0  0
    2.9636   28.4343   62.5127 O   0  0  0  0  0
    0.6498   27.2461   62.0991 O   0  0  0  0  0
    1.6034   28.6084   60.0804 O   0  0  0  0  0
    1.0472   29.6285   57.5170 O   0  0  0  0  0
    3.1498   31.1124   55.5178 O   0  0  0  0  0
    3.8998   31.7089   57.9721 O   0  0  0  0  0
   -3.9129   32.7688   55.6840 O   0  0  0  0  0
   -0.2551   30.7908   53.8819 O   0  0  0  0  0
    0.5383   29.8465   62.3430 O   0  0  0  0  0
   -0.2638   31.1250   64.6522 O   0  0  0  0  0
    2.3896   30.4765   64.3277 O   0  0  0  0  0
    0.5481   28.6486   64.7094 O   0  0  0  0  0
    3.9512   26.3617   64.1719 O   0  0  0  0  0
    6.7147   27.1670   64.2335 O   0  0  0  0  0
    7.3152   27.4084   61.5694 O   0  0  0  0  0
    5.9946   29.3339   59.8260 C   0  0  0  0  0
    5.3595   28.8323   61.1326 C   0  0  0  0  0
    3.7167   27.3658   61.9647 C   0  0  0  0  0
    1.9060   29.9418   59.7457 C   0  0  0  0  0
    2.1829   30.0352   58.2433 C   0  0  0  0  0
    1.0036   30.3948   56.3279 C   0  0  0  0  0
    2.0921   31.4742   56.3717 C   0  0  0  0  0
    2.5276   31.4544   57.8181 C   0  0  0  0  0
   -1.0043   31.4853   57.2544 C   0  0  0  0  0
   -2.2484   32.0934   57.1149 C   0  0  0  0  0
   -2.7870   32.2248   55.8399 C   0  0  0  0  0
   -0.8761   31.1776   54.9101 C   0  0  0  0  0
    4.6657   26.7809   63.0338 C   0  0  0  0  0
    5.7649   27.7912   63.4093 C   0  0  0  0  0
    6.4375   28.3517   62.1400 C   0  0  0  0  0
    1.4236   28.5047   61.7741 P   0  0  0  0  0
    0.8016   29.9730   64.0214 P   0  0  0  0  0
   -0.3317   31.0090   56.1609 N   0  0  0  0  0
   -2.0937   31.7706   54.7638 N   0  0  0  0  0
 18  1  1  0  0  0
 18 19  1  0  0  0
 19  2  1  0  0  0
 20  2  1  0  0  0
 20  3  1  0  0  0
 20 30  1  0  0  0
 21  5  1  0  0  0
 21 22  1  0  0  0
 22  6  1  0  0  0
 23  6  1  0  0  0
 23 24  1  0  0  0
 23 35  1  0  0  0
 24  7  1  0  0  0
 24 25  1  0  0  0
 25  8  1  0  0  0
 25 22  1  0  0  0
 27 28  1  0  0  0
 28 36  1  0  0  0
 29 35  1  0  0  0
 30 15  1  0  0  0
 30 31  1  0  0  0
 31 16  1  0  0  0
 31 32  1  0  0  0
 32 17  1  0  0  0
 32 19  1  0  0  0
 33  3  1  0  0  0
 33  5  1  0  0  0
 33 11  1  0  0  0
 34 11  1  0  0  0
 34 12  1  0  0  0
 34 13  1  0  0  0
 35 26  1  0  0  0
 36 29  1  0  0  0
 26 27  2  0  0  0
 28  9  2  0  0  0
 29 10  2  0  0  0
 33  4  2  0  0  0
 34 14  2  0  0  0
M  END
> <rmsd>
0.451697022

$$$$
Molport-053-131-682


 36 38  0  0  0  0  0  0  0  0999 V2000
   -0.2901   29.8330   64.8976 O   0  0  0  0  0
    1.6911   28.0114   64.1180 O   0  0  0  0  0
    1.7437   26.7986   62.1566 O   0  0  0  0  0
   -0.4120   26.0312   60.8881 O   0  0  0  0  0
    0.7153   28.2563   60.0188 O   0  0  0  0  0
    0.8146   28.5989   57.2666 O   0  0  0  0  0
    3.1050   30.9664   56.1939 O   0  0  0  0  0
    4.0686   29.6576   58.2806 O   0  0  0  0  0
   -3.6704   32.5271   55.9266 O   0  0  0  0  0
   -0.0322   30.6048   54.0251 O   0  0  0  0  0
   -0.6768   28.1440   62.4510 O   0  0  0  0  0
   -3.0093   27.0988   61.3370 O   0  0  0  0  0
   -3.0604   29.5133   62.6741 O   0  0  0  0  0
   -1.8765   29.2516   60.3650 O   0  0  0  0  0
    4.1100   26.3259   63.1444 O   0  0  0  0  0
    5.7042   28.9264   63.9275 O   0  0  0  0  0
    3.5344   30.6275   63.4509 O   0  0  0  0  0
    0.9903   30.3122   64.5802 C   0  0  0  0  0
    2.0506   29.2153   64.8023 C   0  0  0  0  0
    2.2971   27.9108   62.8363 C   0  0  0  0  0
    1.7036   27.5895   59.2658 C   0  0  0  0  0
    2.0059   28.3706   57.9784 C   0  0  0  0  0
    1.0394   29.7439   56.4672 C   0  0  0  0  0
    2.1179   30.6192   57.1342 C   0  0  0  0  0
    2.6595   29.7317   58.2490 C   0  0  0  0  0
   -0.9526   30.8102   57.4221 C   0  0  0  0  0
   -2.1484   31.5143   57.3164 C   0  0  0  0  0
   -2.5896   31.8906   56.0520 C   0  0  0  0  0
   -0.6829   30.8813   55.0697 C   0  0  0  0  0
    3.8269   27.6992   62.9831 C   0  0  0  0  0
    4.3910   28.4962   64.1942 C   0  0  0  0  0
    3.5054   29.7118   64.5233 C   0  0  0  0  0
    0.3104   27.2769   61.3604 P   0  0  0  0  0
   -2.1373   28.5151   61.6603 P   0  0  0  0  0
   -0.2257   30.4915   56.3060 N   0  0  0  0  0
   -1.8536   31.5714   54.9563 N   0  0  0  0  0
 18  1  1  0  0  0
 18 19  1  0  0  0
 19  2  1  0  0  0
 20  2  1  0  0  0
 20  3  1  0  0  0
 20 30  1  0  0  0
 21  5  1  0  0  0
 21 22  1  0  0  0
 22  6  1  0  0  0
 23  6  1  0  0  0
 23 24  1  0  0  0
 23 35  1  0  0  0
 24  7  1  0  0  0
 24 25  1  0  0  0
 25  8  1  0  0  0
 25 22  1  0  0  0
 27 28  1  0  0  0
 28 36  1  0  0  0
 29 35  1  0  0  0
 30 15  1  0  0  0
 30 31  1  0  0  0
 31 16  1  0  0  0
 31 32  1  0  0  0
 32 17  1  0  0  0
 32 19  1  0  0  0
 33  3  1  0  0  0
 33  5  1  0  0  0
 33 11  1  0  0  0
 34 11  1  0  0  0
 34 12  1  0  0  0
 34 13  1  0  0  0
 35 26  1  0  0  0
 36 29  1  0  0  0
 26 27  2  0  0  0
 28  9  2  0  0  0
 29 10  2  0  0  0
 33  4  2  0  0  0
 34 14  2  0  0  0
M  END
> <rmsd>
0.604351223

$$$$
MolPort-027-835-915 8551990 CHEMBL2228796 CSSS00016990754 LN00201961 MCULE-1768930696 MCULE-2463080796 PubChem-181351 PubChem-181352 ZINC000008551990


 35 36  0  0  0  0  0  0  0  0999 V2000
    2.2144   29.7464   66.1873 N   0  0  0  0  0
    2.4341   21.8778   62.7833 N   0  0  0  0  0
    1.0783   29.3042   62.8880 N   0  0  0  0  0
   -0.7446   31.2937   57.8283 N   0  0  0  0  0
   -1.5312   31.6230   55.6250 N   0  0  0  0  0
    2.2635   28.8261   65.0622 C   0  0  0  0  0
    2.4797   27.3935   65.5559 C   0  0  0  0  0
    2.6447   26.4227   64.3859 C   0  0  0  0  0
    2.5787   24.9874   64.8756 C   0  0  0  0  0
    2.4749   22.7187   63.9295 C   0  0  0  0  0
    1.0020   28.9420   64.2676 C   0  0  0  0  0
   -0.0922   29.3493   62.0198 C   0  0  0  0  0
    0.2249   30.1352   60.7466 C   0  0  0  0  0
   -0.9352   31.4121   59.2750 C   0  0  0  0  0
    0.1005   32.3296   59.8907 C   0  0  0  0  0
    0.5970   31.5647   61.0708 C   0  0  0  0  0
    0.3962   30.7274   57.3403 C   0  0  0  0  0
    0.5911   30.5947   55.9672 C   0  0  0  0  0
    1.8581   29.9971   55.4525 C   0  0  0  0  0
   -0.4060   31.0670   55.1075 C   0  0  0  0  0
   -1.7098   31.7382   56.9676 C   0  0  0  0  0
   -0.5228   27.9552   61.6872 C   0  0  0  0  0
    3.5996   27.3349   66.3919 O   0  0  0  0  0
    3.8550   26.6480   63.7246 O   0  0  0  0  0
    2.5377   24.1023   63.7654 O   0  0  0  0  0
    2.4551   22.2047   65.0801 O   0  0  0  0  0
   -0.1145   28.7137   64.8092 O   0  0  0  0  0
   -0.8894   30.1425   59.8853 O   0  0  0  0  0
   -0.5075   33.5099   60.3157 O   0  0  0  0  0
    1.9833   31.6867   61.1608 O   0  0  0  0  0
    2.8091   31.0000   55.2648 O   0  0  0  0  0
   -0.2722   30.9806   53.8576 O   0  0  0  0  0
   -2.7707   32.2597   57.4061 O   0  0  0  0  0
    0.3449   27.0877   61.0343 O   0  0  0  0  0
   -1.6756   27.5647   62.0053 O   0  0  0  0  0
  4 17  1  0  0  0
  5 21  1  0  0  0
  6  1  1  0  0  0
  6  7  1  0  0  0
  6 11  1  0  0  0
  7 23  1  0  0  0
  7  8  1  0  0  0
  8 24  1  0  0  0
  8  9  1  0  0  0
  9 25  1  0  0  0
 10 25  1  0  0  0
 10  2  1  0  0  0
 11  3  1  0  0  0
 12  3  1  0  0  0
 12 13  1  0  0  0
 12 22  1  0  0  0
 13 28  1  0  0  0
 14 28  1  0  0  0
 14 15  1  0  0  0
 14  4  1  0  0  0
 15 29  1  0  0  0
 15 16  1  0  0  0
 16 30  1  0  0  0
 16 13  1  0  0  0
 18 20  1  0  0  0
 19 18  1  0  0  0
 19 31  1  0  0  0
 20  5  1  0  0  0
 21  4  1  0  0  0
 22 34  1  0  0  0
 10 26  2  0  0  0
 11 27  2  0  0  0
 17 18  2  0  0  0
 20 32  2  0  0  0
 21 33  2  0  0  0
 22 35  2  0  0  0
M  END
> <rmsd>
0.620677352

$$$$
