PubChem-156574190


 32 35  0  0  0  0  0  0  0  0999 V2000
    1.9060   26.4971   65.1075 C   0  0  0  0  0
    3.0004   28.3473   63.8796 C   0  0  0  0  0
    4.2102   28.1703   64.5711 C   0  0  0  0  0
    5.3083   28.9896   64.2993 C   0  0  0  0  0
    5.2087   29.9956   63.3364 C   0  0  0  0  0
    4.0165   30.1749   62.6311 C   0  0  0  0  0
    2.9037   29.3513   62.9050 C   0  0  0  0  0
    3.8924   31.3238   61.6664 C   0  0  0  0  0
    1.5487   28.6834   59.3097 C   0  0  0  0  0
    1.9171   28.5505   57.8341 C   0  0  0  0  0
    2.9681   29.5960   57.4657 C   0  0  0  0  0
    2.1622   30.6327   56.7360 C   0  0  0  0  0
    1.0003   29.8346   56.1956 C   0  0  0  0  0
   -0.7640   31.1966   57.2024 C   0  0  0  0  0
   -1.9099   31.9817   57.1156 C   0  0  0  0  0
   -2.4677   32.2036   55.8549 C   0  0  0  0  0
   -0.7679   30.8905   54.8574 C   0  0  0  0  0
    1.8898   27.5371   64.1393 O   0  0  0  0  0
    1.7102   29.5147   62.1961 O   0  0  0  0  0
    0.9316   31.8631   61.2615 O   0  0  0  0  0
    3.2685   30.9461   60.4641 O   0  0  0  0  0
    0.8617   29.8775   59.5512 O   0  0  0  0  0
    0.7635   28.7303   57.0387 O   0  0  0  0  0
   -3.5040   32.9075   55.7273 O   0  0  0  0  0
   -0.2607   30.3991   53.8131 O   0  0  0  0  0
    2.8807   31.2233   55.6934 O   0  0  0  0  0
    3.9403   29.0392   56.6250 O   0  0  0  0  0
    1.6544   30.5956   60.8648 P   0  0  0  0  0
   -0.2022   30.6613   56.0811 N   0  0  0  0  0
   -1.8874   31.6551   54.7570 N   0  0  0  0  0
   -2.6125   32.6615   58.5732 Cl  0  0  0  0  0
    2.4078   27.2709   57.6336 F   0  0  0  0  0
  1 18  1  0  0  0
  2 18  1  0  0  0
  3  4  1  0  0  0
  5  6  1  0  0  0
  7 19  1  0  0  0
  7  2  1  0  0  0
  8 21  1  0  0  0
  8  6  1  0  0  0
  9 22  1  0  0  0
  9 10  1  0  0  0
 10 11  1  0  0  0
 10 32  1  0  0  0
 10 23  1  0  0  0
 11 12  1  0  0  0
 11 27  1  0  0  0
 12 13  1  0  0  0
 12 26  1  0  0  0
 13 23  1  0  0  0
 13 29  1  0  0  0
 15 16  1  0  0  0
 15 31  1  0  0  0
 16 30  1  0  0  0
 17 29  1  0  0  0
 28 19  1  0  0  0
 28 21  1  0  0  0
 28 22  1  0  0  0
 29 14  1  0  0  0
 30 17  1  0  0  0
  2  3  2  0  0  0
  4  5  2  0  0  0
  6  7  2  0  0  0
 14 15  2  0  0  0
 16 24  2  0  0  0
 17 25  2  0  0  0
 28 20  2  0  0  0
M  END
> <rmsd>
0.518772125

$$$$
