PubChem-117619154


 28 30  0  0  0  0  0  0  0  0999 V2000
    0.6137   30.4483   54.1934 C   0  0  0  0  0
    1.1152   29.7671   55.4207 C   0  0  0  0  0
    1.9589   28.4903   57.6910 C   0  0  0  0  0
    2.8553   29.2642   56.9363 C   0  0  0  0  0
    2.3790   27.7620   58.9079 C   0  0  0  0  0
    1.7139   27.8968   60.1560 C   0  0  0  0  0
    2.0960   27.0501   61.2366 C   0  0  0  0  0
    3.1756   26.1463   61.0735 C   0  0  0  0  0
    3.8391   26.0760   59.8508 C   0  0  0  0  0
    3.4403   26.8638   58.7811 C   0  0  0  0  0
    4.8584   23.8532   61.7244 C   0  0  0  0  0
    1.3537   27.0746   62.5125 C   0  0  0  0  0
   -0.2993   26.8801   64.1592 C   0  0  0  0  0
   -0.0711   26.6634   62.6643 C   0  0  0  0  0
   -1.1297   28.5071   59.9962 C   0  0  0  0  0
    0.2621   29.0113   56.1568 N   0  0  0  0  0
    0.6749   28.3884   57.2597 N   0  0  0  0  0
    2.4144   29.8919   55.8108 N   0  0  0  0  0
    1.8859   27.4473   63.6224 N   0  0  0  0  0
    4.0569   29.3913   57.2993 O   0  0  0  0  0
    3.2874   30.6572   55.0683 O   0  0  0  0  0
    2.5329   24.3214   62.9343 O   0  0  0  0  0
    4.3936   25.8456   63.4416 O   0  0  0  0  0
    0.9553   27.3522   64.6216 O   0  0  0  0  0
    0.7549   30.3425   59.4911 O   0  0  0  0  0
    0.4768   29.6643   61.8009 O   0  0  0  0  0
    3.7113   25.0565   62.3602 S   0  0  0  0  0
    0.4754   29.1656   60.3832 S   0  0  0  0  0
  1  2  1  0  0  0
  3  4  1  0  0  0
  3  5  1  0  0  0
  4 18  1  0  0  0
  6  7  1  0  0  0
  7 12  1  0  0  0
  8  9  1  0  0  0
 10  5  1  0  0  0
 13 24  1  0  0  0
 13 14  1  0  0  0
 14 12  1  0  0  0
 16 17  1  0  0  0
 18 21  1  0  0  0
 18  2  1  0  0  0
 19 24  1  0  0  0
 27  8  1  0  0  0
 27 11  1  0  0  0
 28  6  1  0  0  0
 28 15  1  0  0  0
  2 16  2  0  0  0
  3 17  2  0  0  0
  4 20  2  0  0  0
  5  6  2  0  0  0
  7  8  2  0  0  0
  9 10  2  0  0  0
 12 19  2  0  0  0
 27 22  2  0  0  0
 27 23  2  0  0  0
 28 25  2  0  0  0
 28 26  2  0  0  0
M  END
> <rmsd>
0.730378807

$$$$
PubChem-156451625


 23 25  0  0  0  0  0  0  0  0999 V2000
   -0.8005   31.9339   63.0607 C   0  0  0  0  0
   -0.5012   30.6450   62.3214 C   0  0  0  0  0
   -0.3824   30.9180   60.8531 C   0  0  0  0  0
    1.0634   30.6064   60.5423 C   0  0  0  0  0
    0.8661   30.1348   62.7187 C   0  0  0  0  0
    0.7148   28.9188   63.6153 C   0  0  0  0  0
    0.6244   28.6198   58.9058 C   0  0  0  0  0
    1.8250   29.5281   57.1558 C   0  0  0  0  0
    1.8977   30.3821   58.1360 C   0  0  0  0  0
    3.3965   31.8263   56.8116 C   0  0  0  0  0
    2.5037   29.7710   55.8411 C   0  0  0  0  0
    3.9914   28.6868   54.3954 C   0  0  0  0  0
    1.5764   29.7867   61.5582 O   0  0  0  0  0
    1.9700   28.4941   64.0578 O   0  0  0  0  0
    1.9877   26.6083   62.2245 O   0  0  0  0  0
    0.7250   26.0419   64.4488 O   0  0  0  0  0
    3.4736   26.1982   64.3329 O   0  0  0  0  0
    2.0315   26.8329   63.7197 P   0  0  0  0  0
    1.1697   29.9312   59.2580 N   0  0  0  0  0
    1.0655   28.3839   57.5250 N   0  0  0  0  0
    2.5873   31.6230   58.0149 N   0  0  0  0  0
    2.7419   31.2162   55.6394 N   0  0  0  0  0
    3.7601   29.0378   55.7858 N   0  0  0  0  0
  2  1  1  0  0  0
  2  3  1  0  0  0
  3  4  1  0  0  0
  4 13  1  0  0  0
  4 19  1  0  0  0
  5 13  1  0  0  0
  5  6  1  0  0  0
  5  2  1  0  0  0
  6 14  1  0  0  0
  7 19  1  0  0  0
  7 20  1  0  0  0
  9 21  1  0  0  0
  9 19  1  0  0  0
 10 21  1  0  0  0
 10 22  1  0  0  0
 11 22  1  0  0  0
 11 23  1  0  0  0
 11  8  1  0  0  0
 12 23  1  0  0  0
 18 14  1  0  0  0
 18 16  1  0  0  0
 18 17  1  0  0  0
 20  8  1  0  0  0
  8  9  2  0  0  0
 18 15  2  0  0  0
M  END
> <rmsd>
0.636937797

$$$$
PubChem-20400417


 27 27  0  0  0  0  0  0  0  0999 V2000
    1.0575   26.4450   56.4939 C   0  0  0  0  0
    1.1628   27.8874   56.8490 C   0  0  0  0  0
    2.3351   28.3656   57.6548 C   0  0  0  0  0
    1.9213   28.9040   58.9968 C   0  0  0  0  0
    2.3499   28.2183   60.2440 C   0  0  0  0  0
    2.0021   28.6953   61.5299 C   0  0  0  0  0
    2.4000   27.9753   62.6794 C   0  0  0  0  0
    3.2244   26.8382   62.5517 C   0  0  0  0  0
    3.5781   26.3927   61.2733 C   0  0  0  0  0
    3.1394   27.0670   60.1386 C   0  0  0  0  0
    4.4761   25.0351   63.7654 C   0  0  0  0  0
    4.9034   24.5155   65.0900 C   0  0  0  0  0
    1.4195   27.5856   64.9212 C   0  0  0  0  0
    1.2066   28.1192   66.2912 C   0  0  0  0  0
    1.5211   30.9187   62.5082 C   0  0  0  0  0
    0.5173   31.9946   62.7131 C   0  0  0  0  0
    3.1827   29.3386   56.8972 C   0  0  0  0  0
    0.2948   28.6649   56.4832 O   0  0  0  0  0
    1.2037   29.9404   59.0453 O   0  0  0  0  0
    3.6916   26.1962   63.7119 O   0  0  0  0  0
    4.8213   24.4173   62.7235 O   0  0  0  0  0
    1.9701   28.4165   63.9396 O   0  0  0  0  0
    1.0602   26.4082   64.6517 O   0  0  0  0  0
    1.2207   29.8540   61.6519 O   0  0  0  0  0
    2.6438   31.0022   63.0746 O   0  0  0  0  0
    4.3818   29.0535   56.6447 O   0  0  0  0  0
    2.6602   30.5553   56.4746 O   0  0  0  0  0
  1  2  1  0  0  0
  3  2  1  0  0  0
  3  4  1  0  0  0
  3 17  1  0  0  0
  4  5  1  0  0  0
  6  7  1  0  0  0
  6 24  1  0  0  0
  7 22  1  0  0  0
  8  9  1  0  0  0
  8 20  1  0  0  0
 10  5  1  0  0  0
 11 20  1  0  0  0
 12 11  1  0  0  0
 13 22  1  0  0  0
 14 13  1  0  0  0
 15 24  1  0  0  0
 16 15  1  0  0  0
 17 27  1  0  0  0
  2 18  2  0  0  0
  4 19  2  0  0  0
  5  6  2  0  0  0
  7  8  2  0  0  0
  9 10  2  0  0  0
 11 21  2  0  0  0
 13 23  2  0  0  0
 15 25  2  0  0  0
 17 26  2  0  0  0
M  CHG  1  27  -1
M  END
> <rmsd>
0.662463009

$$$$
PubChem-20400417


 27 27  0  0  0  0  0  0  0  0999 V2000
    1.0889   26.4568   56.4312 C   0  0  0  0  0
    1.1825   27.8955   56.8049 C   0  0  0  0  0
    2.3418   28.3693   57.6316 C   0  0  0  0  0
    1.9072   28.8899   58.9742 C   0  0  0  0  0
    2.3179   28.1885   60.2187 C   0  0  0  0  0
    1.9270   28.6324   61.5038 C   0  0  0  0  0
    2.3543   27.9310   62.6541 C   0  0  0  0  0
    3.1693   26.7866   62.5223 C   0  0  0  0  0
    3.5241   26.3459   61.2425 C   0  0  0  0  0
    3.1044   27.0357   60.1102 C   0  0  0  0  0
    4.4051   24.9667   63.7268 C   0  0  0  0  0
    4.8582   24.4559   65.0463 C   0  0  0  0  0
    1.5177   27.6543   64.9708 C   0  0  0  0  0
    1.4146   28.2462   66.3295 C   0  0  0  0  0
   -0.0470   29.8463   62.3675 C   0  0  0  0  0
   -0.6891   31.1638   62.6098 C   0  0  0  0  0
    3.1947   29.3550   56.8968 C   0  0  0  0  0
    0.3155   28.6730   56.4370 O   0  0  0  0  0
    1.1878   29.9248   59.0254 O   0  0  0  0  0
    3.6426   26.1426   63.6788 O   0  0  0  0  0
    4.7062   24.3265   62.6846 O   0  0  0  0  0
    2.0133   28.4329   63.9191 O   0  0  0  0  0
    1.1115   26.4776   64.7751 O   0  0  0  0  0
    1.1403   29.7864   61.6303 O   0  0  0  0  0
   -0.6022   28.7981   62.7930 O   0  0  0  0  0
    4.3989   29.0792   56.6586 O   0  0  0  0  0
    2.6717   30.5736   56.4799 O   0  0  0  0  0
  1  2  1  0  0  0
  3  2  1  0  0  0
  3  4  1  0  0  0
  3 17  1  0  0  0
  4  5  1  0  0  0
  6  7  1  0  0  0
  6 24  1  0  0  0
  7 22  1  0  0  0
  8  9  1  0  0  0
  8 20  1  0  0  0
 10  5  1  0  0  0
 11 20  1  0  0  0
 12 11  1  0  0  0
 13 22  1  0  0  0
 14 13  1  0  0  0
 15 24  1  0  0  0
 16 15  1  0  0  0
 17 27  1  0  0  0
  2 18  2  0  0  0
  4 19  2  0  0  0
  5  6  2  0  0  0
  7  8  2  0  0  0
  9 10  2  0  0  0
 11 21  2  0  0  0
 13 23  2  0  0  0
 15 25  2  0  0  0
 17 26  2  0  0  0
M  CHG  1  27  -1
M  END
> <rmsd>
0.676638603

$$$$
PubChem-154988330


 30 33  0  0  0  0  0  0  0  0999 V2000
    2.9179   23.2306   68.2786 C   0  0  0  0  0
    4.1109   23.6074   67.4015 C   0  0  0  0  0
    3.6802   23.6863   65.9395 C   0  0  0  0  0
    1.3701   24.3189   66.6418 C   0  0  0  0  0
    1.7883   24.2448   68.1078 C   0  0  0  0  0
    2.6273   25.7390   64.9435 C   0  0  0  0  0
    3.9053   27.0726   63.4162 C   0  0  0  0  0
    1.7252   27.7042   63.9406 C   0  0  0  0  0
    1.5745   26.6443   64.7670 C   0  0  0  0  0
   -0.2345   27.7707   64.7734 C   0  0  0  0  0
    0.3063   29.6535   63.1989 C   0  0  0  0  0
    1.0765   30.8145   63.7980 C   0  0  0  0  0
    1.6851   31.4982   62.5967 C   0  0  0  0  0
    1.0527   30.7910   61.4238 C   0  0  0  0  0
    2.0564   30.6832   60.2893 C   0  0  0  0  0
    1.7117   30.8856   58.1152 C   0  0  0  0  0
    2.5426   24.5937   65.8129 N   0  0  0  0  0
    3.7804   25.9903   64.2489 N   0  0  0  0  0
    2.8675   27.9450   63.2544 N   0  0  0  0  0
    0.3414   26.6585   65.3113 N   0  0  0  0  0
    0.5966   28.4233   63.9248 N   0  0  0  0  0
    0.6593   29.5122   61.8458 O   0  0  0  0  0
    1.4749   30.0378   59.1970 O   0  0  0  0  0
    1.1974   28.8695   56.3579 O   0  0  0  0  0
    3.7114   29.1442   57.0372 O   0  0  0  0  0
    2.4509   30.9325   55.3507 O   0  0  0  0  0
    1.3855   32.8628   62.5523 O   0  0  0  0  0
    0.1902   31.6507   64.4828 O   0  0  0  0  0
    2.2455   29.9095   56.6819 P   0  0  0  0  0
    5.4043   27.3368   62.5531 Cl  0  0  0  0  0
  1  2  1  0  0  0
  2  3  1  0  0  0
  3 17  1  0  0  0
  4 17  1  0  0  0
  4  5  1  0  0  0
  5  1  1  0  0  0
  7 18  1  0  0  0
  7 30  1  0  0  0
  8 19  1  0  0  0
  9 20  1  0  0  0
  9  6  1  0  0  0
 10 21  1  0  0  0
 11 21  1  0  0  0
 11 12  1  0  0  0
 11 22  1  0  0  0
 12 13  1  0  0  0
 12 28  1  0  0  0
 13 14  1  0  0  0
 13 27  1  0  0  0
 14 22  1  0  0  0
 14 15  1  0  0  0
 15 23  1  0  0  0
 16 23  1  0  0  0
 16 29  1  0  0  0
 17  6  1  0  0  0
 21  8  1  0  0  0
 29 25  1  0  0  0
 29 26  1  0  0  0
  6 18  2  0  0  0
  7 19  2  0  0  0
  8  9  2  0  0  0
 10 20  2  0  0  0
 29 24  2  0  0  0
M  END
> <rmsd>
0.669890165

$$$$
PubChem-163028132


 22 22  0  0  0  0  0  0  0  0999 V2000
   -1.7631   30.0490   58.4885 C   0  0  0  0  0
   -3.0165   31.4950   55.7776 C   0  0  0  0  0
   -0.2935   29.5917   55.4858 C   0  0  0  0  0
    1.0414   29.2153   56.1224 C   0  0  0  0  0
    1.9552   30.4041   56.2581 C   0  0  0  0  0
    2.7891   30.0490   57.4555 C   0  0  0  0  0
    1.8952   29.0951   58.2210 C   0  0  0  0  0
    1.4937   28.8646   60.3846 C   0  0  0  0  0
    0.6311   29.3088   61.5534 C   0  0  0  0  0
    0.6292   28.2519   62.6475 C   0  0  0  0  0
   -1.4466   30.7002   56.6577 As  0  0  0  0  0
   -0.5187   32.0316   56.9259 O   0  0  0  0  0
    1.3448   29.7558   59.3207 O   0  0  0  0  0
    1.9130   28.0866   63.1785 O   0  0  0  0  0
    1.1146   26.0115   64.5522 O   0  0  0  0  0
    3.4765   26.1516   63.9229 O   0  0  0  0  0
    1.7630   25.5647   62.0679 O   0  0  0  0  0
    1.0955   30.5238   62.0604 O   0  0  0  0  0
    0.8575   28.6258   57.3858 O   0  0  0  0  0
    3.9518   29.3708   57.0779 O   0  0  0  0  0
    2.7305   30.5637   55.1066 O   0  0  0  0  0
    2.0717   26.4352   63.4730 S   0  0  0  0  0
  1 11  1  0  0  0
  4  3  1  0  0  0
  4  5  1  0  0  0
  4 19  1  0  0  0
  5  6  1  0  0  0
  5 21  1  0  0  0
  6  7  1  0  0  0
  6 20  1  0  0  0
  7 13  1  0  0  0
  7 19  1  0  0  0
  8 13  1  0  0  0
  8  9  1  0  0  0
  9 10  1  0  0  0
  9 18  1  0  0  0
 10 14  1  0  0  0
 11  2  1  0  0  0
 11  3  1  0  0  0
 22 14  1  0  0  0
 22 17  1  0  0  0
 11 12  2  0  0  0
 22 15  2  0  0  0
 22 16  2  0  0  0
M  END
> <rmsd>
0.678103387

$$$$
PubChem-20400418


 27 27  0  0  0  0  0  0  0  0999 V2000
    1.0575   26.4450   56.4939 C   0  0  0  0  0
    1.1628   27.8874   56.8490 C   0  0  0  0  0
    2.3351   28.3656   57.6548 C   0  0  0  0  0
    1.9213   28.9040   58.9968 C   0  0  0  0  0
    2.3499   28.2183   60.2440 C   0  0  0  0  0
    2.0021   28.6953   61.5299 C   0  0  0  0  0
    2.4000   27.9753   62.6794 C   0  0  0  0  0
    3.2244   26.8382   62.5517 C   0  0  0  0  0
    3.5781   26.3927   61.2733 C   0  0  0  0  0
    3.1394   27.0670   60.1386 C   0  0  0  0  0
    4.4761   25.0351   63.7654 C   0  0  0  0  0
    4.9034   24.5155   65.0900 C   0  0  0  0  0
    1.4195   27.5856   64.9212 C   0  0  0  0  0
    1.2066   28.1192   66.2912 C   0  0  0  0  0
    1.5211   30.9187   62.5082 C   0  0  0  0  0
    0.5173   31.9946   62.7131 C   0  0  0  0  0
    3.1827   29.3386   56.8972 C   0  0  0  0  0
    0.2948   28.6649   56.4832 O   0  0  0  0  0
    1.2037   29.9404   59.0453 O   0  0  0  0  0
    3.6916   26.1962   63.7119 O   0  0  0  0  0
    4.8213   24.4173   62.7235 O   0  0  0  0  0
    1.9701   28.4165   63.9396 O   0  0  0  0  0
    1.0602   26.4082   64.6517 O   0  0  0  0  0
    1.2207   29.8540   61.6519 O   0  0  0  0  0
    2.6438   31.0022   63.0746 O   0  0  0  0  0
    4.3818   29.0535   56.6447 O   0  0  0  0  0
    2.6602   30.5553   56.4746 O   0  0  0  0  0
  1  2  1  0  0  0
  3  2  1  0  0  0
  3  4  1  0  0  0
  3 17  1  0  0  0
  4  5  1  0  0  0
  6  7  1  0  0  0
  6 24  1  0  0  0
  7 22  1  0  0  0
  8  9  1  0  0  0
  8 20  1  0  0  0
 10  5  1  0  0  0
 11 20  1  0  0  0
 12 11  1  0  0  0
 13 22  1  0  0  0
 14 13  1  0  0  0
 15 24  1  0  0  0
 16 15  1  0  0  0
 17 27  1  0  0  0
  2 18  2  0  0  0
  4 19  2  0  0  0
  5  6  2  0  0  0
  7  8  2  0  0  0
  9 10  2  0  0  0
 11 21  2  0  0  0
 13 23  2  0  0  0
 15 25  2  0  0  0
 17 26  2  0  0  0
M  END
> <rmsd>
0.662463009

$$$$
PubChem-20400418


 27 27  0  0  0  0  0  0  0  0999 V2000
    1.0889   26.4568   56.4312 C   0  0  0  0  0
    1.1825   27.8955   56.8049 C   0  0  0  0  0
    2.3418   28.3693   57.6316 C   0  0  0  0  0
    1.9072   28.8899   58.9742 C   0  0  0  0  0
    2.3179   28.1885   60.2187 C   0  0  0  0  0
    1.9270   28.6324   61.5038 C   0  0  0  0  0
    2.3543   27.9310   62.6541 C   0  0  0  0  0
    3.1693   26.7866   62.5223 C   0  0  0  0  0
    3.5241   26.3459   61.2425 C   0  0  0  0  0
    3.1044   27.0357   60.1102 C   0  0  0  0  0
    4.4051   24.9667   63.7268 C   0  0  0  0  0
    4.8582   24.4559   65.0463 C   0  0  0  0  0
    1.5177   27.6543   64.9708 C   0  0  0  0  0
    1.4146   28.2462   66.3295 C   0  0  0  0  0
   -0.0470   29.8463   62.3675 C   0  0  0  0  0
   -0.6891   31.1638   62.6098 C   0  0  0  0  0
    3.1947   29.3550   56.8968 C   0  0  0  0  0
    0.3155   28.6730   56.4370 O   0  0  0  0  0
    1.1878   29.9248   59.0254 O   0  0  0  0  0
    3.6426   26.1426   63.6788 O   0  0  0  0  0
    4.7062   24.3265   62.6846 O   0  0  0  0  0
    2.0133   28.4329   63.9191 O   0  0  0  0  0
    1.1115   26.4776   64.7751 O   0  0  0  0  0
    1.1403   29.7864   61.6303 O   0  0  0  0  0
   -0.6022   28.7981   62.7930 O   0  0  0  0  0
    4.3989   29.0792   56.6586 O   0  0  0  0  0
    2.6717   30.5736   56.4799 O   0  0  0  0  0
  1  2  1  0  0  0
  3  2  1  0  0  0
  3  4  1  0  0  0
  3 17  1  0  0  0
  4  5  1  0  0  0
  6  7  1  0  0  0
  6 24  1  0  0  0
  7 22  1  0  0  0
  8  9  1  0  0  0
  8 20  1  0  0  0
 10  5  1  0  0  0
 11 20  1  0  0  0
 12 11  1  0  0  0
 13 22  1  0  0  0
 14 13  1  0  0  0
 15 24  1  0  0  0
 16 15  1  0  0  0
 17 27  1  0  0  0
  2 18  2  0  0  0
  4 19  2  0  0  0
  5  6  2  0  0  0
  7  8  2  0  0  0
  9 10  2  0  0  0
 11 21  2  0  0  0
 13 23  2  0  0  0
 15 25  2  0  0  0
 17 26  2  0  0  0
M  END
> <rmsd>
0.676638603

$$$$
PubChem-155417589


 34 37  0  0  0  0  0  0  0  0999 V2000
   -1.7044   26.3250   66.6115 C   0  0  0  0  0
   -0.2421   26.4637   66.2403 C   0  0  0  0  0
    0.2953   27.7766   66.7591 C   0  0  0  0  0
    1.1848   28.2632   65.6560 C   0  0  0  0  0
    1.0556   27.1946   64.5853 C   0  0  0  0  0
    0.9969   27.7760   63.1598 C   0  0  0  0  0
    1.8739   28.9694   61.4612 C   0  0  0  0  0
    3.3084   28.5593   63.3699 C   0  0  0  0  0
    3.9872   27.4507   64.2030 C   0  0  0  0  0
    4.9782   28.0489   65.2037 C   0  0  0  0  0
    6.0165   28.9183   64.5000 C   0  0  0  0  0
    5.3281   30.0261   63.7076 C   0  0  0  0  0
    4.3711   29.4378   62.6633 C   0  0  0  0  0
    5.4420   29.6275   60.7218 C   0  0  0  0  0
    3.9986   25.2950   63.6962 C   0  0  0  0  0
    3.2784   29.5827   58.3950 C   0  0  0  0  0
    3.9050   28.2667   57.8913 C   0  0  0  0  0
    5.5631   29.4102   56.8591 C   0  0  0  0  0
    4.9215   30.8045   56.9220 C   0  0  0  0  0
    3.4678   30.7421   57.4037 C   0  0  0  0  0
    1.1921   30.9816   62.4739 C   0  0  0  0  0
   -1.1524   28.5906   62.7049 C   0  0  0  0  0
   -0.1003   26.4453   64.8453 O   0  0  0  0  0
    5.0794   28.7023   61.7033 O   0  0  0  0  0
    4.6178   26.5068   63.3851 O   0  0  0  0  0
    0.9644   30.6756   59.2383 O   0  0  0  0  0
    0.8088   28.7466   57.7404 O   0  0  0  0  0
    4.5798   28.4257   56.6624 O   0  0  0  0  0
    2.6254   30.5913   56.2990 O   0  0  0  0  0
    0.1999   28.9901   63.0604 N   0  0  0  0  0
    0.7123   29.7063   61.9642 N   0  0  0  0  0
    2.2752   27.9906   62.4702 N   0  0  0  0  0
    1.5047   28.2637   60.2368 N   0  0  0  0  0
    1.5774   29.3486   58.8838 S   0  0  0  0  0
  1  2  1  0  0  0
  2  3  1  0  0  0
  2 23  1  0  0  0
  3  4  1  0  0  0
  4  5  1  0  0  0
  5 23  1  0  0  0
  5  6  1  0  0  0
  6 30  1  0  0  0
  6 32  1  0  0  0
  7 31  1  0  0  0
  7 32  1  0  0  0
  7 33  1  0  0  0
  8 32  1  0  0  0
  8  9  1  0  0  0
  9 10  1  0  0  0
  9 25  1  0  0  0
 10 11  1  0  0  0
 11 12  1  0  0  0
 12 13  1  0  0  0
 13 24  1  0  0  0
 13  8  1  0  0  0
 14 24  1  0  0  0
 15 25  1  0  0  0
 16 17  1  0  0  0
 17 28  1  0  0  0
 18 28  1  0  0  0
 18 19  1  0  0  0
 19 20  1  0  0  0
 20 29  1  0  0  0
 20 16  1  0  0  0
 21 31  1  0  0  0
 22 30  1  0  0  0
 30 31  1  0  0  0
 34 33  1  0  0  0
 34 16  1  0  0  0
 34 26  2  0  0  0
 34 27  2  0  0  0
M  END
> <rmsd>
0.80086863

$$$$
PubChem-160470114


 26 28  0  0  0  0  0  0  0  0999 V2000
    2.7784   31.2014   60.8936 C   0  0  0  0  0
    1.2889   31.0419   60.6493 C   0  0  0  0  0
    0.6513   30.3900   61.8856 C   0  0  0  0  0
   -0.4727   28.7170   60.5869 C   0  0  0  0  0
   -0.2928   29.7136   59.4317 C   0  0  0  0  0
    3.7484   30.0325   57.7794 C   0  0  0  0  0
    4.6520   29.4378   56.7128 C   0  0  0  0  0
    4.3331   27.8298   55.0395 C   0  0  0  0  0
    5.4800   27.4280   55.8415 C   0  0  0  0  0
   -0.3029   27.3082   60.0487 C   0  0  0  0  0
    1.7351   26.2160   62.6295 C   0  0  0  0  0
    2.7594   25.3597   63.3545 C   0  0  0  0  0
    5.0552   25.0199   63.6673 C   0  0  0  0  0
    4.5662   25.8423   64.7649 C   0  0  0  0  0
    0.4888   28.9510   61.6759 N   0  0  0  0  0
    1.0686   30.2498   59.4290 N   0  0  0  0  0
    1.1518   31.1325   58.3418 N   0  0  0  0  0
    4.3147   28.0420   56.4944 N   0  0  0  0  0
   -0.0809   28.4347   62.8493 N   0  0  0  0  0
    4.0371   26.0483   63.4086 N   0  0  0  0  0
    2.1213   30.3684   57.1267 S   0  0  0  0  0
    1.1522   27.5407   63.6744 S   0  0  0  0  0
    1.4665   29.0853   56.6967 O   0  0  0  0  0
    2.2378   31.2864   55.9428 O   0  0  0  0  0
    2.2907   28.4594   64.0205 O   0  0  0  0  0
    0.5784   26.9646   64.9380 O   0  0  0  0  0
  1  2  1  0  0  0
  2  3  1  0  0  0
  2 16  1  0  0  0
  3 15  1  0  0  0
  4 15  1  0  0  0
  4  5  1  0  0  0
  4 10  1  0  0  0
  5 16  1  0  0  0
  6  7  1  0  0  0
  7 18  1  0  0  0
  8 18  1  0  0  0
  8  9  1  0  0  0
  9 18  1  0  0  0
 11 12  1  0  0  0
 12 20  1  0  0  0
 13 20  1  0  0  0
 13 14  1  0  0  0
 14 20  1  0  0  0
 15 19  1  0  0  0
 16 17  1  0  0  0
 21 17  1  0  0  0
 21  6  1  0  0  0
 22 19  1  0  0  0
 22 11  1  0  0  0
 21 23  2  0  0  0
 21 24  2  0  0  0
 22 25  2  0  0  0
 22 26  2  0  0  0
M  END
> <rmsd>
0.730871081

$$$$
PubChem-160470114


 26 28  0  0  0  0  0  0  0  0999 V2000
   -0.3004   27.3052   60.0482 C   0  0  0  0  0
   -0.4726   28.7140   60.5860 C   0  0  0  0  0
   -0.2935   29.7105   59.4307 C   0  0  0  0  0
    1.2856   31.0415   60.6489 C   0  0  0  0  0
    0.6482   30.3889   61.8849 C   0  0  0  0  0
    1.7352   26.2147   62.6313 C   0  0  0  0  0
    2.7599   25.3597   63.3572 C   0  0  0  0  0
    4.5642   25.8510   64.7679 C   0  0  0  0  0
    5.0550   25.0216   63.6765 C   0  0  0  0  0
    2.7747   31.2032   60.8939 C   0  0  0  0  0
    3.7471   30.0319   57.7812 C   0  0  0  0  0
    4.6520   29.4377   56.7153 C   0  0  0  0  0
    5.4831   27.4266   55.8500 C   0  0  0  0  0
    4.3420   27.8297   55.0405 C   0  0  0  0  0
    1.0672   30.2488   59.4286 N   0  0  0  0  0
    0.4879   28.9497   61.6755 N   0  0  0  0  0
   -0.0817   28.4328   62.8487 N   0  0  0  0  0
    4.0376   26.0485   63.4094 N   0  0  0  0  0
    1.1497   31.1313   58.3412 N   0  0  0  0  0
    4.3145   28.0423   56.4951 N   0  0  0  0  0
    1.1520   27.5405   63.6745 S   0  0  0  0  0
    2.1208   30.3681   57.1267 S   0  0  0  0  0
    2.2902   28.4602   64.0190 O   0  0  0  0  0
    0.5790   26.9658   64.9391 O   0  0  0  0  0
    1.4666   29.0851   56.6951 O   0  0  0  0  0
    2.2386   31.2869   55.9436 O   0  0  0  0  0
  1  2  1  0  0  0
  2  3  1  0  0  0
  2 16  1  0  0  0
  3 15  1  0  0  0
  4 15  1  0  0  0
  4  5  1  0  0  0
  4 10  1  0  0  0
  5 16  1  0  0  0
  6  7  1  0  0  0
  7 18  1  0  0  0
  8 18  1  0  0  0
  8  9  1  0  0  0
  9 18  1  0  0  0
 11 12  1  0  0  0
 12 20  1  0  0  0
 13 20  1  0  0  0
 13 14  1  0  0  0
 14 20  1  0  0  0
 15 19  1  0  0  0
 16 17  1  0  0  0
 21 17  1  0  0  0
 21  6  1  0  0  0
 22 19  1  0  0  0
 22 11  1  0  0  0
 21 23  2  0  0  0
 21 24  2  0  0  0
 22 25  2  0  0  0
 22 26  2  0  0  0
M  END
> <rmsd>
0.730937421

$$$$
PubChem-91166812


 37 41  0  0  0  0  0  0  0  0999 V2000
    3.2835   30.4485   54.5545 C   0  0  0  0  0
    2.8290   32.5631   55.3649 C   0  0  0  0  0
    3.3284   30.8189   56.9036 C   0  0  0  0  0
    2.7842   31.6354   58.0974 C   0  0  0  0  0
    3.8047   31.6259   59.2336 C   0  0  0  0  0
    3.3624   32.5681   60.3490 C   0  0  0  0  0
    4.4227   32.6379   61.4464 C   0  0  0  0  0
    4.5337   31.3353   62.1827 C   0  0  0  0  0
    3.3915   30.5414   62.4249 C   0  0  0  0  0
    3.5336   29.3241   63.1307 C   0  0  0  0  0
    4.8053   28.9319   63.5774 C   0  0  0  0  0
    5.9251   29.7247   63.3309 C   0  0  0  0  0
    5.7889   30.9235   62.6338 C   0  0  0  0  0
    3.0298   27.3471   65.8786 C   0  0  0  0  0
    3.8229   26.4020   66.5392 C   0  0  0  0  0
    4.2702   26.6497   67.8404 C   0  0  0  0  0
    3.9247   27.8426   68.4831 C   0  0  0  0  0
    3.1307   28.7870   67.8255 C   0  0  0  0  0
    2.6830   28.5390   66.5247 C   0  0  0  0  0
    2.0774   31.0009   61.9012 C   0  0  0  0  0
    1.9985   32.1593   60.9316 C   0  0  0  0  0
    0.9877   31.9224   59.8371 C   0  0  0  0  0
    1.3667   31.1916   58.5567 C   0  0  0  0  0
    1.3110   29.6813   58.7393 C   0  0  0  0  0
    1.9298   28.7706   57.7174 C   0  0  0  0  0
    3.2232   29.3470   57.2287 C   0  0  0  0  0
    2.6294   31.1492   55.6510 N   0  0  0  0  0
    1.0144   28.5850   56.6041 N   0  0  0  0  0
    2.4145   28.5151   63.3686 O   0  0  0  0  0
    1.0983   26.4398   64.2897 O   0  0  0  0  0
    3.4098   26.0963   63.5490 O   0  0  0  0  0
    1.0072   30.4839   62.3226 O   0  0  0  0  0
   -0.1647   32.2880   60.0143 O   0  0  0  0  0
    0.6996   29.1838   59.6727 O   0  0  0  0  0
    4.2104   28.6354   57.1451 O   0  0  0  0  0
    0.4557   31.5434   57.5559 O   0  0  0  0  0
    2.4723   27.0450   64.2428 S   0  0  0  0  0
  1 27  1  0  0  0
  2 27  1  0  0  0
  3 27  1  0  0  0
  3  4  1  0  0  0
  3 26  1  0  0  0
  4  5  1  0  0  0
  6  5  1  0  0  0
  6  7  1  0  0  0
  7  8  1  0  0  0
  9 10  1  0  0  0
  9 20  1  0  0  0
 10 29  1  0  0  0
 11 12  1  0  0  0
 13  8  1  0  0  0
 15 16  1  0  0  0
 17 18  1  0  0  0
 19 14  1  0  0  0
 21 20  1  0  0  0
 21 22  1  0  0  0
 21  6  1  0  0  0
 23 22  1  0  0  0
 23 24  1  0  0  0
 23 36  1  0  0  0
 23  4  1  0  0  0
 25 24  1  0  0  0
 25 26  1  0  0  0
 25 28  1  0  0  0
 37 29  1  0  0  0
 37 14  1  0  0  0
  8  9  2  0  0  0
 10 11  2  0  0  0
 12 13  2  0  0  0
 14 15  2  0  0  0
 16 17  2  0  0  0
 18 19  2  0  0  0
 20 32  2  0  0  0
 22 33  2  0  0  0
 24 34  2  0  0  0
 26 35  2  0  0  0
 37 30  2  0  0  0
 37 31  2  0  0  0
M  END
> <rmsd>
0.671872377

$$$$
PubChem-153538991


 35 40  0  0  0  0  0  0  0  0999 V2000
    1.2065   31.1843   62.8253 C   0  0  0  0  0
    0.6818   30.2438   63.8559 C   0  0  0  0  0
    0.2596   29.0401   63.0403 C   0  0  0  0  0
    1.6380   30.2562   61.7210 C   0  0  0  0  0
    1.4954   30.9504   60.3799 C   0  0  0  0  0
    2.0218   30.9490   58.2367 C   0  0  0  0  0
    1.8695   27.3590   63.9979 C   0  0  0  0  0
    1.7881   26.1592   64.6197 C   0  0  0  0  0
    0.4398   25.8622   64.7136 C   0  0  0  0  0
    2.9485   25.5003   65.0070 C   0  0  0  0  0
    4.2001   27.3223   64.1013 C   0  0  0  0  0
    3.8855   23.2601   66.1888 C   0  0  0  0  0
    2.8708   22.2948   66.6722 C   0  0  0  0  0
    1.8955   23.2766   66.1431 C   0  0  0  0  0
    2.8736   20.9667   66.0451 C   0  0  0  0  0
    2.8430   20.0573   67.0443 C   0  0  0  0  0
    2.8177   20.7549   68.3485 C   0  0  0  0  0
    2.8424   18.6864   66.7864 C   0  0  0  0  0
    2.8743   18.2660   65.4456 C   0  0  0  0  0
    2.9063   19.2159   64.4047 C   0  0  0  0  0
    2.9065   20.5895   64.7003 C   0  0  0  0  0
    0.8408   29.0968   61.7575 O   0  0  0  0  0
    2.0112   30.1373   59.3710 O   0  0  0  0  0
    3.5205   29.1599   56.8361 O   0  0  0  0  0
    2.2219   30.9051   55.3818 O   0  0  0  0  0
    0.9301   28.8251   56.6565 O   0  0  0  0  0
    2.8378   22.1546   68.0813 O   0  0  0  0  0
    2.2156   29.9192   56.7560 P   0  0  0  0  0
    0.6364   27.8017   63.7128 N   0  0  0  0  0
   -0.2360   26.8971   64.1436 N   0  0  0  0  0
    4.1432   26.1060   64.7344 N   0  0  0  0  0
    3.0520   27.9625   63.7247 N   0  0  0  0  0
    2.9106   24.2346   65.6645 N   0  0  0  0  0
    5.7528   28.0579   63.7705 Cl  0  0  0  0  0
    2.8789   16.5571   65.0680 Cl  0  0  0  0  0
  1  2  1  0  0  0
  2  3  1  0  0  0
  3 22  1  0  0  0
  3 29  1  0  0  0
  4 22  1  0  0  0
  4  5  1  0  0  0
  4  1  1  0  0  0
  5 23  1  0  0  0
  6 23  1  0  0  0
  6 28  1  0  0  0
  7 32  1  0  0  0
  8  9  1  0  0  0
  8 10  1  0  0  0
 10 33  1  0  0  0
 11 31  1  0  0  0
 11 34  1  0  0  0
 12 33  1  0  0  0
 12 13  1  0  0  0
 13 14  1  0  0  0
 13 15  1  0  0  0
 13 27  1  0  0  0
 14 33  1  0  0  0
 16 18  1  0  0  0
 17 16  1  0  0  0
 17 27  1  0  0  0
 19 20  1  0  0  0
 19 35  1  0  0  0
 21 15  1  0  0  0
 28 25  1  0  0  0
 28 26  1  0  0  0
 29  7  1  0  0  0
 29 30  1  0  0  0
  7  8  2  0  0  0
  9 30  2  0  0  0
 10 31  2  0  0  0
 11 32  2  0  0  0
 15 16  2  0  0  0
 18 19  2  0  0  0
 20 21  2  0  0  0
 28 24  2  0  0  0
M  END
> <rmsd>
0.752165198

$$$$
PubChem-14130886 PubChem-73124503


 22 22  0  0  0  0  0  0  0  0999 V2000
    1.1932   32.1576   53.0302 C   0  0  0  0  0
   -1.5634   32.5947   54.8658 C   0  0  0  0  0
    0.0544   29.6681   54.9617 C   0  0  0  0  0
    0.8274   29.9487   56.2388 C   0  0  0  0  0
    2.2765   30.2569   55.9246 C   0  0  0  0  0
    3.0565   29.4328   56.9023 C   0  0  0  0  0
    2.0000   28.7666   57.7537 C   0  0  0  0  0
    2.0174   28.4184   59.9385 C   0  0  0  0  0
    1.9821   29.0214   61.3290 C   0  0  0  0  0
    2.2727   27.9389   62.3491 C   0  0  0  0  0
   -0.3187   31.3450   53.9932 As  0  0  0  0  0
   -1.2369   30.7962   52.7437 O   0  0  0  0  0
    0.7688   28.8231   57.0778 O   0  0  0  0  0
    1.8961   29.4268   58.9807 O   0  0  0  0  0
    2.4316   28.5098   63.6142 O   0  0  0  0  0
    2.4529   27.7657   66.1013 O   0  0  0  0  0
    3.4837   26.2697   64.4599 O   0  0  0  0  0
    0.8829   26.4215   64.5345 O   0  0  0  0  0
    0.7213   29.5685   61.5722 O   0  0  0  0  0
    3.7750   28.4579   56.2110 O   0  0  0  0  0
    2.5241   31.6102   56.1539 O   0  0  0  0  0
    2.3492   27.2265   64.7028 S   0  0  0  0  0
  1 11  1  0  0  0
  4  3  1  0  0  0
  4  5  1  0  0  0
  4 13  1  0  0  0
  5  6  1  0  0  0
  5 21  1  0  0  0
  6  7  1  0  0  0
  6 20  1  0  0  0
  7 13  1  0  0  0
  7 14  1  0  0  0
  8 14  1  0  0  0
  9  8  1  0  0  0
  9 10  1  0  0  0
  9 19  1  0  0  0
 10 15  1  0  0  0
 11  2  1  0  0  0
 11  3  1  0  0  0
 22 15  1  0  0  0
 22 18  1  0  0  0
 11 12  2  0  0  0
 22 16  2  0  0  0
 22 17  2  0  0  0
M  END
> <rmsd>
0.622655392

$$$$
PubChem-155268124


 32 35  0  0  0  0  0  0  0  0999 V2000
    1.7001   31.1462   62.8403 C   0  0  0  0  0
    0.9008   30.4754   63.9107 C   0  0  0  0  0
    0.2665   29.2885   63.2124 C   0  0  0  0  0
    1.1718   30.5305   61.5716 C   0  0  0  0  0
    2.2911   30.4328   60.5525 C   0  0  0  0  0
    2.9064   29.5413   58.6308 C   0  0  0  0  0
    1.8541   27.4985   63.9855 C   0  0  0  0  0
    4.1574   27.2449   63.7180 C   0  0  0  0  0
    2.9139   25.5857   64.9071 C   0  0  0  0  0
    1.7707   26.3356   64.6731 C   0  0  0  0  0
    0.4363   26.1710   64.9989 C   0  0  0  0  0
    4.0322   23.5572   65.9427 C   0  0  0  0  0
    4.8623   24.2212   66.9893 C   0  0  0  0  0
    6.0529   24.8626   66.6306 C   0  0  0  0  0
    6.8234   25.5047   67.6039 C   0  0  0  0  0
    6.4047   25.5069   68.9382 C   0  0  0  0  0
    5.2156   24.8654   69.2990 C   0  0  0  0  0
    4.4441   24.2236   68.3250 C   0  0  0  0  0
    5.4188   27.7158   63.2217 C   0  0  0  0  0
    0.6785   29.2500   61.8675 O   0  0  0  0  0
    1.7854   29.9816   59.3341 O   0  0  0  0  0
    3.7425   28.9989   56.1017 O   0  0  0  0  0
    1.2168   28.4958   56.5674 O   0  0  0  0  0
    2.1698   31.0771   56.3322 O   0  0  0  0  0
    2.5374   29.5119   56.8562 P   0  0  0  0  0
    0.6357   28.0463   63.8812 N   0  0  0  0  0
    3.0242   27.9774   63.4970 N   0  0  0  0  0
    4.0969   26.0644   64.4142 N   0  0  0  0  0
   -0.2304   27.2443   64.4917 N   0  0  0  0  0
    2.8540   24.3589   65.6399 N   0  0  0  0  0
    6.4362   28.0952   62.8219 N   0  0  0  0  0
    8.3091   26.3102   67.1496 Cl  0  0  0  0  0
  1  2  1  0  0  0
  2  3  1  0  0  0
  3 20  1  0  0  0
  3 26  1  0  0  0
  4 20  1  0  0  0
  4  5  1  0  0  0
  4  1  1  0  0  0
  5 21  1  0  0  0
  6 21  1  0  0  0
  6 25  1  0  0  0
  8 27  1  0  0  0
  8 19  1  0  0  0
  9 28  1  0  0  0
  9 30  1  0  0  0
 10 11  1  0  0  0
 10  7  1  0  0  0
 12 30  1  0  0  0
 12 13  1  0  0  0
 14 15  1  0  0  0
 15 32  1  0  0  0
 16 17  1  0  0  0
 18 13  1  0  0  0
 25 23  1  0  0  0
 25 24  1  0  0  0
 26  7  1  0  0  0
 26 29  1  0  0  0
  7 27  2  0  0  0
  8 28  2  0  0  0
  9 10  2  0  0  0
 11 29  2  0  0  0
 13 14  2  0  0  0
 15 16  2  0  0  0
 17 18  2  0  0  0
 25 22  2  0  0  0
 19 31  3  0  0  0
M  END
> <rmsd>
0.705261111

$$$$
PubChem-146472799


 34 38  0  0  0  0  0  0  0  0999 V2000
    1.9376   22.7577   66.6892 C   0  0  0  0  0
    3.3941   22.5442   66.2995 C   0  0  0  0  0
    3.8707   23.8489   65.6820 C   0  0  0  0  0
    1.4737   24.0051   65.9608 C   0  0  0  0  0
    2.6756   25.8414   64.6548 C   0  0  0  0  0
    3.8671   27.4096   63.2925 C   0  0  0  0  0
    1.6106   27.7690   63.7494 C   0  0  0  0  0
    1.5417   26.6409   64.4913 C   0  0  0  0  0
   -0.3704   27.5776   64.5106 C   0  0  0  0  0
    0.0237   29.6272   63.1123 C   0  0  0  0  0
    0.6260   30.8029   63.8565 C   0  0  0  0  0
    1.6246   31.3513   62.8757 C   0  0  0  0  0
    1.1184   30.8492   61.5497 C   0  0  0  0  0
    2.2870   30.6232   60.6081 C   0  0  0  0  0
    2.8945   29.5991   58.7518 C   0  0  0  0  0
    4.8032   24.5687   66.6123 C   0  0  0  0  0
    6.1243   24.7965   66.2104 C   0  0  0  0  0
    7.0098   25.4743   67.0543 C   0  0  0  0  0
    6.5770   25.9280   68.3041 C   0  0  0  0  0
    5.2584   25.7043   68.7111 C   0  0  0  0  0
    4.3725   25.0268   67.8680 C   0  0  0  0  0
    2.6722   24.6341   65.4385 N   0  0  0  0  0
    3.8242   26.2598   64.0384 N   0  0  0  0  0
    2.7492   28.1799   63.1419 N   0  0  0  0  0
    0.2988   26.4914   64.9898 N   0  0  0  0  0
    0.4150   28.3716   63.7424 N   0  0  0  0  0
    0.4323   29.6403   61.7620 O   0  0  0  0  0
    1.8150   30.2467   59.3505 O   0  0  0  0  0
    3.7571   28.7267   56.3234 O   0  0  0  0  0
    1.1745   28.5601   56.7101 O   0  0  0  0  0
    2.4316   30.9823   56.2885 O   0  0  0  0  0
    1.6655   32.7480   62.8900 O   0  0  0  0  0
   -0.3851   31.7305   64.1237 O   0  0  0  0  0
    2.5937   29.4431   56.9700 P   0  0  0  0  0
  1  2  1  0  0  0
  2  3  1  0  0  0
  3 22  1  0  0  0
  3 16  1  0  0  0
  4 22  1  0  0  0
  4  1  1  0  0  0
  6 23  1  0  0  0
  7 24  1  0  0  0
  8 25  1  0  0  0
  8  5  1  0  0  0
  9 26  1  0  0  0
 10 26  1  0  0  0
 10 11  1  0  0  0
 10 27  1  0  0  0
 11 12  1  0  0  0
 11 33  1  0  0  0
 12 13  1  0  0  0
 12 32  1  0  0  0
 13 27  1  0  0  0
 13 14  1  0  0  0
 14 28  1  0  0  0
 15 28  1  0  0  0
 15 34  1  0  0  0
 17 18  1  0  0  0
 19 20  1  0  0  0
 21 16  1  0  0  0
 22  5  1  0  0  0
 26  7  1  0  0  0
 34 30  1  0  0  0
 34 31  1  0  0  0
  5 23  2  0  0  0
  6 24  2  0  0  0
  7  8  2  0  0  0
  9 25  2  0  0  0
 16 17  2  0  0  0
 18 19  2  0  0  0
 20 21  2  0  0  0
 34 29  2  0  0  0
M  END
> <rmsd>
0.58741653

$$$$
