PubChem-120442186 CSC057331547 MCULE-9748518021


 25 26  0  0  0  0  0  0  0  0999 V2000
    2.2801   24.6254   62.2098 C   0  0  0  0  0
    2.8323   26.0210   62.4361 C   0  0  0  0  0
    1.7140   27.0022   62.6276 C   0  0  0  0  0
    0.4859   29.0785   61.9318 C   0  0  0  0  0
   -0.0374   29.5406   60.5759 C   0  0  0  0  0
    1.9155   28.9900   59.4626 C   0  0  0  0  0
    2.5655   28.3984   60.7164 C   0  0  0  0  0
    1.2831   27.9074   58.5862 C   0  0  0  0  0
   -0.3347   27.8239   56.9155 C   0  0  0  0  0
    1.9105   28.0213   56.3307 C   0  0  0  0  0
    2.9305   29.0884   56.1217 C   0  0  0  0  0
    4.8623   26.6106   63.1131 C   0  0  0  0  0
    5.1679   27.8494   63.9686 C   0  0  0  0  0
    6.6409   28.2699   63.9684 C   0  0  0  0  0
    7.2136   28.5306   62.5707 C   0  0  0  0  0
    7.1070   27.3402   61.6081 C   0  0  0  0  0
    7.2310   25.9786   62.3029 C   0  0  0  0  0
    5.9908   25.5713   63.1214 C   0  0  0  0  0
    0.9206   26.8567   63.5983 O   0  0  0  0  0
    1.0169   30.0407   59.7789 O   0  0  0  0  0
    4.1357   28.8713   56.4132 O   0  0  0  0  0
    2.5554   30.3198   55.5987 O   0  0  0  0  0
    3.6733   26.0230   63.5528 O   0  0  0  0  0
    1.5454   28.0996   61.7184 N   0  0  0  0  0
    0.9128   28.4628   57.2939 N   0  0  0  0  0
  1  2  1  0  0  0
  2  3  1  0  0  0
  2 23  1  0  0  0
  3 24  1  0  0  0
  4 24  1  0  0  0
  4  5  1  0  0  0
  5 20  1  0  0  0
  6 20  1  0  0  0
  6  7  1  0  0  0
  6  8  1  0  0  0
  7 24  1  0  0  0
  8 25  1  0  0  0
  9 25  1  0  0  0
 10 25  1  0  0  0
 10 11  1  0  0  0
 11 22  1  0  0  0
 12 23  1  0  0  0
 12 13  1  0  0  0
 13 14  1  0  0  0
 14 15  1  0  0  0
 15 16  1  0  0  0
 16 17  1  0  0  0
 17 18  1  0  0  0
 18 12  1  0  0  0
  3 19  2  0  0  0
 11 21  2  0  0  0
M  END
> <rmsd>
0.607266426

$$$$
PubChem-141469855


 32 35  0  0  0  0  0  0  0  0999 V2000
    4.4680   33.7043   60.0072 C   0  0  0  0  0
    5.2246   32.6338   60.4934 C   0  0  0  0  0
    5.4079   31.4929   59.7061 C   0  0  0  0  0
    4.8387   31.4238   58.4297 C   0  0  0  0  0
    4.0765   32.4933   57.9467 C   0  0  0  0  0
    3.8937   33.6340   58.7342 C   0  0  0  0  0
    5.0010   30.1893   57.6091 C   0  0  0  0  0
    4.0104   28.4330   58.8019 C   0  0  0  0  0
    2.7453   28.3179   59.6369 C   0  0  0  0  0
    2.4538   29.6323   60.3441 C   0  0  0  0  0
    2.3270   29.2635   61.7900 C   0  0  0  0  0
    2.2220   27.7512   61.7304 C   0  0  0  0  0
    4.0224   26.9920   63.3495 C   0  0  0  0  0
    2.8689   25.9324   64.7824 C   0  0  0  0  0
    2.3649   25.1861   65.8377 C   0  0  0  0  0
    0.1840   25.4820   64.9141 C   0  0  0  0  0
    2.0310   26.4213   63.8440 C   0  0  0  0  0
    3.8031   29.3666   57.7032 N   0  0  0  0  0
    2.7328   27.1002   62.9331 N   0  0  0  0  0
    4.1406   26.2738   64.5027 N   0  0  0  0  0
    1.0160   24.9750   65.8812 N   0  0  0  0  0
    0.6920   26.2159   63.8773 N   0  0  0  0  0
    3.2172   24.6521   66.8446 N   0  0  0  0  0
    2.9073   27.3014   60.5936 O   0  0  0  0  0
    1.2427   30.1476   59.8835 O   0  0  0  0  0
    3.7407   28.6297   56.5671 O   0  0  0  0  0
    1.1166   28.5953   56.7200 O   0  0  0  0  0
    2.1470   28.2896   54.3380 O   0  0  0  0  0
    2.1807   30.7248   55.6304 O   0  0  0  0  0
   -1.5384   25.1883   65.0081 Cl  0  0  0  0  0
    3.4790   29.6652   62.4441 F   0  0  0  0  0
    2.2629   29.0485   55.8442 P   0  0  0  0  0
  2  3  1  0  0  0
  4  5  1  0  0  0
  6  1  1  0  0  0
  7  4  1  0  0  0
  7 18  1  0  0  0
  8 18  1  0  0  0
  9  8  1  0  0  0
  9 10  1  0  0  0
  9 24  1  0  0  0
 10 11  1  0  0  0
 10 25  1  0  0  0
 11 12  1  0  0  0
 11 31  1  0  0  0
 12 24  1  0  0  0
 12 19  1  0  0  0
 14 20  1  0  0  0
 15 21  1  0  0  0
 15 23  1  0  0  0
 16 22  1  0  0  0
 16 30  1  0  0  0
 17 19  1  0  0  0
 17 14  1  0  0  0
 18 26  1  0  0  0
 19 13  1  0  0  0
 32 26  1  0  0  0
 32 28  1  0  0  0
 32 29  1  0  0  0
  1  2  2  0  0  0
  3  4  2  0  0  0
  5  6  2  0  0  0
 13 20  2  0  0  0
 14 15  2  0  0  0
 16 21  2  0  0  0
 17 22  2  0  0  0
 32 27  2  0  0  0
M  END
> <rmsd>
0.587212861

$$$$
PubChem-141469855


 32 35  0  0  0  0  0  0  0  0999 V2000
   -1.1329   26.3497   52.8983 C   0  0  0  0  0
   -1.5751   27.4283   53.6707 C   0  0  0  0  0
   -1.1823   27.5380   55.0081 C   0  0  0  0  0
   -0.3506   26.5666   55.5755 C   0  0  0  0  0
    0.0963   25.4907   54.8002 C   0  0  0  0  0
   -0.2969   25.3813   53.4628 C   0  0  0  0  0
    0.0923   26.7015   56.9918 C   0  0  0  0  0
    2.0385   26.9437   58.3358 C   0  0  0  0  0
    1.3171   27.5375   59.5487 C   0  0  0  0  0
    1.8922   28.9048   59.8852 C   0  0  0  0  0
    2.3400   28.7848   61.3093 C   0  0  0  0  0
    1.6355   27.5207   61.7604 C   0  0  0  0  0
    3.5177   26.1528   62.7733 C   0  0  0  0  0
    2.8453   25.9446   64.7760 C   0  0  0  0  0
    2.6382   25.6524   66.1162 C   0  0  0  0  0
    0.5926   26.8757   65.9951 C   0  0  0  0  0
    1.9373   26.6798   64.1000 C   0  0  0  0  0
    1.4219   27.3005   57.0519 N   0  0  0  0  0
    2.3419   26.8321   62.8367 N   0  0  0  0  0
    3.8622   25.5919   63.9677 N   0  0  0  0  0
    1.5020   26.1308   66.7041 N   0  0  0  0  0
    0.8064   27.1575   64.6737 N   0  0  0  0  0
    3.5719   24.8786   66.8613 N   0  0  0  0  0
    1.4797   26.6792   60.6507 O   0  0  0  0  0
    0.8845   29.8650   59.7943 O   0  0  0  0  0
    1.2758   28.6497   56.9881 O   0  0  0  0  0
    2.2547   30.6621   55.6313 O   0  0  0  0  0
    2.0806   28.3953   54.3428 O   0  0  0  0  0
    3.9612   28.8079   56.3230 O   0  0  0  0  0
   -0.8510   27.4686   66.7870 Cl  0  0  0  0  0
    3.7153   28.6272   61.3225 F   0  0  0  0  0
    2.3883   29.1684   55.8159 P   0  0  0  0  0
  2  3  1  0  0  0
  4  5  1  0  0  0
  6  1  1  0  0  0
  7  4  1  0  0  0
  7 18  1  0  0  0
  8 18  1  0  0  0
  9  8  1  0  0  0
  9 10  1  0  0  0
  9 24  1  0  0  0
 10 11  1  0  0  0
 10 25  1  0  0  0
 11 12  1  0  0  0
 11 31  1  0  0  0
 12 24  1  0  0  0
 12 19  1  0  0  0
 14 20  1  0  0  0
 15 21  1  0  0  0
 15 23  1  0  0  0
 16 22  1  0  0  0
 16 30  1  0  0  0
 17 19  1  0  0  0
 17 14  1  0  0  0
 18 26  1  0  0  0
 19 13  1  0  0  0
 32 26  1  0  0  0
 32 28  1  0  0  0
 32 29  1  0  0  0
  1  2  2  0  0  0
  3  4  2  0  0  0
  5  6  2  0  0  0
 13 20  2  0  0  0
 14 15  2  0  0  0
 16 21  2  0  0  0
 17 22  2  0  0  0
 32 27  2  0  0  0
M  END
> <rmsd>
0.543228507

$$$$
PubChem-107768146


 21 21  0  0  0  0  0  0  0  0999 V2000
    7.2260   30.5399   59.6242 C   0  0  0  0  0
    5.8434   30.6729   59.0965 C   0  0  0  0  0
    3.6526   29.5667   58.4761 C   0  0  0  0  0
    2.9099   28.3031   58.8808 C   0  0  0  0  0
    0.3129   27.1415   59.5390 C   0  0  0  0  0
    0.5205   27.0942   61.0161 C   0  0  0  0  0
    1.7781   26.7985   61.5514 C   0  0  0  0  0
    1.9366   26.7489   62.9380 C   0  0  0  0  0
   -0.3611   27.2591   63.2536 C   0  0  0  0  0
   -0.5595   27.3193   61.8722 C   0  0  0  0  0
    3.2231   26.4543   63.5020 C   0  0  0  0  0
    3.6868   29.7034   56.9874 C   0  0  0  0  0
    5.4185   31.8037   58.7393 O   0  0  0  0  0
    0.7104   28.6717   57.3765 O   0  0  0  0  0
    0.7675   29.7944   59.5551 O   0  0  0  0  0
    3.1587   30.7056   56.4401 O   0  0  0  0  0
    4.3019   28.7333   56.2050 O   0  0  0  0  0
    5.0084   29.5173   59.0046 N   0  0  0  0  0
    0.8726   26.9790   63.7541 N   0  0  0  0  0
    4.2604   26.2169   63.9567 N   0  0  0  0  0
    1.1427   28.5437   58.8098 S   0  0  0  0  0
  1  2  1  0  0  0
  2 18  1  0  0  0
  3 18  1  0  0  0
  3  4  1  0  0  0
  3 12  1  0  0  0
  4 21  1  0  0  0
  5  6  1  0  0  0
  7  8  1  0  0  0
  8 11  1  0  0  0
  9 19  1  0  0  0
 10  6  1  0  0  0
 12 17  1  0  0  0
 21  5  1  0  0  0
  2 13  2  0  0  0
  6  7  2  0  0  0
  8 19  2  0  0  0
  9 10  2  0  0  0
 12 16  2  0  0  0
 21 14  2  0  0  0
 21 15  2  0  0  0
 11 20  3  0  0  0
M  END
> <rmsd>
0.582648873

$$$$
PubChem-124954071 257223999 ZINC000257223999


 26 28  0  0  0  0  0  0  0  0999 V2000
    4.2177   31.3240   53.1670 C   0  0  0  0  0
    4.0554   30.4990   54.3922 C   0  0  0  0  0
    5.0779   29.6412   54.7954 C   0  0  0  0  0
    4.8894   28.8836   55.9503 C   0  0  0  0  0
    5.9554   27.9587   56.4153 C   0  0  0  0  0
    2.7432   29.8343   56.2428 C   0  0  0  0  0
    1.4801   29.9520   57.0266 C   0  0  0  0  0
    1.7726   30.5752   58.4046 C   0  0  0  0  0
    1.4837   30.3848   60.7336 C   0  0  0  0  0
    2.8341   30.1739   61.3417 C   0  0  0  0  0
    3.6895   31.2725   61.4774 C   0  0  0  0  0
    4.9570   31.1139   62.0424 C   0  0  0  0  0
    5.3750   29.8545   62.4769 C   0  0  0  0  0
    4.5243   28.7540   62.3489 C   0  0  0  0  0
    3.2463   28.9029   61.7844 C   0  0  0  0  0
    2.6916   26.5010   62.1226 C   0  0  0  0  0
    2.4574   26.4130   63.5914 C   0  0  0  0  0
   -0.0341   29.2971   59.3096 C   0  0  0  0  0
   -0.3278   28.8706   57.8618 C   0  0  0  0  0
    3.7313   28.9923   56.6519 N   0  0  0  0  0
    1.3758   29.6599   59.4772 N   0  0  0  0  0
    2.9110   30.5816   55.1200 N   0  0  0  0  0
    2.3811   27.8081   61.6509 O   0  0  0  0  0
    3.4321   26.2915   64.3775 O   0  0  0  0  0
    1.1650   26.4774   64.0944 O   0  0  0  0  0
    0.8691   28.6855   57.1449 O   0  0  0  0  0
  1  2  1  0  0  0
  2 22  1  0  0  0
  3  4  1  0  0  0
  5  4  1  0  0  0
  6 20  1  0  0  0
  7  6  1  0  0  0
  7  8  1  0  0  0
  7 26  1  0  0  0
  8 21  1  0  0  0
  9 21  1  0  0  0
  9 10  1  0  0  0
 11 12  1  0  0  0
 13 14  1  0  0  0
 15 23  1  0  0  0
 15 10  1  0  0  0
 16 23  1  0  0  0
 16 17  1  0  0  0
 17 25  1  0  0  0
 18 21  1  0  0  0
 18 19  1  0  0  0
 19 26  1  0  0  0
  2  3  2  0  0  0
  4 20  2  0  0  0
  6 22  2  0  0  0
 10 11  2  0  0  0
 12 13  2  0  0  0
 14 15  2  0  0  0
 17 24  2  0  0  0
M  END
> <rmsd>
0.582915902

$$$$
PubChem-63646499


 21 21  0  0  0  0  0  0  0  0999 V2000
    3.1552   25.9064   58.1947 C   0  0  0  0  0
    2.4956   25.6320   60.5784 C   0  0  0  0  0
    1.6154   24.4805   61.0731 C   0  0  0  0  0
    1.7373   24.4007   62.5861 C   0  0  0  0  0
    2.4093   26.7997   61.5528 C   0  0  0  0  0
    0.8343   26.5685   58.8937 C   0  0  0  0  0
    0.5383   27.0883   57.5233 C   0  0  0  0  0
    1.4599   28.5702   55.9770 C   0  0  0  0  0
    2.6884   29.4061   55.8611 C   0  0  0  0  0
   -0.0063   29.3665   57.6160 C   0  0  0  0  0
    0.2007   30.1071   58.8983 C   0  0  0  0  0
    2.1345   26.0401   59.2224 N   0  0  0  0  0
    1.0826   28.4291   57.3739 N   0  0  0  0  0
    2.0498   26.0569   63.1112 S   0  0  0  0  0
    0.8340   26.6729   63.7427 O   0  0  0  0  0
    3.2289   26.1249   64.0394 O   0  0  0  0  0
   -0.0676   26.6351   59.7712 O   0  0  0  0  0
    3.7707   29.0158   56.3714 O   0  0  0  0  0
    2.6402   30.6146   55.1801 O   0  0  0  0  0
   -0.6536   30.9530   59.2681 O   0  0  0  0  0
    1.3226   29.8751   59.6862 O   0  0  0  0  0
  1 12  1  0  0  0
  2 12  1  0  0  0
  2  3  1  0  0  0
  3  4  1  0  0  0
  4 14  1  0  0  0
  5  2  1  0  0  0
  7  6  1  0  0  0
  7 13  1  0  0  0
  8 13  1  0  0  0
  8  9  1  0  0  0
  9 19  1  0  0  0
 10 13  1  0  0  0
 10 11  1  0  0  0
 11 21  1  0  0  0
 12  6  1  0  0  0
 14  5  1  0  0  0
  6 17  2  0  0  0
  9 18  2  0  0  0
 11 20  2  0  0  0
 14 15  2  0  0  0
 14 16  2  0  0  0
M  END
> <rmsd>
0.598222077

$$$$
PubChem-124034801


 30 32  0  0  0  0  0  0  0  0999 V2000
    3.5731   25.1598   66.3540 C   0  0  0  0  0
    4.5846   25.4480   65.2621 C   0  0  0  0  0
    5.2159   27.3086   64.0152 C   0  0  0  0  0
    4.7958   28.7641   63.9454 C   0  0  0  0  0
    3.6210   25.8109   63.1664 C   0  0  0  0  0
    2.5427   26.6115   62.4866 C   0  0  0  0  0
    1.2853   26.7117   63.1102 C   0  0  0  0  0
    0.2504   27.4577   62.4977 C   0  0  0  0  0
    0.5076   28.1269   61.2784 C   0  0  0  0  0
    1.7905   28.0923   60.6933 C   0  0  0  0  0
    2.7889   27.2654   61.2568 C   0  0  0  0  0
    4.0650   27.1021   60.5041 C   0  0  0  0  0
    3.5619   29.1044   59.1946 C   0  0  0  0  0
    2.0635   28.8248   59.3849 C   0  0  0  0  0
    1.4241   30.5665   58.0054 C   0  0  0  0  0
    2.8670   30.8257   57.5215 C   0  0  0  0  0
    3.8106   29.6496   57.7905 C   0  0  0  0  0
    0.4728   29.8781   57.0176 C   0  0  0  0  0
   -2.0999   28.3222   62.7339 C   0  0  0  0  0
   -0.0007   26.1590   65.2018 C   0  0  0  0  0
    4.0749   26.4826   64.3787 N   0  0  0  0  0
    4.8813   26.1834   60.7783 O   0  0  0  0  0
    4.3363   27.9364   59.4230 O   0  0  0  0  0
    1.3584   30.0484   59.3220 O   0  0  0  0  0
    3.6390   28.6435   56.8347 O   0  0  0  0  0
    2.8994   31.2090   56.1784 O   0  0  0  0  0
    0.8352   28.5500   56.7914 O   0  0  0  0  0
   -0.5181   28.8036   60.6250 O   0  0  0  0  0
   -1.0128   27.4904   63.1152 O   0  0  0  0  0
    1.1149   26.0315   64.3316 O   0  0  0  0  0
  1  2  1  0  0  0
  2 21  1  0  0  0
  3 21  1  0  0  0
  3  4  1  0  0  0
  5 21  1  0  0  0
  5  6  1  0  0  0
  7  8  1  0  0  0
  7 30  1  0  0  0
  8 29  1  0  0  0
  9 10  1  0  0  0
  9 28  1  0  0  0
 11 12  1  0  0  0
 11  6  1  0  0  0
 12 23  1  0  0  0
 13 23  1  0  0  0
 13 14  1  0  0  0
 14 24  1  0  0  0
 14 10  1  0  0  0
 15 24  1  0  0  0
 15 16  1  0  0  0
 15 18  1  0  0  0
 16 17  1  0  0  0
 16 26  1  0  0  0
 17 25  1  0  0  0
 17 13  1  0  0  0
 18 27  1  0  0  0
 19 29  1  0  0  0
 20 30  1  0  0  0
  6  7  2  0  0  0
  8  9  2  0  0  0
 10 11  2  0  0  0
 12 22  2  0  0  0
M  END
> <rmsd>
0.559382975

$$$$
PubChem-124034801


 30 32  0  0  0  0  0  0  0  0999 V2000
    6.3326   25.7912   65.7926 C   0  0  0  0  0
    7.0031   26.2640   64.5176 C   0  0  0  0  0
    6.9350   28.1838   63.2043 C   0  0  0  0  0
    6.2020   29.5104   63.2553 C   0  0  0  0  0
    5.5635   26.3527   62.6813 C   0  0  0  0  0
    4.2178   26.8809   62.2618 C   0  0  0  0  0
    3.1295   26.7212   63.1394 C   0  0  0  0  0
    1.8512   27.2074   62.7754 C   0  0  0  0  0
    1.6929   27.8841   61.5434 C   0  0  0  0  0
    2.7993   28.1144   60.6996 C   0  0  0  0  0
    4.0501   27.5400   61.0216 C   0  0  0  0  0
    5.1427   27.6389   60.0128 C   0  0  0  0  0
    3.9497   29.4481   58.8814 C   0  0  0  0  0
    2.6234   28.8540   59.3786 C   0  0  0  0  0
    1.3426   30.3775   58.2021 C   0  0  0  0  0
    2.5586   30.9320   57.4294 C   0  0  0  0  0
    3.7713   29.9972   57.4681 C   0  0  0  0  0
    0.3782   29.4725   57.4239 C   0  0  0  0  0
   -0.5270   27.5450   63.5215 C   0  0  0  0  0
    2.4663   25.9571   65.4438 C   0  0  0  0  0
    6.1050   27.1389   63.7838 N   0  0  0  0  0
    6.1790   26.9276   60.0889 O   0  0  0  0  0
    4.9909   28.4834   58.9163 O   0  0  0  0  0
    1.6709   29.8924   59.4918 O   0  0  0  0  0
    3.6260   28.9530   56.5495 O   0  0  0  0  0
    2.2223   31.2775   56.1181 O   0  0  0  0  0
    0.9658   28.2498   57.0985 O   0  0  0  0  0
    0.4300   28.3036   61.1361 O   0  0  0  0  0
    0.7709   26.9804   63.6467 O   0  0  0  0  0
    3.3735   26.0527   64.3548 O   0  0  0  0  0
  1  2  1  0  0  0
  2 21  1  0  0  0
  3 21  1  0  0  0
  3  4  1  0  0  0
  5 21  1  0  0  0
  5  6  1  0  0  0
  7  8  1  0  0  0
  7 30  1  0  0  0
  8 29  1  0  0  0
  9 10  1  0  0  0
  9 28  1  0  0  0
 11 12  1  0  0  0
 11  6  1  0  0  0
 12 23  1  0  0  0
 13 23  1  0  0  0
 13 14  1  0  0  0
 14 24  1  0  0  0
 14 10  1  0  0  0
 15 24  1  0  0  0
 15 16  1  0  0  0
 15 18  1  0  0  0
 16 17  1  0  0  0
 16 26  1  0  0  0
 17 25  1  0  0  0
 17 13  1  0  0  0
 18 27  1  0  0  0
 19 29  1  0  0  0
 20 30  1  0  0  0
  6  7  2  0  0  0
  8  9  2  0  0  0
 10 11  2  0  0  0
 12 22  2  0  0  0
M  END
> <rmsd>
0.627061009

$$$$
PubChem-65067327


 21 23  0  0  0  0  0  0  0  0999 V2000
    1.8525   25.2593   65.7416 C   0  0  0  0  0
    3.1945   25.9421   65.8042 C   0  0  0  0  0
    3.0814   27.2402   63.6629 C   0  0  0  0  0
    1.6808   27.4561   63.5303 C   0  0  0  0  0
    1.2227   28.3980   62.6012 C   0  0  0  0  0
    2.1158   29.1384   61.8255 C   0  0  0  0  0
    3.4866   28.9192   61.9482 C   0  0  0  0  0
    3.9611   27.9740   62.8574 C   0  0  0  0  0
    1.6033   30.1234   60.8321 C   0  0  0  0  0
    0.0031   29.2592   59.3429 C   0  0  0  0  0
   -0.3083   28.9012   57.8800 C   0  0  0  0  0
    1.5210   29.9852   57.1142 C   0  0  0  0  0
    1.9303   30.4279   58.5307 C   0  0  0  0  0
    2.7189   29.9218   56.2306 C   0  0  0  0  0
    0.8001   26.3244   65.5787 C   0  0  0  0  0
    3.6593   26.2831   64.5064 O   0  0  0  0  0
    0.8756   28.7333   57.1369 O   0  0  0  0  0
    2.7931   30.6722   55.2235 O   0  0  0  0  0
    3.7515   29.0345   56.5091 O   0  0  0  0  0
    0.7018   26.7358   64.2243 O   0  0  0  0  0
    1.4391   29.4838   59.5372 N   0  0  0  0  0
  1  2  1  0  0  0
  2 16  1  0  0  0
  3 16  1  0  0  0
  4  5  1  0  0  0
  4 20  1  0  0  0
  6  7  1  0  0  0
  8  3  1  0  0  0
  9  6  1  0  0  0
  9 21  1  0  0  0
 10 21  1  0  0  0
 10 11  1  0  0  0
 11 17  1  0  0  0
 12 17  1  0  0  0
 12 13  1  0  0  0
 12 14  1  0  0  0
 13 21  1  0  0  0
 14 19  1  0  0  0
 15 20  1  0  0  0
 15  1  1  0  0  0
  3  4  2  0  0  0
  5  6  2  0  0  0
  7  8  2  0  0  0
 14 18  2  0  0  0
M  END
> <rmsd>
0.460070759

$$$$
PubChem-129457368 257285056 ZINC000257285056


 34 37  0  0  0  0  0  0  0  0999 V2000
    1.2361   25.5545   64.7874 C   0  0  0  0  0
    1.8789   27.4135   63.2398 C   0  0  0  0  0
    1.3921   28.4274   62.4067 C   0  0  0  0  0
    2.2625   29.2521   61.6896 C   0  0  0  0  0
    1.7172   30.3373   60.8005 C   0  0  0  0  0
    0.4299   28.8544   59.4136 C   0  0  0  0  0
   -0.2020   28.7280   58.0291 C   0  0  0  0  0
    1.3480   29.4572   56.6112 C   0  0  0  0  0
    2.7027   29.7098   57.2895 C   0  0  0  0  0
    3.1012   31.1680   57.0986 C   0  0  0  0  0
    2.4790   32.4470   55.0732 C   0  0  0  0  0
    2.6915   32.6907   53.7121 C   0  0  0  0  0
    1.9311   33.6526   53.0399 C   0  0  0  0  0
    0.9530   34.3765   53.7274 C   0  0  0  0  0
    0.7343   34.1387   55.0872 C   0  0  0  0  0
   -0.3061   34.9072   55.8185 C   0  0  0  0  0
    1.4939   33.1770   55.7592 C   0  0  0  0  0
    2.6653   29.4072   58.7931 C   0  0  0  0  0
    3.6410   29.0716   61.8079 C   0  0  0  0  0
    4.1449   28.0671   62.6338 C   0  0  0  0  0
    3.2796   27.2272   63.3561 C   0  0  0  0  0
    5.1925   25.9491   64.3041 C   0  0  0  0  0
    5.6744   25.1554   63.0998 C   0  0  0  0  0
    7.7044   23.7295   63.3060 C   0  0  0  0  0
    9.0666   23.9608   63.3272 C   0  0  0  0  0
    8.0733   25.8538   63.1320 C   0  0  0  0  0
    0.9291   26.6337   63.9167 O   0  0  0  0  0
    0.7479   28.2888   57.0975 O   0  0  0  0  0
    3.6664   28.8905   56.7002 O   0  0  0  0  0
    3.2524   31.4772   55.7166 O   0  0  0  0  0
    3.8010   26.2241   64.1842 O   0  0  0  0  0
    1.4418   29.9119   59.4203 N   0  0  0  0  0
    7.1063   24.9241   63.1904 N   0  0  0  0  0
    9.2921   25.2878   63.2183 N   0  0  0  0  0
  1 27  1  0  0  0
  2 27  1  0  0  0
  3  4  1  0  0  0
  5  4  1  0  0  0
  5 32  1  0  0  0
  6 32  1  0  0  0
  6  7  1  0  0  0
  7 28  1  0  0  0
  8 28  1  0  0  0
  8  9  1  0  0  0
  9 29  1  0  0  0
  9 10  1  0  0  0
  9 18  1  0  0  0
 10 30  1  0  0  0
 11 30  1  0  0  0
 12 13  1  0  0  0
 14 15  1  0  0  0
 16 15  1  0  0  0
 17 11  1  0  0  0
 18 32  1  0  0  0
 19 20  1  0  0  0
 21 31  1  0  0  0
 21  2  1  0  0  0
 22 31  1  0  0  0
 22 23  1  0  0  0
 23 33  1  0  0  0
 25 34  1  0  0  0
 26 33  1  0  0  0
 33 24  1  0  0  0
  2  3  2  0  0  0
  4 19  2  0  0  0
 11 12  2  0  0  0
 13 14  2  0  0  0
 15 17  2  0  0  0
 20 21  2  0  0  0
 24 25  2  0  0  0
 26 34  2  0  0  0
M  END
> <rmsd>
0.425997287

$$$$
PubChem-129457368 257285056 ZINC000257285056


 34 37  0  0  0  0  0  0  0  0999 V2000
    1.3062   25.7590   65.1619 C   0  0  0  0  0
    1.9248   27.4231   63.3980 C   0  0  0  0  0
    1.4262   28.3403   62.4659 C   0  0  0  0  0
    2.2870   29.1034   61.6734 C   0  0  0  0  0
    1.7268   30.0842   60.6795 C   0  0  0  0  0
    0.5170   28.4280   59.4185 C   0  0  0  0  0
    0.2192   27.8082   58.0488 C   0  0  0  0  0
    1.7227   28.4420   56.5451 C   0  0  0  0  0
    2.7911   29.2924   57.2459 C   0  0  0  0  0
    2.5887   30.7751   56.9405 C   0  0  0  0  0
    2.4891   32.2870   54.9845 C   0  0  0  0  0
    2.5906   32.4404   53.5974 C   0  0  0  0  0
    2.4111   33.6969   53.0109 C   0  0  0  0  0
    2.1283   34.8077   53.8104 C   0  0  0  0  0
    2.0266   34.6631   55.1971 C   0  0  0  0  0
    1.7256   35.8437   56.0476 C   0  0  0  0  0
    2.2059   33.4071   55.7836 C   0  0  0  0  0
    2.7595   29.0621   58.7613 C   0  0  0  0  0
    3.6677   28.9602   61.8158 C   0  0  0  0  0
    4.1836   28.0503   62.7384 C   0  0  0  0  0
    3.3277   27.2708   63.5354 C   0  0  0  0  0
    5.2558   26.1936   64.6641 C   0  0  0  0  0
    5.4966   25.0924   65.6837 C   0  0  0  0  0
    5.3017   26.4637   67.7661 C   0  0  0  0  0
    4.5015   26.4145   68.8912 C   0  0  0  0  0
    3.9307   24.7994   67.5972 C   0  0  0  0  0
    0.9847   26.7029   64.1501 O   0  0  0  0  0
    0.4365   28.7331   57.0214 O   0  0  0  0  0
    4.0443   28.9026   56.7738 O   0  0  0  0  0
    2.6708   31.0183   55.5399 O   0  0  0  0  0
    3.8590   26.3543   64.4488 O   0  0  0  0  0
    1.4941   29.5205   59.3428 N   0  0  0  0  0
    4.9229   25.4498   66.9721 N   0  0  0  0  0
    3.6475   25.3742   68.7814 N   0  0  0  0  0
  1 27  1  0  0  0
  2 27  1  0  0  0
  3  4  1  0  0  0
  5  4  1  0  0  0
  5 32  1  0  0  0
  6 32  1  0  0  0
  6  7  1  0  0  0
  7 28  1  0  0  0
  8 28  1  0  0  0
  8  9  1  0  0  0
  9 29  1  0  0  0
  9 10  1  0  0  0
  9 18  1  0  0  0
 10 30  1  0  0  0
 11 30  1  0  0  0
 12 13  1  0  0  0
 14 15  1  0  0  0
 16 15  1  0  0  0
 17 11  1  0  0  0
 18 32  1  0  0  0
 19 20  1  0  0  0
 21 31  1  0  0  0
 21  2  1  0  0  0
 22 31  1  0  0  0
 22 23  1  0  0  0
 23 33  1  0  0  0
 25 34  1  0  0  0
 26 33  1  0  0  0
 33 24  1  0  0  0
  2  3  2  0  0  0
  4 19  2  0  0  0
 11 12  2  0  0  0
 13 14  2  0  0  0
 15 17  2  0  0  0
 20 21  2  0  0  0
 24 25  2  0  0  0
 26 34  2  0  0  0
M  END
> <rmsd>
0.434307516

$$$$
PubChem-54133879


 18 17  0  0  0  0  0  0  0  0999 V2000
    4.5866   30.7200   58.0284 C   0  0  0  0  0
    2.7565   27.8349   59.3103 C   0  0  0  0  0
    1.7584   27.1907   60.2495 C   0  0  0  0  0
    2.4719   26.1845   61.1300 C   0  0  0  0  0
    1.5074   25.5769   62.1348 C   0  0  0  0  0
    2.6043   28.1151   65.8903 C   0  0  0  0  0
    3.3225   29.9329   57.0586 S   0  0  0  0  0
    1.9443   29.0590   58.3062 S   0  0  0  0  0
    1.1789   26.7024   63.4813 S   0  0  0  0  0
    2.9434   27.3269   64.3343 S   0  0  0  0  0
    3.9448   28.8815   56.1844 O   0  0  0  0  0
    2.6405   30.9588   56.1988 O   0  0  0  0  0
    0.8698   28.4074   57.4821 O   0  0  0  0  0
    1.3316   30.1119   59.1862 O   0  0  0  0  0
    0.3531   25.9954   64.5180 O   0  0  0  0  0
    0.4194   27.8963   62.9755 O   0  0  0  0  0
    3.6261   28.3033   63.4191 O   0  0  0  0  0
    3.8389   26.1418   64.5592 O   0  0  0  0  0
  1  7  1  0  0  0
  2  3  1  0  0  0
  3  4  1  0  0  0
  4  5  1  0  0  0
  5  9  1  0  0  0
  7  8  1  0  0  0
  8  2  1  0  0  0
  9 10  1  0  0  0
 10  6  1  0  0  0
  7 11  2  0  0  0
  7 12  2  0  0  0
  8 13  2  0  0  0
  8 14  2  0  0  0
  9 15  2  0  0  0
  9 16  2  0  0  0
 10 17  2  0  0  0
 10 18  2  0  0  0
M  END
> <rmsd>
0.561187267

$$$$
PubChem-138984663


 25 26  0  0  0  0  0  0  0  0999 V2000
    0.8429   25.1096   64.7312 C   0  0  0  0  0
    2.3452   28.5221   62.9393 C   0  0  0  0  0
    1.0114   29.0194   62.4146 C   0  0  0  0  0
    1.1496   30.4422   61.9006 C   0  0  0  0  0
    3.1252   31.0196   60.4152 C   0  0  0  0  0
    3.9799   31.7444   61.3810 C   0  0  0  0  0
    3.5844   31.9329   62.7134 C   0  0  0  0  0
    4.4100   32.6174   63.6099 C   0  0  0  0  0
    5.6405   33.1206   63.1808 C   0  0  0  0  0
    6.0446   32.9388   61.8560 C   0  0  0  0  0
    5.2177   32.2536   60.9610 C   0  0  0  0  0
    3.6120   27.0739   65.4612 C   0  0  0  0  0
    0.9119   25.9541   61.4306 C   0  0  0  0  0
    0.8204   26.4610   64.3837 O   0  0  0  0  0
    3.6220   28.8380   56.6368 O   0  0  0  0  0
    2.1975   30.7600   56.0730 O   0  0  0  0  0
    1.0497   28.5494   56.8123 O   0  0  0  0  0
    3.6375   26.2820   64.3121 O   0  0  0  0  0
    2.1689   25.7378   61.9969 O   0  0  0  0  0
    2.2282   26.7126   63.4190 Si  0  0  0  0  0
    1.9174   30.4621   60.6624 N   0  0  0  0  0
    1.5148   29.9116   59.5311 N   0  0  0  0  0
    2.4528   30.1253   58.6250 N   0  0  0  0  0
    3.4704   30.8082   59.1273 N   0  0  0  0  0
    2.3642   29.5806   56.9884 S   0  0  0  0  0
  1 14  1  0  0  0
  2  3  1  0  0  0
  3  4  1  0  0  0
  4 21  1  0  0  0
  5  6  1  0  0  0
  5 21  1  0  0  0
  7  8  1  0  0  0
  9 10  1  0  0  0
 11  6  1  0  0  0
 12 18  1  0  0  0
 13 19  1  0  0  0
 20 14  1  0  0  0
 20  2  1  0  0  0
 20 18  1  0  0  0
 20 19  1  0  0  0
 23 22  1  0  0  0
 23 24  1  0  0  0
 25 23  1  0  0  0
 25 17  1  0  0  0
  5 24  2  0  0  0
  6  7  2  0  0  0
  8  9  2  0  0  0
 10 11  2  0  0  0
 21 22  2  0  0  0
 25 15  2  0  0  0
 25 16  2  0  0  0
M  CHG  1  21   1
M  END
> <rmsd>
0.513686359

$$$$
PubChem-163919651


 27 30  0  0  0  0  0  0  0  0999 V2000
    4.3728   32.4207   55.1328 B   0  0  0  0  0
    4.3000   33.9265   55.6329 C   0  0  0  0  0
    4.9639   34.0525   56.9893 C   0  0  0  0  0
    3.4525   34.1456   56.8925 C   0  0  0  0  0
    2.8154   32.9411   57.5473 C   0  0  0  0  0
    2.9292   31.6224   57.0455 C   0  0  0  0  0
    2.2804   30.5551   57.7094 C   0  0  0  0  0
    1.5467   30.8187   58.8955 C   0  0  0  0  0
    1.4172   32.1313   59.3488 C   0  0  0  0  0
    2.0431   33.1797   58.6829 C   0  0  0  0  0
    1.5802   28.5788   59.9673 C   0  0  0  0  0
    2.4809   28.7482   61.1406 C   0  0  0  0  0
    0.7486   27.8217   60.9405 C   0  0  0  0  0
    1.6734   27.6496   63.4702 C   0  0  0  0  0
    2.8313   28.0712   64.3215 C   0  0  0  0  0
    3.6114   26.8612   64.8085 C   0  0  0  0  0
    2.4996   30.2454   65.1185 C   0  0  0  0  0
    2.3082   29.2035   57.1063 C   0  0  0  0  0
    3.6584   31.3607   55.8816 O   0  0  0  0  0
    0.9444   29.8153   59.6651 O   0  0  0  0  0
    0.7308   26.9745   63.9642 O   0  0  0  0  0
    4.2838   26.2652   63.7409 O   0  0  0  0  0
    1.2716   28.4879   57.0993 O   0  0  0  0  0
    3.4677   28.7215   56.5105 O   0  0  0  0  0
    5.1105   32.0873   53.9186 O   0  0  0  0  0
    1.6402   28.0103   62.0927 N   0  0  0  0  0
    2.3613   28.8405   65.4625 N   0  0  0  0  0
  1 25  1  0  0  0
  1 19  1  0  0  0
  2  1  1  0  0  0
  2  3  1  0  0  0
  4  3  1  0  0  0
  4  5  1  0  0  0
  4  2  1  0  0  0
  6 19  1  0  0  0
  6  7  1  0  0  0
  7 18  1  0  0  0
  8  9  1  0  0  0
  8 20  1  0  0  0
 10  5  1  0  0  0
 11 20  1  0  0  0
 11 12  1  0  0  0
 12 26  1  0  0  0
 13 26  1  0  0  0
 13 11  1  0  0  0
 15 14  1  0  0  0
 15 16  1  0  0  0
 15 27  1  0  0  0
 16 22  1  0  0  0
 17 27  1  0  0  0
 18 24  1  0  0  0
 26 14  1  0  0  0
  5  6  2  0  0  0
  7  8  2  0  0  0
  9 10  2  0  0  0
 14 21  2  0  0  0
 18 23  2  0  0  0
M  END
> <rmsd>
0.529369116

$$$$
PubChem-71521854 CHEMBL2283071


 30 32  0  0  0  0  0  0  0  0999 V2000
    4.3271   26.5236   64.5294 O   0  0  0  0  0
    0.3663   25.8264   64.2700 O   0  0  0  0  0
    1.6295   29.8956   59.4185 O   0  0  0  0  0
    2.7256   31.3029   57.8937 O   0  0  0  0  0
    1.1850   33.7102   57.8435 O   0  0  0  0  0
    2.5776   30.8160   55.0792 O   0  0  0  0  0
    0.4154   28.6389   56.9411 O   0  0  0  0  0
    3.9882   28.8472   56.8444 O   0  0  0  0  0
   -0.7983   27.8440   63.0197 O   0  0  0  0  0
    3.4449   25.6914   64.8707 C   0  0  0  0  0
    2.5719   25.0890   63.8158 C   0  0  0  0  0
    1.3903   25.9682   63.5497 C   0  0  0  0  0
    1.4312   26.9983   62.4809 C   0  0  0  0  0
    2.5728   27.0954   61.6696 C   0  0  0  0  0
    2.6513   28.0490   60.6536 C   0  0  0  0  0
    1.5837   28.9276   60.4269 C   0  0  0  0  0
    2.7228   30.0285   58.5079 C   0  0  0  0  0
    1.5319   31.4525   57.1562 C   0  0  0  0  0
    1.3581   32.8981   56.7229 C   0  0  0  0  0
    1.5220   30.5147   55.9444 C   0  0  0  0  0
    1.6374   29.0651   56.4185 C   0  0  0  0  0
    2.7414   28.8930   57.4689 C   0  0  0  0  0
    0.4441   28.8407   61.2288 C   0  0  0  0  0
    0.3577   27.8883   62.2490 C   0  0  0  0  0
    3.2725   25.3502   66.2942 C   0  0  0  0  0
    2.3055   24.4191   66.6977 C   0  0  0  0  0
    2.1654   24.1165   68.0529 C   0  0  0  0  0
    2.9866   24.7405   68.9925 C   0  0  0  0  0
    3.9404   25.6624   68.5578 C   0  0  0  0  0
    4.0622   25.9446   67.2326 N   0  0  0  0  0
 10 25  1  0  0  0
 11 10  1  0  0  0
 11 12  1  0  0  0
 12 13  1  0  0  0
 14 15  1  0  0  0
 16  3  1  0  0  0
 16 23  1  0  0  0
 17  3  1  0  0  0
 17  4  1  0  0  0
 18  4  1  0  0  0
 18 19  1  0  0  0
 18 20  1  0  0  0
 19  5  1  0  0  0
 20  6  1  0  0  0
 20 21  1  0  0  0
 21  7  1  0  0  0
 21 22  1  0  0  0
 22  8  1  0  0  0
 22 17  1  0  0  0
 24  9  1  0  0  0
 24 13  1  0  0  0
 25 30  1  0  0  0
 26 27  1  0  0  0
 28 29  1  0  0  0
 10  1  2  0  0  0
 12  2  2  0  0  0
 13 14  2  0  0  0
 15 16  2  0  0  0
 23 24  2  0  0  0
 25 26  2  0  0  0
 27 28  2  0  0  0
 29 30  2  0  0  0
M  END
> <rmsd>
0.636784673

$$$$
PubChem-68980594


 19 20  0  0  0  0  0  0  0  0999 V2000
    2.8996   28.5465   60.8274 C   0  0  0  0  0
    1.6050   28.9114   60.8252 C   0  0  0  0  0
    0.7723   28.4333   61.9321 C   0  0  0  0  0
   -0.5193   28.4831   62.0857 C   0  0  0  0  0
    2.7025   27.2616   62.9311 C   0  0  0  0  0
    3.4633   27.6842   61.9035 C   0  0  0  0  0
    1.8023   30.1905   58.6301 C   0  0  0  0  0
    2.0373   29.0487   57.6526 C   0  0  0  0  0
    3.0143   29.4628   56.6062 C   0  0  0  0  0
   -0.7715   27.7456   63.2811 N   0  0  0  0  0
    1.3301   27.6875   62.9841 N   0  0  0  0  0
    3.2640   26.4270   63.9542 N   0  0  0  0  0
    1.0464   29.7244   59.7862 N   0  0  0  0  0
    0.7833   28.6615   57.0285 N   0  0  0  0  0
    0.3710   27.2305   63.8333 O   0  0  0  0  0
    2.5755   26.0717   64.9322 O   0  0  0  0  0
    4.5760   26.0185   63.8765 O   0  0  0  0  0
    4.1044   28.8453   56.4911 O   0  0  0  0  0
    2.7287   30.5237   55.7548 O   0  0  0  0  0
  2  3  1  0  0  0
  2 13  1  0  0  0
  4 10  1  0  0  0
  5 12  1  0  0  0
  6  1  1  0  0  0
  7 13  1  0  0  0
  8  7  1  0  0  0
  8  9  1  0  0  0
  8 14  1  0  0  0
  9 19  1  0  0  0
 10 15  1  0  0  0
 11 15  1  0  0  0
 11  5  1  0  0  0
 11  3  1  0  0  0
 12 17  1  0  0  0
  1  2  2  0  0  0
  3  4  2  0  0  0
  5  6  2  0  0  0
  9 18  2  0  0  0
 12 16  2  0  0  0
M  CHG  2  12   1  17  -1
M  END
> <rmsd>
0.476221025

$$$$
PubChem-68980594


 19 20  0  0  0  0  0  0  0  0999 V2000
    3.1187   28.5021   60.7660 C   0  0  0  0  0
    1.8174   28.8347   60.8380 C   0  0  0  0  0
    1.0559   28.3177   61.9782 C   0  0  0  0  0
   -0.2267   28.3328   62.1999 C   0  0  0  0  0
    3.0635   27.1778   62.8538 C   0  0  0  0  0
    3.7588   27.6362   61.7956 C   0  0  0  0  0
    1.8681   30.1546   58.6589 C   0  0  0  0  0
    2.0786   29.0354   57.6501 C   0  0  0  0  0
    2.9889   29.4911   56.5617 C   0  0  0  0  0
   -0.3978   27.5695   63.3935 N   0  0  0  0  0
    1.6860   27.5685   62.9861 N   0  0  0  0  0
    3.6979   26.3405   63.8311 N   0  0  0  0  0
    1.1856   29.6507   59.8444 N   0  0  0  0  0
    0.8030   28.6277   57.0856 N   0  0  0  0  0
    0.7842   27.0738   63.8759 O   0  0  0  0  0
    3.0706   25.9520   64.8372 O   0  0  0  0  0
    5.0134   25.9660   63.6776 O   0  0  0  0  0
    4.0859   28.9028   56.3788 O   0  0  0  0  0
    2.6335   30.5586   55.7455 O   0  0  0  0  0
  2  3  1  0  0  0
  2 13  1  0  0  0
  4 10  1  0  0  0
  5 12  1  0  0  0
  6  1  1  0  0  0
  7 13  1  0  0  0
  8  7  1  0  0  0
  8  9  1  0  0  0
  8 14  1  0  0  0
  9 19  1  0  0  0
 10 15  1  0  0  0
 11 15  1  0  0  0
 11  5  1  0  0  0
 11  3  1  0  0  0
 12 17  1  0  0  0
  1  2  2  0  0  0
  3  4  2  0  0  0
  5  6  2  0  0  0
  9 18  2  0  0  0
 12 16  2  0  0  0
M  CHG  2  12   1  17  -1
M  END
> <rmsd>
0.447140068

$$$$
PubChem-68980594


 19 20  0  0  0  0  0  0  0  0999 V2000
    2.9080   28.4657   60.8055 C   0  0  0  0  0
    1.6130   28.8292   60.8084 C   0  0  0  0  0
    0.7839   28.3448   61.9152 C   0  0  0  0  0
   -0.4256   28.6805   62.2597 C   0  0  0  0  0
    2.7097   27.1430   62.8872 C   0  0  0  0  0
    3.4778   27.6081   61.8819 C   0  0  0  0  0
    1.8155   30.1630   58.6467 C   0  0  0  0  0
    2.0382   29.0437   57.6407 C   0  0  0  0  0
    3.0161   29.4753   56.6021 C   0  0  0  0  0
   -0.6602   27.9862   63.4840 N   0  0  0  0  0
    1.3103   27.4724   62.8827 N   0  0  0  0  0
    3.2750   26.3206   63.9198 N   0  0  0  0  0
    1.0591   29.6748   59.7934 N   0  0  0  0  0
    0.7793   28.6829   57.0107 N   0  0  0  0  0
    0.4217   27.2504   63.8883 O   0  0  0  0  0
    4.4960   26.0583   63.9247 O   0  0  0  0  0
    2.4772   25.7969   64.9098 O   0  0  0  0  0
    4.1005   28.8515   56.4689 O   0  0  0  0  0
    2.7374   30.5593   55.7780 O   0  0  0  0  0
  2  3  1  0  0  0
  2 13  1  0  0  0
  4 10  1  0  0  0
  5 12  1  0  0  0
  6  1  1  0  0  0
  7 13  1  0  0  0
  8  7  1  0  0  0
  8  9  1  0  0  0
  8 14  1  0  0  0
  9 19  1  0  0  0
 10 15  1  0  0  0
 11 15  1  0  0  0
 11  5  1  0  0  0
 11  3  1  0  0  0
 12 17  1  0  0  0
  1  2  2  0  0  0
  3  4  2  0  0  0
  5  6  2  0  0  0
  9 18  2  0  0  0
 12 16  2  0  0  0
M  CHG  2  12   1  17  -1
M  END
> <rmsd>
0.447772503

$$$$
PubChem-68980594


 19 20  0  0  0  0  0  0  0  0999 V2000
    3.1091   28.4603   60.7590 C   0  0  0  0  0
    1.8049   28.7829   60.8242 C   0  0  0  0  0
    1.0432   28.2651   61.9637 C   0  0  0  0  0
   -0.1590   28.5603   62.3660 C   0  0  0  0  0
    3.0480   27.1176   62.8365 C   0  0  0  0  0
    3.7542   27.6135   61.8009 C   0  0  0  0  0
    1.8661   30.1372   58.6666 C   0  0  0  0  0
    2.0770   29.0325   57.6422 C   0  0  0  0  0
    2.9921   29.5016   56.5636 C   0  0  0  0  0
   -0.3154   27.8506   63.5940 N   0  0  0  0  0
    1.6403   27.4029   62.8988 N   0  0  0  0  0
    3.6855   26.3063   63.8352 N   0  0  0  0  0
    1.1789   29.6177   59.8427 N   0  0  0  0  0
    0.8022   28.6366   57.0676 N   0  0  0  0  0
    0.8063   27.1463   63.9422 O   0  0  0  0  0
    4.9130   26.0825   63.7820 O   0  0  0  0  0
    2.9508   25.7509   64.8563 O   0  0  0  0  0
    4.0881   28.9131   56.3757 O   0  0  0  0  0
    2.6422   30.5820   55.7622 O   0  0  0  0  0
  2  3  1  0  0  0
  2 13  1  0  0  0
  4 10  1  0  0  0
  5 12  1  0  0  0
  6  1  1  0  0  0
  7 13  1  0  0  0
  8  7  1  0  0  0
  8  9  1  0  0  0
  8 14  1  0  0  0
  9 19  1  0  0  0
 10 15  1  0  0  0
 11 15  1  0  0  0
 11  5  1  0  0  0
 11  3  1  0  0  0
 12 17  1  0  0  0
  1  2  2  0  0  0
  3  4  2  0  0  0
  5  6  2  0  0  0
  9 18  2  0  0  0
 12 16  2  0  0  0
M  CHG  2  12   1  17  -1
M  END
> <rmsd>
0.444776595

$$$$
PubChem-132768454 MCULE-5205849657


 36 39  0  0  0  0  0  0  0  0999 V2000
    2.6894   29.7526   57.2479 C   0  0  0  0  0
    1.3302   29.4631   56.5939 C   0  0  0  0  0
   -0.1398   28.5865   58.0135 C   0  0  0  0  0
    0.5240   28.6782   59.3861 C   0  0  0  0  0
    1.7827   30.1622   60.8075 C   0  0  0  0  0
    2.2439   29.0269   61.6833 C   0  0  0  0  0
    3.5281   28.4901   61.5487 C   0  0  0  0  0
    3.9473   27.4567   62.3885 C   0  0  0  0  0
    3.0891   26.9534   63.3799 C   0  0  0  0  0
    1.8047   27.4995   63.5272 C   0  0  0  0  0
   -0.3574   27.4892   64.7332 C   0  0  0  0  0
    1.3920   28.5395   62.6779 C   0  0  0  0  0
    4.7689   25.2993   64.1386 C   0  0  0  0  0
    4.8727   24.1811   65.1626 C   0  0  0  0  0
    3.9470   22.3163   63.7780 C   0  0  0  0  0
    2.8841   21.4431   63.9081 C   0  0  0  0  0
    2.8953   22.7384   65.6205 C   0  0  0  0  0
    2.7114   29.3747   58.7347 C   0  0  0  0  0
    3.0071   31.2372   57.1205 C   0  0  0  0  0
    2.2580   32.5789   55.1752 C   0  0  0  0  0
    1.2632   33.2155   55.9349 C   0  0  0  0  0
    0.4253   34.1658   55.3508 C   0  0  0  0  0
   -0.6239   34.8318   56.1653 C   0  0  0  0  0
    0.5728   34.4899   54.0019 C   0  0  0  0  0
    1.5571   33.8668   53.2301 C   0  0  0  0  0
    1.6787   34.2437   51.7918 C   0  0  0  0  0
    2.4055   32.9060   53.8151 C   0  0  0  0  0
    3.4625   32.2279   53.0028 C   0  0  0  0  0
    0.8044   28.2428   57.0369 O   0  0  0  0  0
    0.9581   26.9957   64.5207 O   0  0  0  0  0
    3.4906   25.9158   64.2274 O   0  0  0  0  0
    3.6759   29.0152   56.5921 O   0  0  0  0  0
    3.1007   31.6211   55.7522 O   0  0  0  0  0
    1.4838   29.7839   59.4184 N   0  0  0  0  0
    3.9296   23.1170   64.8553 N   0  0  0  0  0
    2.2308   21.7103   65.0594 N   0  0  0  0  0
  1  2  1  0  0  0
  1 32  1  0  0  0
  1 19  1  0  0  0
  2 29  1  0  0  0
  3 29  1  0  0  0
  3  4  1  0  0  0
  4 34  1  0  0  0
  5 34  1  0  0  0
  5  6  1  0  0  0
  7  8  1  0  0  0
  9 10  1  0  0  0
  9 31  1  0  0  0
 10 30  1  0  0  0
 11 30  1  0  0  0
 12  6  1  0  0  0
 13 31  1  0  0  0
 13 14  1  0  0  0
 14 35  1  0  0  0
 16 36  1  0  0  0
 17 35  1  0  0  0
 18 34  1  0  0  0
 18  1  1  0  0  0
 19 33  1  0  0  0
 20 33  1  0  0  0
 21 22  1  0  0  0
 23 22  1  0  0  0
 24 25  1  0  0  0
 26 25  1  0  0  0
 27 20  1  0  0  0
 28 27  1  0  0  0
 35 15  1  0  0  0
  6  7  2  0  0  0
  8  9  2  0  0  0
 10 12  2  0  0  0
 15 16  2  0  0  0
 17 36  2  0  0  0
 20 21  2  0  0  0
 22 24  2  0  0  0
 25 27  2  0  0  0
M  END
> <rmsd>
0.47552669

$$$$
PubChem-122532060


 33 37  0  0  0  0  0  0  0  0999 V2000
    4.3703   29.5501   60.7309 C   0  0  0  0  0
    2.9911   28.9221   60.7484 C   0  0  0  0  0
    2.2921   29.1569   59.4447 C   0  0  0  0  0
    1.5345   27.8660   59.1968 C   0  0  0  0  0
    3.0921   27.4088   60.7790 C   0  0  0  0  0
    4.1890   26.3296   62.7646 C   0  0  0  0  0
    2.5694   26.1320   64.1336 C   0  0  0  0  0
    2.1109   26.7284   63.0094 C   0  0  0  0  0
   -0.0565   26.8219   63.8612 C   0  0  0  0  0
    1.6930   25.8631   65.1909 C   0  0  0  0  0
    1.1513   25.0228   67.4904 C   0  0  0  0  0
    3.4687   24.7626   66.6345 C   0  0  0  0  0
    1.6678   27.4365   57.7429 C   0  0  0  0  0
    3.3573   31.1705   56.2543 C   0  0  0  0  0
    3.6641   32.5273   56.3379 C   0  0  0  0  0
    4.9067   32.9017   56.8718 C   0  0  0  0  0
    5.8183   31.9249   57.3116 C   0  0  0  0  0
    5.4984   30.5619   57.2229 C   0  0  0  0  0
    4.2613   30.2022   56.6910 C   0  0  0  0  0
    2.0334   26.8502   60.0375 O   0  0  0  0  0
    1.0301   28.3563   56.9072 O   0  0  0  0  0
    2.1931   28.2992   54.5122 O   0  0  0  0  0
    2.1669   30.6543   55.7548 O   0  0  0  0  0
    3.8071   28.8967   56.5497 O   0  0  0  0  0
    1.4065   30.2349   59.5197 O   0  0  0  0  0
    3.1161   26.8674   62.1354 N   0  0  0  0  0
    3.8847   25.8676   64.0094 N   0  0  0  0  0
    0.8132   27.0765   62.8396 N   0  0  0  0  0
    0.3838   26.2262   65.0152 N   0  0  0  0  0
    2.1089   25.2302   66.4164 N   0  0  0  0  0
   -1.4300   27.1652   63.7225 N   0  0  0  0  0
    2.2370   28.9528   55.8740 P   0  0  0  0  0
    2.2537   29.4153   61.8149 F   0  0  0  0  0
  2  1  1  0  0  0
  2  3  1  0  0  0
  2 33  1  0  0  0
  3  4  1  0  0  0
  3 25  1  0  0  0
  4 20  1  0  0  0
  4 13  1  0  0  0
  5 20  1  0  0  0
  5 26  1  0  0  0
  5  2  1  0  0  0
  7 27  1  0  0  0
  8 28  1  0  0  0
  8 26  1  0  0  0
  9 29  1  0  0  0
  9 31  1  0  0  0
 10 30  1  0  0  0
 10  7  1  0  0  0
 11 30  1  0  0  0
 12 30  1  0  0  0
 13 21  1  0  0  0
 14 23  1  0  0  0
 15 16  1  0  0  0
 17 18  1  0  0  0
 19 24  1  0  0  0
 19 14  1  0  0  0
 26  6  1  0  0  0
 32 21  1  0  0  0
 32 23  1  0  0  0
 32 24  1  0  0  0
  6 27  2  0  0  0
  7  8  2  0  0  0
  9 28  2  0  0  0
 10 29  2  0  0  0
 14 15  2  0  0  0
 16 17  2  0  0  0
 18 19  2  0  0  0
 32 22  2  0  0  0
M  END
> <rmsd>
0.561145663

$$$$
PubChem-87723810


 24 26  0  0  0  0  0  0  0  0999 V2000
    6.2515   32.7831   60.1373 C   0  0  0  0  0
    5.9703   31.4346   60.3647 C   0  0  0  0  0
    5.0948   30.7426   59.5215 C   0  0  0  0  0
    4.8609   29.4562   59.7627 C   0  0  0  0  0
    3.2625   29.3107   57.7970 C   0  0  0  0  0
    3.6393   30.7666   57.6014 C   0  0  0  0  0
    4.4876   31.4067   58.4306 C   0  0  0  0  0
    4.7843   32.7631   58.2152 C   0  0  0  0  0
    5.6593   33.4471   59.0623 C   0  0  0  0  0
    1.7779   29.2312   58.0350 C   0  0  0  0  0
    3.8496   27.2633   59.1800 C   0  0  0  0  0
    3.1272   26.9989   60.4595 C   0  0  0  0  0
    3.8346   26.9354   61.6650 C   0  0  0  0  0
    3.1565   26.7059   62.8660 C   0  0  0  0  0
    1.7647   26.5413   62.8622 C   0  0  0  0  0
    1.0580   26.6074   61.6574 C   0  0  0  0  0
    1.7379   26.8368   60.4579 C   0  0  0  0  0
    3.9708   28.6986   58.9349 N   0  0  0  0  0
    3.0750   31.4501   56.5247 O   0  0  0  0  0
    1.0304   28.5998   57.2411 O   0  0  0  0  0
    1.2204   29.8569   59.1442 O   0  0  0  0  0
    3.5962   28.6160   56.6292 O   0  0  0  0  0
    1.0810   26.3130   64.0496 O   0  0  0  0  0
    3.8685   26.6435   64.0572 O   0  0  0  0  0
  2  3  1  0  0  0
  4 18  1  0  0  0
  5 18  1  0  0  0
  5  6  1  0  0  0
  5 10  1  0  0  0
  5 22  1  0  0  0
  6 19  1  0  0  0
  7  8  1  0  0  0
  7  3  1  0  0  0
  9  1  1  0  0  0
 10 21  1  0  0  0
 11 18  1  0  0  0
 11 12  1  0  0  0
 13 14  1  0  0  0
 14 24  1  0  0  0
 15 16  1  0  0  0
 15 23  1  0  0  0
 17 12  1  0  0  0
  1  2  2  0  0  0
  3  4  2  0  0  0
  6  7  2  0  0  0
  8  9  2  0  0  0
 10 20  2  0  0  0
 12 13  2  0  0  0
 14 15  2  0  0  0
 16 17  2  0  0  0
M  END
> <rmsd>
0.60421586

$$$$
PubChem-144314124


 28 32  0  0  0  0  0  0  0  0999 V2000
    1.9965   25.3202   65.9302 C   0  0  0  0  0
    2.3780   26.4225   64.9646 C   0  0  0  0  0
    3.9368   26.9673   63.3342 C   0  0  0  0  0
    2.8337   27.2082   62.3210 C   0  0  0  0  0
    1.5844   27.5903   63.1157 C   0  0  0  0  0
    0.3764   27.7730   62.2012 C   0  0  0  0  0
    0.5551   28.9790   61.2867 C   0  0  0  0  0
    1.2945   28.6056   60.0010 C   0  0  0  0  0
    2.6727   27.9376   60.2251 C   0  0  0  0  0
    3.6659   28.3324   59.1363 C   0  0  0  0  0
    2.9919   28.4442   57.7703 C   0  0  0  0  0
    1.6791   29.3032   57.8393 C   0  0  0  0  0
    1.8092   30.5544   56.9585 C   0  0  0  0  0
    2.3509   30.2450   55.5454 C   0  0  0  0  0
    3.3005   29.0185   55.5986 C   0  0  0  0  0
    4.3084   28.9720   54.4453 C   0  0  0  0  0
    5.4380   29.9695   54.5431 C   0  0  0  0  0
    5.3474   31.1981   55.0743 C   0  0  0  0  0
    4.1103   31.7330   55.7313 C   0  0  0  0  0
    2.6350   27.6732   65.8134 C   0  0  0  0  0
    3.5436   25.9942   64.2757 O   0  0  0  0  0
    1.2861   26.5980   64.0737 O   0  0  0  0  0
    3.2095   28.2604   61.4775 O   0  0  0  0  0
    1.3986   29.7345   59.1613 O   0  0  0  0  0
    3.9396   28.9335   56.8463 O   0  0  0  0  0
    2.9655   31.3955   54.9854 O   0  0  0  0  0
    1.2225   29.8907   54.7018 N   0  0  0  0  0
    0.5654   28.5078   57.3322 N   0  0  0  0  0
  1  2  1  0  0  0
  2 21  1  0  0  0
  2 20  1  0  0  0
  2 22  1  0  0  0
  3 21  1  0  0  0
  3  4  1  0  0  0
  4  5  1  0  0  0
  4 23  1  0  0  0
  5 22  1  0  0  0
  5  6  1  0  0  0
  6  7  1  0  0  0
  8  7  1  0  0  0
  8  9  1  0  0  0
  8 24  1  0  0  0
  9 23  1  0  0  0
  9 10  1  0  0  0
 10 11  1  0  0  0
 11 12  1  0  0  0
 11 25  1  0  0  0
 12 24  1  0  0  0
 12 13  1  0  0  0
 12 28  1  0  0  0
 13 14  1  0  0  0
 14 15  1  0  0  0
 14 27  1  0  0  0
 14 26  1  0  0  0
 15 25  1  0  0  0
 15 16  1  0  0  0
 16 17  1  0  0  0
 19 18  1  0  0  0
 19 26  1  0  0  0
 17 18  2  0  0  0
M  END
> <rmsd>
0.59985429

$$$$
PubChem-65067219 CSC096364720


 21 22  0  0  0  0  0  0  0  0999 V2000
   -0.6401   26.9583   64.2596 C   0  0  0  0  0
    1.6780   27.4468   63.5403 C   0  0  0  0  0
    3.0482   27.1796   63.6757 C   0  0  0  0  0
    3.9715   27.8736   62.8775 C   0  0  0  0  0
    3.5415   28.8278   61.9526 C   0  0  0  0  0
    2.1695   29.1011   61.8218 C   0  0  0  0  0
    1.2482   28.4064   62.6102 C   0  0  0  0  0
    1.6634   30.0946   60.8279 C   0  0  0  0  0
    0.0571   29.2040   59.3583 C   0  0  0  0  0
   -0.2702   28.8591   57.8958 C   0  0  0  0  0
    1.5459   29.9540   57.1094 C   0  0  0  0  0
    1.9441   30.4173   58.5229 C   0  0  0  0  0
    2.7473   29.8926   56.2279 C   0  0  0  0  0
    4.8374   25.8926   64.8039 C   0  0  0  0  0
    0.7634   26.7488   64.3364 O   0  0  0  0  0
    0.9068   28.6981   57.1404 O   0  0  0  0  0
    3.6890   29.0967   56.4854 O   0  0  0  0  0
    2.8246   30.7152   55.1125 O   0  0  0  0  0
    3.4694   26.2226   64.6055 O   0  0  0  0  0
    1.4907   29.4582   59.5323 N   0  0  0  0  0
    4.8581   29.7304   60.8963 Br  0  0  0  0  0
  1 15  1  0  0  0
  2 15  1  0  0  0
  3  4  1  0  0  0
  3 19  1  0  0  0
  5  6  1  0  0  0
  5 21  1  0  0  0
  7  2  1  0  0  0
  8  6  1  0  0  0
  8 20  1  0  0  0
  9 20  1  0  0  0
  9 10  1  0  0  0
 10 16  1  0  0  0
 11 16  1  0  0  0
 11 12  1  0  0  0
 11 13  1  0  0  0
 12 20  1  0  0  0
 13 18  1  0  0  0
 14 19  1  0  0  0
  2  3  2  0  0  0
  4  5  2  0  0  0
  6  7  2  0  0  0
 13 17  2  0  0  0
M  END
> <rmsd>
0.539766729

$$$$
PubChem-75470853 CSC027071074 MCULE-2910416518 MolPort-028-939-009


 24 26  0  0  0  0  0  0  0  0999 V2000
    2.9351   25.4541   65.3984 C   0  0  0  0  0
    3.0854   27.2290   63.6438 C   0  0  0  0  0
    3.9524   27.9957   62.8559 C   0  0  0  0  0
    3.4549   28.9365   61.9519 C   0  0  0  0  0
    2.0774   29.1259   61.8287 C   0  0  0  0  0
    1.5448   30.1106   60.8459 C   0  0  0  0  0
   -0.0433   29.2760   59.3281 C   0  0  0  0  0
   -0.3390   28.9409   57.8566 C   0  0  0  0  0
    1.5286   29.9842   57.1260 C   0  0  0  0  0
    1.9108   30.4232   58.5515 C   0  0  0  0  0
    2.7475   29.8913   56.2727 C   0  0  0  0  0
    4.1465   30.2100   54.7655 C   0  0  0  0  0
    4.8527   30.7362   53.5620 C   0  0  0  0  0
    5.0661   29.6250   52.5535 C   0  0  0  0  0
    6.1892   31.3310   53.9586 C   0  0  0  0  0
    1.1986   28.3634   62.6012 C   0  0  0  0  0
    1.6884   27.4191   63.5092 C   0  0  0  0  0
    3.6646   26.3070   64.5279 O   0  0  0  0  0
    0.8533   28.7475   57.1338 O   0  0  0  0  0
    4.6089   29.2626   55.5455 O   0  0  0  0  0
    0.7759   26.6872   64.2584 O   0  0  0  0  0
    1.3924   29.4804   59.5452 N   0  0  0  0  0
    3.7616   29.0333   56.5012 N   0  0  0  0  0
    2.9468   30.6575   55.1812 N   0  0  0  0  0
  1 18  1  0  0  0
  2 18  1  0  0  0
  3  4  1  0  0  0
  5 16  1  0  0  0
  6  5  1  0  0  0
  6 22  1  0  0  0
  7 22  1  0  0  0
  7  8  1  0  0  0
  8 19  1  0  0  0
  9 19  1  0  0  0
  9 10  1  0  0  0
  9 11  1  0  0  0
 10 22  1  0  0  0
 11 24  1  0  0  0
 12 20  1  0  0  0
 13 12  1  0  0  0
 13 14  1  0  0  0
 13 15  1  0  0  0
 17 21  1  0  0  0
 17  2  1  0  0  0
 23 20  1  0  0  0
  2  3  2  0  0  0
  4  5  2  0  0  0
 11 23  2  0  0  0
 12 24  2  0  0  0
 16 17  2  0  0  0
M  END
> <rmsd>
0.47871238

$$$$
PubChem-68418670


 26 26  0  0  0  0  0  0  0  0999 V2000
    6.0291   27.0116   58.0529 C   0  0  0  0  0
    5.0252   26.6646   59.1377 C   0  0  0  0  0
    4.9599   25.1420   59.2938 C   0  0  0  0  0
    3.9840   24.4768   58.3343 C   0  0  0  0  0
    2.6277   24.3436   59.0093 C   0  0  0  0  0
    1.8275   25.6439   58.9615 C   0  0  0  0  0
    2.4904   26.8155   59.6927 C   0  0  0  0  0
    3.6747   27.3701   58.8844 C   0  0  0  0  0
    3.8131   28.8800   59.1080 C   0  0  0  0  0
    2.9648   29.7504   58.1588 C   0  0  0  0  0
    3.2320   31.1998   58.5331 C   0  0  0  0  0
    1.4926   29.4673   58.3506 C   0  0  0  0  0
    3.3591   29.5925   56.7061 C   0  0  0  0  0
    2.8265   26.5256   61.1664 C   0  0  0  0  0
    1.6436   26.6549   62.1417 C   0  0  0  0  0
    0.5987   25.5896   61.8175 C   0  0  0  0  0
    2.1192   26.4175   63.5532 C   0  0  0  0  0
    1.0598   28.0452   62.0572 C   0  0  0  0  0
    0.9065   29.8416   59.4013 O   0  0  0  0  0
    0.7730   28.7583   57.3939 O   0  0  0  0  0
    4.3143   28.8469   56.3627 O   0  0  0  0  0
    2.6774   30.3058   55.7257 O   0  0  0  0  0
    1.3016   26.4712   64.5114 O   0  0  0  0  0
    3.4560   26.1399   63.8227 O   0  0  0  0  0
   -0.1555   28.2258   61.7743 O   0  0  0  0  0
    1.8694   29.1486   62.3035 O   0  0  0  0  0
  2  1  1  0  0  0
  2  3  1  0  0  0
  3  4  1  0  0  0
  4  5  1  0  0  0
  5  6  1  0  0  0
  6  7  1  0  0  0
  7  8  1  0  0  0
  7 14  1  0  0  0
  8  9  1  0  0  0
  8  2  1  0  0  0
  9 10  1  0  0  0
 10 11  1  0  0  0
 10 12  1  0  0  0
 10 13  1  0  0  0
 12 20  1  0  0  0
 13 22  1  0  0  0
 14 15  1  0  0  0
 15 16  1  0  0  0
 15 17  1  0  0  0
 15 18  1  0  0  0
 17 24  1  0  0  0
 18 26  1  0  0  0
 12 19  2  0  0  0
 13 21  2  0  0  0
 17 23  2  0  0  0
 18 25  2  0  0  0
M  END
> <rmsd>
0.623147845

$$$$
PubChem-3298152 MCULE-5667549958 MolPort-002-514-374


 17 16  0  0  0  0  0  0  0  0999 V2000
    3.6410   26.8884   64.2391 N   0  0  0  0  0
    2.7874   27.3377   63.1516 C   0  0  0  0  0
    3.0153   26.4772   61.9162 C   0  0  0  0  0
    4.3537   26.7962   61.2609 C   0  0  0  0  0
    4.3322   28.1666   60.6010 C   0  0  0  0  0
    3.4682   28.1407   59.3508 C   0  0  0  0  0
    3.3170   29.5417   58.7802 C   0  0  0  0  0
    2.3920   30.3637   59.6210 C   0  0  0  0  0
    1.3564   27.2763   63.5693 C   0  0  0  0  0
    1.0821   29.9536   59.8417 O   0  0  0  0  0
    2.8069   31.4316   60.1407 O   0  0  0  0  0
    1.2031   28.6732   57.0346 O   0  0  0  0  0
    3.8070   28.5707   56.1295 O   0  0  0  0  0
    2.5675   30.8411   56.5023 O   0  0  0  0  0
    0.5919   28.4349   63.5697 O   0  0  0  0  0
    0.8370   26.1841   63.9226 O   0  0  0  0  0
    2.7070   29.4467   57.0690 P   0  0  0  0  0
  2  1  1  0  0  0
  2  3  1  0  0  0
  2  9  1  0  0  0
  3  4  1  0  0  0
  4  5  1  0  0  0
  5  6  1  0  0  0
  7  6  1  0  0  0
  7  8  1  0  0  0
  7 17  1  0  0  0
  8 10  1  0  0  0
  9 15  1  0  0  0
 17 12  1  0  0  0
 17 13  1  0  0  0
  8 11  2  0  0  0
  9 16  2  0  0  0
 17 14  2  0  0  0
M  END
> <rmsd>
0.686373889

$$$$
PubChem-149868336


 27 29  0  0  0  0  0  0  0  0999 V2000
    1.8098   28.7371   65.6566 C   0  0  0  0  0
    2.6731   29.1109   66.8569 C   0  0  0  0  0
    3.4017   27.9033   67.3565 C   0  0  0  0  0
    3.4893   26.9728   65.0521 C   0  0  0  0  0
    2.6593   28.1234   64.5406 C   0  0  0  0  0
    0.7565   26.7364   63.4395 C   0  0  0  0  0
    0.2209   26.5809   62.0937 C   0  0  0  0  0
    0.9187   27.4291   61.2516 C   0  0  0  0  0
    1.9097   28.1310   62.0749 C   0  0  0  0  0
    0.6231   27.4921   59.8818 C   0  0  0  0  0
   -0.4053   26.6644   59.3954 C   0  0  0  0  0
   -1.1104   25.8043   60.2603 C   0  0  0  0  0
   -0.7993   25.7552   61.6282 C   0  0  0  0  0
    3.1994   28.0472   58.6914 C   0  0  0  0  0
    4.0346   29.0676   57.9365 C   0  0  0  0  0
    3.6437   27.7792   68.5846 O   0  0  0  0  0
    3.9381   26.1087   64.2533 O   0  0  0  0  0
    0.3711   26.1115   64.4630 O   0  0  0  0  0
    2.7450   28.9812   61.6690 O   0  0  0  0  0
    1.3851   29.9724   59.2585 O   0  0  0  0  0
    0.8773   28.4559   57.4078 O   0  0  0  0  0
    3.8304   26.8943   66.4390 N   0  0  0  0  0
    1.8052   27.7060   63.4326 N   0  0  0  0  0
    3.7843   28.9642   56.5101 N   0  0  0  0  0
    3.3537   29.9341   55.8877 N   0  0  0  0  0
    2.9225   30.9035   55.2655 N   0  0  0  0  0
    1.4898   28.5523   58.7774 S   0  0  0  0  0
  1  2  1  0  0  0
  2  3  1  0  0  0
  3 22  1  0  0  0
  5  4  1  0  0  0
  5 23  1  0  0  0
  5  1  1  0  0  0
  6  7  1  0  0  0
  8  9  1  0  0  0
  8 10  1  0  0  0
  9 23  1  0  0  0
 11 12  1  0  0  0
 13  7  1  0  0  0
 14 15  1  0  0  0
 15 24  1  0  0  0
 22  4  1  0  0  0
 23  6  1  0  0  0
 27 10  1  0  0  0
 27 14  1  0  0  0
  3 16  2  0  0  0
  4 17  2  0  0  0
  6 18  2  0  0  0
  7  8  2  0  0  0
  9 19  2  0  0  0
 10 11  2  0  0  0
 12 13  2  0  0  0
 24 25  2  0  0  0
 25 26  2  0  0  0
 27 20  2  0  0  0
 27 21  2  0  0  0
M  CHG  2  25   1  26  -1
M  END
> <rmsd>
0.425173283

$$$$
PubChem-140096879


 22 23  0  0  0  0  0  0  0  0999 V2000
    6.1884   26.8269   60.9762 C   0  0  0  0  0
    5.4701   26.5268   62.1352 C   0  0  0  0  0
    4.0922   26.7506   62.1902 C   0  0  0  0  0
    3.4333   27.2769   61.0686 C   0  0  0  0  0
    4.1359   27.5796   59.8921 C   0  0  0  0  0
    5.5331   27.3526   59.8597 C   0  0  0  0  0
    6.2660   27.6593   58.7171 C   0  0  0  0  0
    5.6275   28.1993   57.6043 C   0  0  0  0  0
    4.2440   28.4362   57.6103 C   0  0  0  0  0
    3.4805   28.1090   58.7541 C   0  0  0  0  0
    4.3298   29.3624   55.3106 C   0  0  0  0  0
    3.3676   29.9464   54.2950 C   0  0  0  0  0
    2.0022   26.6377   63.5065 C   0  0  0  0  0
    1.5694   26.2074   64.8916 C   0  0  0  0  0
    1.7254   28.3971   58.7747 S   0  0  0  0  0
    1.1763   28.4991   57.3795 O   0  0  0  0  0
    1.4420   29.6755   59.5113 O   0  0  0  0  0
    0.9436   27.1237   59.5440 O   0  0  0  0  0
    3.6230   29.0014   56.4907 O   0  0  0  0  0
    2.8511   31.1514   54.7710 O   0  0  0  0  0
    3.4027   26.4426   63.3659 O   0  0  0  0  0
    0.1957   26.3987   65.0291 O   0  0  0  0  0
  2  3  1  0  0  0
  3 21  1  0  0  0
  4  5  1  0  0  0
  6  7  1  0  0  0
  6  1  1  0  0  0
  8  9  1  0  0  0
  9 19  1  0  0  0
 10  5  1  0  0  0
 11 19  1  0  0  0
 11 12  1  0  0  0
 12 20  1  0  0  0
 13 21  1  0  0  0
 13 14  1  0  0  0
 14 22  1  0  0  0
 15 10  1  0  0  0
 15 18  1  0  0  0
  1  2  2  0  0  0
  3  4  2  0  0  0
  5  6  2  0  0  0
  7  8  2  0  0  0
  9 10  2  0  0  0
 15 16  2  0  0  0
 15 17  2  0  0  0
M  END
> <rmsd>
0.682305574

$$$$
PubChem-140096879


 22 23  0  0  0  0  0  0  0  0999 V2000
    6.1885   26.8275   60.9764 C   0  0  0  0  0
    5.4703   26.5273   62.1355 C   0  0  0  0  0
    4.0924   26.7511   62.1904 C   0  0  0  0  0
    3.4334   27.2772   61.0687 C   0  0  0  0  0
    4.1360   27.5799   59.8923 C   0  0  0  0  0
    5.5332   27.3530   59.8599 C   0  0  0  0  0
    6.2661   27.6598   58.7172 C   0  0  0  0  0
    5.6276   28.1997   57.6044 C   0  0  0  0  0
    4.2441   28.4364   57.6103 C   0  0  0  0  0
    3.4805   28.1092   58.7542 C   0  0  0  0  0
    4.3297   29.3625   55.3106 C   0  0  0  0  0
    3.3676   29.9463   54.2949 C   0  0  0  0  0
    2.0023   26.6381   63.5066 C   0  0  0  0  0
    1.5695   26.2078   64.8919 C   0  0  0  0  0
    1.7254   28.3972   58.7748 S   0  0  0  0  0
    1.4419   29.6755   59.5113 O   0  0  0  0  0
    1.1763   28.4990   57.3796 O   0  0  0  0  0
    0.9438   27.1237   59.5442 O   0  0  0  0  0
    3.6230   29.0016   56.4908 O   0  0  0  0  0
    2.8510   31.1513   54.7709 O   0  0  0  0  0
    3.4028   26.4431   63.3660 O   0  0  0  0  0
    0.1958   26.3990   65.0292 O   0  0  0  0  0
  2  3  1  0  0  0
  3 21  1  0  0  0
  4  5  1  0  0  0
  6  7  1  0  0  0
  6  1  1  0  0  0
  8  9  1  0  0  0
  9 19  1  0  0  0
 10  5  1  0  0  0
 11 19  1  0  0  0
 11 12  1  0  0  0
 12 20  1  0  0  0
 13 21  1  0  0  0
 13 14  1  0  0  0
 14 22  1  0  0  0
 15 10  1  0  0  0
 15 18  1  0  0  0
  1  2  2  0  0  0
  3  4  2  0  0  0
  5  6  2  0  0  0
  7  8  2  0  0  0
  9 10  2  0  0  0
 15 16  2  0  0  0
 15 17  2  0  0  0
M  END
> <rmsd>
0.682325304

$$$$
PubChem-158216751 PubChem-161372098 PubChem-58099909


 34 37  0  0  0  0  0  0  0  0999 V2000
   -0.2924   25.3067   58.1055 C   0  0  0  0  0
   -0.2347   25.3910   59.4952 C   0  0  0  0  0
    0.2167   26.5601   60.1126 C   0  0  0  0  0
    0.6139   27.6717   59.3262 C   0  0  0  0  0
    0.5903   27.5661   57.9149 C   0  0  0  0  0
    0.1214   26.3841   57.3232 C   0  0  0  0  0
    1.1380   28.5612   55.7010 C   0  0  0  0  0
    2.1913   29.5408   55.1925 C   0  0  0  0  0
    3.6138   29.0581   55.4664 C   0  0  0  0  0
    4.6541   29.4461   57.6927 C   0  0  0  0  0
    5.2837   30.6176   57.2445 C   0  0  0  0  0
    6.1117   31.3483   58.0964 C   0  0  0  0  0
    6.3168   30.9232   59.4102 C   0  0  0  0  0
    5.7038   29.7586   59.8753 C   0  0  0  0  0
    4.8796   28.9957   59.0152 C   0  0  0  0  0
    4.3273   27.8069   59.5304 C   0  0  0  0  0
    4.5623   27.4597   60.8573 C   0  0  0  0  0
    5.3611   28.2826   61.6561 C   0  0  0  0  0
    4.9877   26.9875   63.7577 C   0  0  0  0  0
    1.0383   28.8323   60.0079 C   0  0  0  0  0
    1.0586   28.8414   61.3987 C   0  0  0  0  0
    0.6614   27.6998   62.0972 C   0  0  0  0  0
    0.6643   27.6979   63.5658 C   0  0  0  0  0
    1.0485   28.6233   57.1223 O   0  0  0  0  0
    3.7931   28.7420   56.8438 O   0  0  0  0  0
    3.6327   27.0386   58.8186 O   0  0  0  0  0
    5.9054   29.3772   61.1336 O   0  0  0  0  0
    5.6259   27.9791   62.9994 O   0  0  0  0  0
    3.9998   26.3380   63.3234 O   0  0  0  0  0
    1.9929   30.8059   55.7474 O   0  0  0  0  0
    1.4054   29.8670   59.3899 O   0  0  0  0  0
    0.2616   26.6169   61.4376 O   0  0  0  0  0
    0.4360   26.6327   64.1955 O   0  0  0  0  0
    0.9058   28.8720   64.2706 O   0  0  0  0  0
  2  3  1  0  0  0
  3 32  1  0  0  0
  4  5  1  0  0  0
  4 20  1  0  0  0
  5 24  1  0  0  0
  6  1  1  0  0  0
  7 24  1  0  0  0
  8  7  1  0  0  0
  8  9  1  0  0  0
  8 30  1  0  0  0
  9 25  1  0  0  0
 10 25  1  0  0  0
 11 12  1  0  0  0
 13 14  1  0  0  0
 14 27  1  0  0  0
 15 16  1  0  0  0
 15 10  1  0  0  0
 16 17  1  0  0  0
 18 27  1  0  0  0
 18 28  1  0  0  0
 19 28  1  0  0  0
 20 21  1  0  0  0
 22 32  1  0  0  0
 22 23  1  0  0  0
 23 34  1  0  0  0
  1  2  2  0  0  0
  3  4  2  0  0  0
  5  6  2  0  0  0
 10 11  2  0  0  0
 12 13  2  0  0  0
 14 15  2  0  0  0
 16 26  2  0  0  0
 17 18  2  0  0  0
 19 29  2  0  0  0
 20 31  2  0  0  0
 21 22  2  0  0  0
 23 33  2  0  0  0
M  END
> <rmsd>
0.515957713

$$$$
PubChem-161168926 PubChem-58312559


 29 31  0  0  0  0  0  0  0  0999 V2000
   -0.2924   27.1898   59.6531 C   0  0  0  0  0
    1.0177   26.8134   59.0350 C   0  0  0  0  0
    1.7571   25.7331   59.5578 C   0  0  0  0  0
    2.9453   25.3376   58.9397 C   0  0  0  0  0
    3.3981   25.9949   57.7974 C   0  0  0  0  0
    2.6719   27.0622   57.2646 C   0  0  0  0  0
    1.4895   27.4950   57.8897 C   0  0  0  0  0
    0.4441   29.7272   58.0529 C   0  0  0  0  0
   -0.4480   30.7369   57.4270 C   0  0  0  0  0
    3.1940   27.7618   56.0512 C   0  0  0  0  0
    3.7900   29.9712   56.7940 C   0  0  0  0  0
    3.2963   30.7683   55.6181 C   0  0  0  0  0
    4.6898   29.4763   54.1218 C   0  0  0  0  0
    5.2527   28.7212   55.2911 C   0  0  0  0  0
    1.3161   25.0026   60.7865 C   0  0  0  0  0
    2.9440   24.9731   62.4794 C   0  0  0  0  0
    3.4126   25.5926   63.7617 C   0  0  0  0  0
    1.1368   26.2511   64.2479 C   0  0  0  0  0
    0.6952   25.6288   62.9568 C   0  0  0  0  0
    0.7871   28.5758   57.3368 O   0  0  0  0  0
    0.9085   29.9386   59.2053 O   0  0  0  0  0
    2.4848   31.7119   55.7998 O   0  0  0  0  0
    3.7490   30.4812   54.3318 O   0  0  0  0  0
    5.0968   29.2286   52.9576 O   0  0  0  0  0
    4.6317   25.5677   64.0704 O   0  0  0  0  0
    2.4837   26.1957   64.6119 O   0  0  0  0  0
    0.2949   26.7833   65.0161 O   0  0  0  0  0
    4.3024   28.6451   56.4098 N   0  0  0  0  0
    1.7782   25.7030   61.9738 N   0  0  0  0  0
  1  2  1  0  0  0
  3  4  1  0  0  0
  5  6  1  0  0  0
  7 20  1  0  0  0
  7  2  1  0  0  0
  8 20  1  0  0  0
  9  8  1  0  0  0
 10  6  1  0  0  0
 10 28  1  0  0  0
 11 28  1  0  0  0
 11 12  1  0  0  0
 12 23  1  0  0  0
 13 23  1  0  0  0
 14 13  1  0  0  0
 14 28  1  0  0  0
 15  3  1  0  0  0
 15 29  1  0  0  0
 16 29  1  0  0  0
 16 17  1  0  0  0
 17 26  1  0  0  0
 18 26  1  0  0  0
 19 18  1  0  0  0
 19 29  1  0  0  0
  2  3  2  0  0  0
  4  5  2  0  0  0
  6  7  2  0  0  0
  8 21  2  0  0  0
 12 22  2  0  0  0
 13 24  2  0  0  0
 17 25  2  0  0  0
 18 27  2  0  0  0
M  END
> <rmsd>
0.582255065

$$$$
PubChem-71350824


 24 25  0  0  0  0  0  0  0  0999 V2000
    2.1894   23.7832   63.2753 C   0  0  0  0  0
    2.0281   26.2191   61.7135 C   0  0  0  0  0
    1.4328   27.4683   61.5262 C   0  0  0  0  0
    1.3020   28.0217   60.2441 C   0  0  0  0  0
    1.7567   27.2816   59.1202 C   0  0  0  0  0
    2.3712   26.0373   59.3290 C   0  0  0  0  0
    2.5122   25.5122   60.6131 C   0  0  0  0  0
    1.5524   27.7296   57.7248 C   0  0  0  0  0
    2.5271   27.3271   56.6552 C   0  0  0  0  0
    1.8676   26.5050   55.5785 C   0  0  0  0  0
    1.3996   27.1297   54.2919 C   0  0  0  0  0
    1.3826   28.6543   54.3809 C   0  0  0  0  0
    2.7315   29.2126   54.8340 C   0  0  0  0  0
    3.2367   28.5239   56.0787 C   0  0  0  0  0
    2.1986   25.5613   63.3314 S   0  0  0  0  0
    1.0495   26.0167   64.1867 O   0  0  0  0  0
    3.4907   26.0363   63.9327 O   0  0  0  0  0
    0.5409   28.4182   57.4184 O   0  0  0  0  0
    1.7127   25.3072   55.7503 O   0  0  0  0  0
    4.2531   28.9293   56.6197 O   0  0  0  0  0
    2.6012   30.5819   55.0688 O   0  0  0  0  0
    1.2736   30.1683   59.3368 O   0  0  0  0  0
   -0.1427   29.7988   61.0586 O   0  0  0  0  0
    0.7620   29.3468   60.1251 N   0  0  0  0  0
  1 15  1  0  0  0
  3  4  1  0  0  0
  4 24  1  0  0  0
  5  6  1  0  0  0
  5  8  1  0  0  0
  7  2  1  0  0  0
  9  8  1  0  0  0
  9 10  1  0  0  0
  9 14  1  0  0  0
 11 10  1  0  0  0
 11 12  1  0  0  0
 12 13  1  0  0  0
 13 14  1  0  0  0
 13 21  1  0  0  0
 15  2  1  0  0  0
 24 23  1  0  0  0
  2  3  2  0  0  0
  4  5  2  0  0  0
  6  7  2  0  0  0
  8 18  2  0  0  0
 10 19  2  0  0  0
 14 20  2  0  0  0
 15 16  2  0  0  0
 15 17  2  0  0  0
 24 22  2  0  0  0
M  CHG  2  24   1  23  -1
M  END
> <rmsd>
0.648462355

$$$$
PubChem-90691491


 35 38  0  0  0  0  0  0  0  0999 V2000
    2.2944   30.4699   53.9619 C   0  0  0  0  0
    2.3748   30.0385   55.4087 C   0  0  0  0  0
    1.3482   28.9168   55.6181 C   0  0  0  0  0
    0.8652   27.4806   57.5918 C   0  0  0  0  0
    0.7506   26.3306   56.7946 C   0  0  0  0  0
    0.5497   25.0751   57.3722 C   0  0  0  0  0
    0.4675   24.9508   58.7584 C   0  0  0  0  0
    0.5817   26.0760   59.5718 C   0  0  0  0  0
    0.7760   27.3586   58.9995 C   0  0  0  0  0
    0.9031   28.4521   59.8801 C   0  0  0  0  0
    0.8347   28.2367   61.2519 C   0  0  0  0  0
    0.6369   26.9402   61.7357 C   0  0  0  0  0
    0.5720   26.6847   63.1804 C   0  0  0  0  0
    3.8174   29.5959   55.6885 C   0  0  0  0  0
    4.2321   29.0250   58.0723 C   0  0  0  0  0
    4.4948   30.3689   58.3885 C   0  0  0  0  0
    4.7556   30.7601   59.7025 C   0  0  0  0  0
    4.7404   29.8139   60.7241 C   0  0  0  0  0
    4.4800   28.4717   60.4384 C   0  0  0  0  0
    4.2567   28.0535   59.1021 C   0  0  0  0  0
    4.0498   26.6764   58.8752 C   0  0  0  0  0
    4.0061   25.8016   59.9597 C   0  0  0  0  0
    4.1929   26.3019   61.2510 C   0  0  0  0  0
    4.1225   25.4061   62.4110 C   0  0  0  0  0
    1.0853   28.7361   57.0060 O   0  0  0  0  0
    1.0826   29.6232   59.4579 O   0  0  0  0  0
    0.5215   25.9249   60.8875 O   0  0  0  0  0
    0.7296   27.6204   64.0060 O   0  0  0  0  0
    0.3422   25.3963   63.6457 O   0  0  0  0  0
    3.9071   28.6613   56.7597 O   0  0  0  0  0
    3.8957   26.2156   57.7159 O   0  0  0  0  0
    4.4369   27.5969   61.4362 O   0  0  0  0  0
    4.3293   25.8574   63.5674 O   0  0  0  0  0
    3.8235   24.0581   62.2492 O   0  0  0  0  0
    2.0548   31.1365   56.2245 O   0  0  0  0  0
  1  2  1  0  0  0
  2  3  1  0  0  0
  2 14  1  0  0  0
  2 35  1  0  0  0
  3 25  1  0  0  0
  4 25  1  0  0  0
  5  6  1  0  0  0
  7  8  1  0  0  0
  8 27  1  0  0  0
  9 10  1  0  0  0
  9  4  1  0  0  0
 10 11  1  0  0  0
 12 27  1  0  0  0
 12 13  1  0  0  0
 13 29  1  0  0  0
 14 30  1  0  0  0
 15 30  1  0  0  0
 16 17  1  0  0  0
 18 19  1  0  0  0
 19 32  1  0  0  0
 20 21  1  0  0  0
 20 15  1  0  0  0
 21 22  1  0  0  0
 23 32  1  0  0  0
 23 24  1  0  0  0
 24 34  1  0  0  0
  4  5  2  0  0  0
  6  7  2  0  0  0
  8  9  2  0  0  0
 10 26  2  0  0  0
 11 12  2  0  0  0
 13 28  2  0  0  0
 15 16  2  0  0  0
 17 18  2  0  0  0
 19 20  2  0  0  0
 21 31  2  0  0  0
 22 23  2  0  0  0
 24 33  2  0  0  0
M  END
> <rmsd>
0.635286391

$$$$
PubChem-90691491


 35 38  0  0  0  0  0  0  0  0999 V2000
    2.2125   30.0680   53.8010 C   0  0  0  0  0
    2.3348   29.8053   55.2849 C   0  0  0  0  0
    1.2628   28.7748   55.6654 C   0  0  0  0  0
    0.7952   27.6089   57.8133 C   0  0  0  0  0
    0.5871   26.3815   57.1640 C   0  0  0  0  0
    0.3484   25.2155   57.8946 C   0  0  0  0  0
    0.3214   25.2593   59.2878 C   0  0  0  0  0
    0.5285   26.4639   59.9562 C   0  0  0  0  0
    0.7622   27.6578   59.2279 C   0  0  0  0  0
    0.9835   28.8382   59.9662 C   0  0  0  0  0
    0.9650   28.7892   61.3555 C   0  0  0  0  0
    0.7232   27.5714   61.9978 C   0  0  0  0  0
    0.7093   27.4909   63.4641 C   0  0  0  0  0
    3.7639   29.3189   55.5607 C   0  0  0  0  0
    4.2542   29.0090   57.9781 C   0  0  0  0  0
    4.5986   30.3640   58.1215 C   0  0  0  0  0
    4.9367   30.8914   59.3685 C   0  0  0  0  0
    4.9187   30.0737   60.4956 C   0  0  0  0  0
    4.5780   28.7239   60.3822 C   0  0  0  0  0
    4.2749   28.1650   59.1148 C   0  0  0  0  0
    3.9884   26.7845   59.0620 C   0  0  0  0  0
    3.9483   26.0466   60.2440 C   0  0  0  0  0
    4.2173   26.6836   61.4583 C   0  0  0  0  0
    4.1528   25.9353   62.7188 C   0  0  0  0  0
    1.0527   28.7729   57.0739 O   0  0  0  0  0
    1.2034   29.9400   59.4007 O   0  0  0  0  0
    0.5190   26.4717   61.2818 O   0  0  0  0  0
    0.9507   28.5067   64.1655 O   0  0  0  0  0
    0.4352   26.2807   64.0882 O   0  0  0  0  0
    3.8534   28.5127   56.7316 O   0  0  0  0  0
    3.7600   26.2003   57.9726 O   0  0  0  0  0
    4.5347   27.9757   61.4782 O   0  0  0  0  0
    4.4332   26.5067   63.8044 O   0  0  0  0  0
    3.7788   24.5964   62.7305 O   0  0  0  0  0
    2.1073   31.0074   55.9753 O   0  0  0  0  0
  1  2  1  0  0  0
  2  3  1  0  0  0
  2 14  1  0  0  0
  2 35  1  0  0  0
  3 25  1  0  0  0
  4 25  1  0  0  0
  5  6  1  0  0  0
  7  8  1  0  0  0
  8 27  1  0  0  0
  9 10  1  0  0  0
  9  4  1  0  0  0
 10 11  1  0  0  0
 12 27  1  0  0  0
 12 13  1  0  0  0
 13 29  1  0  0  0
 14 30  1  0  0  0
 15 30  1  0  0  0
 16 17  1  0  0  0
 18 19  1  0  0  0
 19 32  1  0  0  0
 20 21  1  0  0  0
 20 15  1  0  0  0
 21 22  1  0  0  0
 23 32  1  0  0  0
 23 24  1  0  0  0
 24 34  1  0  0  0
  4  5  2  0  0  0
  6  7  2  0  0  0
  8  9  2  0  0  0
 10 26  2  0  0  0
 11 12  2  0  0  0
 13 28  2  0  0  0
 15 16  2  0  0  0
 17 18  2  0  0  0
 19 20  2  0  0  0
 21 31  2  0  0  0
 22 23  2  0  0  0
 24 33  2  0  0  0
M  END
> <rmsd>
0.503633976

$$$$
PubChem-123153752


 29 31  0  0  0  0  0  0  0  0999 V2000
   -1.4836   28.6269   55.3301 C   0  0  0  0  0
   -0.0139   28.8349   55.0211 C   0  0  0  0  0
    0.7194   29.3173   56.2605 C   0  0  0  0  0
    2.1114   29.7707   55.8879 C   0  0  0  0  0
    2.9466   29.3118   57.0333 C   0  0  0  0  0
    2.1453   28.1603   57.5940 C   0  0  0  0  0
    2.8654   26.9618   59.5591 C   0  0  0  0  0
    3.0187   26.8082   60.9344 C   0  0  0  0  0
    2.5535   27.8188   61.7785 C   0  0  0  0  0
    1.8176   29.0543   59.8930 C   0  0  0  0  0
    3.2862   26.6679   63.9535 C   0  0  0  0  0
    3.2902   26.7134   65.4301 C   0  0  0  0  0
    4.4685   26.3234   66.0847 C   0  0  0  0  0
    4.5898   26.4326   67.4702 C   0  0  0  0  0
    3.5325   26.9395   68.2228 C   0  0  0  0  0
    2.3462   27.3150   67.5920 C   0  0  0  0  0
    2.1977   27.1958   66.2023 C   0  0  0  0  0
    0.8696   27.5126   65.6356 C   0  0  0  0  0
   -1.2379   28.7765   65.7946 C   0  0  0  0  0
    0.7935   28.2849   57.2181 O   0  0  0  0  0
    1.2604   30.0898   59.4390 O   0  0  0  0  0
    3.8886   25.7310   63.3623 O   0  0  0  0  0
    0.4475   26.9038   64.6142 O   0  0  0  0  0
    0.0549   28.4469   66.2797 O   0  0  0  0  0
    4.1783   28.8516   56.5694 O   0  0  0  0  0
    2.1504   31.1620   55.8011 O   0  0  0  0  0
    2.2742   28.0749   59.0492 N   0  0  0  0  0
    1.9624   28.9148   61.2372 N   0  0  0  0  0
    2.6707   27.7269   63.2047 N   0  0  0  0  0
  1  2  1  0  0  0
  2  3  1  0  0  0
  3  4  1  0  0  0
  3 20  1  0  0  0
  4  5  1  0  0  0
  4 26  1  0  0  0
  5  6  1  0  0  0
  5 25  1  0  0  0
  6 20  1  0  0  0
  6 27  1  0  0  0
  8  9  1  0  0  0
  9 29  1  0  0  0
 10 28  1  0  0  0
 10 27  1  0  0  0
 11 12  1  0  0  0
 13 14  1  0  0  0
 15 16  1  0  0  0
 17 18  1  0  0  0
 17 12  1  0  0  0
 18 24  1  0  0  0
 19 24  1  0  0  0
 27  7  1  0  0  0
 29 11  1  0  0  0
  7  8  2  0  0  0
  9 28  2  0  0  0
 10 21  2  0  0  0
 11 22  2  0  0  0
 12 13  2  0  0  0
 14 15  2  0  0  0
 16 17  2  0  0  0
 18 23  2  0  0  0
M  END
> <rmsd>
0.481617898

$$$$
PubChem-72721990


 17 18  0  0  0  0  0  0  0  0999 V2000
    2.5298   26.3271   63.9153 B   0  0  0  0  0
    2.4003   27.1816   62.6620 C   0  0  0  0  0
    1.1153   27.6202   62.6613 C   0  0  0  0  0
    0.3707   27.1369   63.8582 C   0  0  0  0  0
    0.6536   28.4889   61.6715 C   0  0  0  0  0
    1.5437   28.8976   60.6625 C   0  0  0  0  0
    2.8847   28.4455   60.6876 C   0  0  0  0  0
    3.3275   27.5841   61.7036 C   0  0  0  0  0
    1.8871   30.1927   58.5717 C   0  0  0  0  0
    2.0305   29.0860   57.5377 C   0  0  0  0  0
    3.0389   29.4715   56.5102 C   0  0  0  0  0
    1.2080   26.2330   64.5681 O   0  0  0  0  0
    1.0795   29.7571   59.6610 O   0  0  0  0  0
    4.0755   28.7743   56.3612 O   0  0  0  0  0
    2.8409   30.5933   55.7138 O   0  0  0  0  0
    3.7453   26.4115   64.7197 O   0  0  0  0  0
    0.7497   28.8338   56.8997 N   0  0  0  0  0
  1  2  1  0  0  0
  1 16  1  0  0  0
  1 12  1  0  0  0
  3  5  1  0  0  0
  4  3  1  0  0  0
  4 12  1  0  0  0
  6  7  1  0  0  0
  6 13  1  0  0  0
  8  2  1  0  0  0
  9 13  1  0  0  0
 10  9  1  0  0  0
 10 11  1  0  0  0
 10 17  1  0  0  0
 11 15  1  0  0  0
  2  3  2  0  0  0
  5  6  2  0  0  0
  7  8  2  0  0  0
 11 14  2  0  0  0
M  END
> <rmsd>
0.588948488

$$$$
PubChem-29919037 ZINC000021981417


 31 33  0  0  0  0  0  0  0  0999 V2000
   -0.0337   25.1191   65.4005 C   0  0  0  0  0
    0.0432   27.4473   65.4040 C   0  0  0  0  0
    1.8559   26.2283   64.5987 C   0  0  0  0  0
    2.3479   25.8424   63.1998 C   0  0  0  0  0
    1.9861   26.9004   62.1908 C   0  0  0  0  0
    2.4365   28.2227   62.3200 C   0  0  0  0  0
    2.0628   29.1864   61.3784 C   0  0  0  0  0
    1.2429   28.8391   60.2997 C   0  0  0  0  0
    0.7962   27.5140   60.1699 C   0  0  0  0  0
    1.1645   26.5517   61.1139 C   0  0  0  0  0
    0.1403   29.5572   58.1901 C   0  0  0  0  0
   -0.4075   30.8518   57.5743 C   0  0  0  0  0
    0.7118   31.6878   56.9504 C   0  0  0  0  0
    1.6459   30.8153   56.1049 C   0  0  0  0  0
    2.0486   29.5628   56.8955 C   0  0  0  0  0
    2.9650   28.6979   56.0968 C   0  0  0  0  0
    3.8459   25.4574   63.1884 C   0  0  0  0  0
    4.0535   24.2581   64.1396 C   0  0  0  0  0
    5.1475   23.3078   63.6557 C   0  0  0  0  0
    4.7957   22.7092   62.2884 C   0  0  0  0  0
    4.0175   23.6747   61.3860 C   0  0  0  0  0
    4.3021   25.1287   61.7507 C   0  0  0  0  0
    0.4032   26.2713   64.6324 N   0  0  0  0  0
    0.8828   29.8289   59.3801 O   0  0  0  0  0
    0.9056   28.8172   57.2563 O   0  0  0  0  0
    4.1164   28.4412   56.5317 O   0  0  0  0  0
    2.5508   28.1669   54.8820 O   0  0  0  0  0
    2.7741   31.5491   55.7254 O   0  0  0  0  0
    1.4251   32.3454   57.9579 O   0  0  0  0  0
   -1.3627   30.5438   56.6042 O   0  0  0  0  0
    4.6131   26.5284   63.6533 O   0  0  0  0  0
  1 23  1  0  0  0
  2 23  1  0  0  0
  3 23  1  0  0  0
  4  3  1  0  0  0
  4  5  1  0  0  0
  4 17  1  0  0  0
  6  7  1  0  0  0
  8  9  1  0  0  0
  8 24  1  0  0  0
 10  5  1  0  0  0
 11 24  1  0  0  0
 11 12  1  0  0  0
 11 25  1  0  0  0
 12 13  1  0  0  0
 12 30  1  0  0  0
 13 14  1  0  0  0
 13 29  1  0  0  0
 14 15  1  0  0  0
 14 28  1  0  0  0
 15 25  1  0  0  0
 15 16  1  0  0  0
 16 27  1  0  0  0
 17 18  1  0  0  0
 17 31  1  0  0  0
 18 19  1  0  0  0
 19 20  1  0  0  0
 20 21  1  0  0  0
 21 22  1  0  0  0
 22 17  1  0  0  0
  5  6  2  0  0  0
  7  8  2  0  0  0
  9 10  2  0  0  0
 16 26  2  0  0  0
M  END
> <rmsd>
0.485491812

$$$$
PubChem-70262282


 23 23  0  0  0  0  0  0  0  0999 V2000
    0.1371   30.0721   55.4568 C   0  0  0  0  0
    1.1152   30.0622   56.6139 C   0  0  0  0  0
    2.5242   30.4016   56.1094 C   0  0  0  0  0
    3.6100   29.7731   56.9894 C   0  0  0  0  0
    3.1163   29.6122   58.4313 C   0  0  0  0  0
    1.7501   28.9005   58.4923 C   0  0  0  0  0
    1.3691   26.5366   62.1583 C   0  0  0  0  0
    1.5606   25.1457   61.5643 C   0  0  0  0  0
    0.7209   24.1126   62.2990 C   0  0  0  0  0
    1.1947   22.7250   61.9230 C   0  0  0  0  0
   -0.7405   24.2590   61.9190 C   0  0  0  0  0
    2.1020   26.6714   63.4539 C   0  0  0  0  0
    1.1012   28.7982   57.2356 O   0  0  0  0  0
    0.9171   29.5231   59.4290 O   0  0  0  0  0
   -0.3865   27.2641   59.7547 O   0  0  0  0  0
    3.3549   26.5473   63.4978 O   0  0  0  0  0
    1.3946   26.9395   64.6176 O   0  0  0  0  0
   -0.5205   28.9839   61.7175 O   0  0  0  0  0
    4.0541   28.9230   59.2012 O   0  0  0  0  0
    3.9760   28.5333   56.4595 O   0  0  0  0  0
    2.6874   31.7867   56.0818 O   0  0  0  0  0
    0.4305   28.2983   60.4983 P   0  0  0  0  0
    1.8413   27.5405   61.2186 N   0  0  0  0  0
  2  1  1  0  0  0
  2  3  1  0  0  0
  2 13  1  0  0  0
  3  4  1  0  0  0
  3 21  1  0  0  0
  4  5  1  0  0  0
  4 20  1  0  0  0
  5  6  1  0  0  0
  5 19  1  0  0  0
  6 13  1  0  0  0
  6 14  1  0  0  0
  7 23  1  0  0  0
  7  8  1  0  0  0
  7 12  1  0  0  0
  8  9  1  0  0  0
  9 10  1  0  0  0
  9 11  1  0  0  0
 12 17  1  0  0  0
 22 14  1  0  0  0
 22 23  1  0  0  0
 22 18  1  0  0  0
 12 16  2  0  0  0
 22 15  2  0  0  0
M  END
> <rmsd>
0.685945511

$$$$
PubChem-134073653 LN00094317


 25 27  0  0  0  0  0  0  0  0999 V2000
    0.2971   26.9461   55.3848 C   0  0  0  0  0
   -0.4347   27.6829   56.4907 C   0  0  0  0  0
    0.6860   29.6755   56.9803 C   0  0  0  0  0
    2.0752   30.2038   57.3430 C   0  0  0  0  0
    2.6247   29.5881   58.6356 C   0  0  0  0  0
    2.5461   29.8833   60.9140 C   0  0  0  0  0
    1.7277   29.9445   62.1921 C   0  0  0  0  0
    0.0954   28.4034   61.1383 C   0  0  0  0  0
    0.9106   28.4582   59.8410 C   0  0  0  0  0
   -0.1126   28.3301   58.7062 C   0  0  0  0  0
    1.0201   27.8521   63.4121 C   0  0  0  0  0
    1.9820   28.1216   64.5250 C   0  0  0  0  0
    3.2866   27.4526   64.2555 C   0  0  0  0  0
    4.3342   28.1727   63.6738 C   0  0  0  0  0
    5.5416   27.5252   63.4069 C   0  0  0  0  0
    5.6886   26.1724   63.7186 C   0  0  0  0  0
    4.6176   25.4850   64.2944 C   0  0  0  0  0
    3.0116   30.0102   56.1867 C   0  0  0  0  0
    0.5250   28.2878   57.3980 N   0  0  0  0  0
    1.6812   29.7216   59.7410 N   0  0  0  0  0
    0.9401   28.7268   62.2774 N   0  0  0  0  0
    3.4481   26.1327   64.5469 N   0  0  0  0  0
    0.2978   26.8208   63.4680 O   0  0  0  0  0
    4.0199   29.2599   56.2807 O   0  0  0  0  0
    2.7634   30.6704   54.9900 O   0  0  0  0  0
  1  2  1  0  0  0
  2 19  1  0  0  0
  3 19  1  0  0  0
  3  4  1  0  0  0
  4  5  1  0  0  0
  4 18  1  0  0  0
  5 20  1  0  0  0
  6 20  1  0  0  0
  6  7  1  0  0  0
  7 21  1  0  0  0
  8 21  1  0  0  0
  8  9  1  0  0  0
  9 10  1  0  0  0
  9 20  1  0  0  0
 10 19  1  0  0  0
 12 11  1  0  0  0
 12 13  1  0  0  0
 13 22  1  0  0  0
 14 15  1  0  0  0
 16 17  1  0  0  0
 18 25  1  0  0  0
 21 11  1  0  0  0
 11 23  2  0  0  0
 13 14  2  0  0  0
 15 16  2  0  0  0
 17 22  2  0  0  0
 18 24  2  0  0  0
M  END
> <rmsd>
0.71788764

$$$$
PubChem-132779997 MCULE-8108023816


 34 37  0  0  0  0  0  0  0  0999 V2000
    2.6875   29.7549   57.2487 C   0  0  0  0  0
    1.3285   29.4676   56.5944 C   0  0  0  0  0
   -0.1408   28.5845   58.0115 C   0  0  0  0  0
    0.5231   28.6752   59.3842 C   0  0  0  0  0
    1.7749   30.1618   60.8085 C   0  0  0  0  0
    2.2405   29.0277   61.6832 C   0  0  0  0  0
    3.5274   28.4972   61.5494 C   0  0  0  0  0
    3.9506   27.4652   62.3889 C   0  0  0  0  0
    3.0946   26.9574   63.3798 C   0  0  0  0  0
    1.8072   27.4965   63.5255 C   0  0  0  0  0
   -0.3535   27.4800   64.7341 C   0  0  0  0  0
    1.3901   28.5350   62.6767 C   0  0  0  0  0
    4.8112   25.3612   64.2143 C   0  0  0  0  0
    5.8057   26.3111   64.8700 C   0  0  0  0  0
    5.4807   25.6219   67.2514 C   0  0  0  0  0
    5.1008   26.2736   68.4091 C   0  0  0  0  0
    5.0881   27.7020   66.8061 C   0  0  0  0  0
    2.7088   29.3796   58.7363 C   0  0  0  0  0
    3.0083   31.2385   57.1179 C   0  0  0  0  0
    4.2940   32.1443   55.2063 C   0  0  0  0  0
    4.3184   32.4903   53.8509 C   0  0  0  0  0
    5.4786   33.0204   53.2784 C   0  0  0  0  0
    6.6221   33.2070   54.0601 C   0  0  0  0  0
    6.6059   32.8638   55.4148 C   0  0  0  0  0
    5.4462   32.3339   55.9875 C   0  0  0  0  0
    0.8038   28.2453   57.0337 O   0  0  0  0  0
    0.9628   26.9892   64.5191 O   0  0  0  0  0
    3.5007   25.9202   64.2288 O   0  0  0  0  0
    3.6728   29.0134   56.5953 O   0  0  0  0  0
    3.1202   31.6149   55.7488 O   0  0  0  0  0
    1.4789   29.7842   59.4186 N   0  0  0  0  0
    5.4602   26.5325   66.2655 N   0  0  0  0  0
    4.8569   27.5714   68.1262 N   0  0  0  0  0
    7.7138   33.0443   56.1728 F   0  0  0  0  0
  1  2  1  0  0  0
  1 29  1  0  0  0
  1 19  1  0  0  0
  2 26  1  0  0  0
  3 26  1  0  0  0
  3  4  1  0  0  0
  4 31  1  0  0  0
  5 31  1  0  0  0
  5  6  1  0  0  0
  7  8  1  0  0  0
  9 10  1  0  0  0
  9 28  1  0  0  0
 10 27  1  0  0  0
 11 27  1  0  0  0
 12  6  1  0  0  0
 13 28  1  0  0  0
 13 14  1  0  0  0
 14 32  1  0  0  0
 16 33  1  0  0  0
 17 32  1  0  0  0
 18 31  1  0  0  0
 18  1  1  0  0  0
 19 30  1  0  0  0
 20 30  1  0  0  0
 21 22  1  0  0  0
 23 24  1  0  0  0
 24 34  1  0  0  0
 25 20  1  0  0  0
 32 15  1  0  0  0
  6  7  2  0  0  0
  8  9  2  0  0  0
 10 12  2  0  0  0
 15 16  2  0  0  0
 17 33  2  0  0  0
 20 21  2  0  0  0
 22 23  2  0  0  0
 24 25  2  0  0  0
M  END
> <rmsd>
0.473849028

$$$$
PubChem-103202280


 20 20  0  0  0  0  0  0  0  0999 V2000
   -0.4382   26.6024   57.7159 C   0  0  0  0  0
    0.9732   27.1462   57.6476 C   0  0  0  0  0
    2.1746   29.0062   57.6740 C   0  0  0  0  0
    1.9779   30.1190   58.6965 C   0  0  0  0  0
    2.0235   28.7739   60.7891 C   0  0  0  0  0
    1.3096   28.2678   61.8768 C   0  0  0  0  0
    1.9160   27.4206   62.8173 C   0  0  0  0  0
    3.2801   27.0777   62.6543 C   0  0  0  0  0
    3.9932   27.5927   61.5590 C   0  0  0  0  0
    3.3727   28.4330   60.6355 C   0  0  0  0  0
    5.2782   25.8539   63.4653 C   0  0  0  0  0
    2.9072   29.5311   56.4857 C   0  0  0  0  0
    0.9362   28.4925   57.2798 O   0  0  0  0  0
    1.3683   29.6141   59.8816 O   0  0  0  0  0
    3.9130   26.2340   63.5752 O   0  0  0  0  0
    1.6145   26.1747   64.7832 O   0  0  0  0  0
   -0.1968   27.2920   64.0275 O   0  0  0  0  0
    4.0301   29.0515   56.1827 O   0  0  0  0  0
    2.3545   30.5412   55.7075 O   0  0  0  0  0
    1.1262   26.9293   63.9170 N   0  0  0  0  0
  1  2  1  0  0  0
  2 13  1  0  0  0
  3 13  1  0  0  0
  3  4  1  0  0  0
  3 12  1  0  0  0
  4 14  1  0  0  0
  5 14  1  0  0  0
  6  7  1  0  0  0
  7 20  1  0  0  0
  8  9  1  0  0  0
  8 15  1  0  0  0
 10  5  1  0  0  0
 11 15  1  0  0  0
 12 19  1  0  0  0
 20 17  1  0  0  0
  5  6  2  0  0  0
  7  8  2  0  0  0
  9 10  2  0  0  0
 12 18  2  0  0  0
 20 16  2  0  0  0
M  CHG  2  20   1  17  -1
M  END
> <rmsd>
0.587498963

$$$$
PubChem-103202280


 20 20  0  0  0  0  0  0  0  0999 V2000
   -0.6241   26.8148   57.5301 C   0  0  0  0  0
    0.8200   27.2692   57.5548 C   0  0  0  0  0
    2.1311   29.0527   57.6160 C   0  0  0  0  0
    1.9283   30.2118   58.5844 C   0  0  0  0  0
    1.7299   28.9434   60.7157 C   0  0  0  0  0
    0.9051   28.5213   61.7598 C   0  0  0  0  0
    1.3836   27.6737   62.7710 C   0  0  0  0  0
    2.7317   27.2430   62.7257 C   0  0  0  0  0
    3.5570   27.6737   61.6736 C   0  0  0  0  0
    3.0626   28.5159   60.6784 C   0  0  0  0  0
    4.5813   25.9306   63.7281 C   0  0  0  0  0
    2.9835   29.4887   56.4725 C   0  0  0  0  0
    0.8962   28.6011   57.1430 O   0  0  0  0  0
    1.1999   29.7882   59.7338 O   0  0  0  0  0
    3.2384   26.3966   63.7193 O   0  0  0  0  0
    0.8558   26.5206   64.7458 O   0  0  0  0  0
   -0.8187   27.7174   63.8163 O   0  0  0  0  0
    4.0935   28.9312   56.2732 O   0  0  0  0  0
    2.5563   30.5015   55.6220 O   0  0  0  0  0
    0.4833   27.2714   63.8208 N   0  0  0  0  0
  1  2  1  0  0  0
  2 13  1  0  0  0
  3 13  1  0  0  0
  3  4  1  0  0  0
  3 12  1  0  0  0
  4 14  1  0  0  0
  5 14  1  0  0  0
  6  7  1  0  0  0
  7 20  1  0  0  0
  8  9  1  0  0  0
  8 15  1  0  0  0
 10  5  1  0  0  0
 11 15  1  0  0  0
 12 19  1  0  0  0
 20 17  1  0  0  0
  5  6  2  0  0  0
  7  8  2  0  0  0
  9 10  2  0  0  0
 12 18  2  0  0  0
 20 16  2  0  0  0
M  CHG  2  20   1  17  -1
M  END
> <rmsd>
0.546893418

$$$$
PubChem-20201594


 23 23  0  0  0  0  0  0  0  0999 V2000
    2.2444   28.7597   53.3608 C   0  0  0  0  0
    1.1676   28.9915   54.4070 C   0  0  0  0  0
    0.6786   30.4278   54.3010 C   0  0  0  0  0
    0.0094   28.0639   54.0882 C   0  0  0  0  0
    1.7079   28.6740   55.8168 C   0  0  0  0  0
    2.9434   29.4475   56.1797 C   0  0  0  0  0
    1.1683   28.2585   59.1724 C   0  0  0  0  0
    1.3954   27.2164   60.1884 C   0  0  0  0  0
    1.6765   27.5690   61.5150 C   0  0  0  0  0
    1.8957   26.5875   62.4883 C   0  0  0  0  0
    1.8319   25.2271   62.1259 C   0  0  0  0  0
    1.5521   24.8748   60.8025 C   0  0  0  0  0
    1.3353   25.8619   59.8391 C   0  0  0  0  0
    4.0300   28.8379   56.3551 O   0  0  0  0  0
    2.8937   30.8266   56.3428 O   0  0  0  0  0
    1.2235   29.4772   59.4926 O   0  0  0  0  0
    1.1853   26.5671   65.0647 O   0  0  0  0  0
    3.5898   26.5677   64.5555 O   0  0  0  0  0
    0.6812   28.8677   56.8346 N   0  0  0  0  0
    0.8889   27.8925   57.8197 N   0  0  0  0  0
    2.2651   28.8192   64.2333 N   0  0  0  0  0
    2.0927   23.9354   63.2887 Cl  0  0  0  0  0
    2.2453   27.0935   64.1389 S   0  0  0  0  0
  1  2  1  0  0  0
  2  3  1  0  0  0
  2  4  1  0  0  0
  5  2  1  0  0  0
  5  6  1  0  0  0
  5 19  1  0  0  0
  6 15  1  0  0  0
  7  8  1  0  0  0
  9 10  1  0  0  0
 11 12  1  0  0  0
 11 22  1  0  0  0
 13  8  1  0  0  0
 19 20  1  0  0  0
 20  7  1  0  0  0
 23 10  1  0  0  0
 23 21  1  0  0  0
  6 14  2  0  0  0
  7 16  2  0  0  0
  8  9  2  0  0  0
 10 11  2  0  0  0
 12 13  2  0  0  0
 23 17  2  0  0  0
 23 18  2  0  0  0
M  END
> <rmsd>
0.656933248

$$$$
PubChem-144273358


 33 36  0  0  0  0  0  0  0  0999 V2000
    6.2867   31.5442   53.9721 C   0  0  0  0  0
    4.8439   31.8032   54.3489 C   0  0  0  0  0
    3.9574   30.7630   53.6934 C   0  0  0  0  0
    2.5081   30.9777   54.0928 C   0  0  0  0  0
    0.9164   27.0608   54.8316 C   0  0  0  0  0
    1.8091   25.8914   55.1925 C   0  0  0  0  0
    0.9667   24.7701   55.7601 C   0  0  0  0  0
    1.8665   23.6215   56.1636 C   0  0  0  0  0
    2.1189   28.1758   57.8437 C   0  0  0  0  0
    3.3819   28.0347   57.4090 C   0  0  0  0  0
    4.3672   27.2701   58.0996 C   0  0  0  0  0
    4.1105   26.5253   59.1671 C   0  0  0  0  0
    2.6769   26.3991   59.6305 C   0  0  0  0  0
    1.7699   27.6027   59.2073 C   0  0  0  0  0
    1.6454   28.6911   60.2567 C   0  0  0  0  0
    2.9364   27.3549   61.9893 C   0  0  0  0  0
    2.6273   26.1692   61.1048 C   0  0  0  0  0
    2.1831   24.9987   61.5830 C   0  0  0  0  0
    2.0696   24.7344   63.0573 C   0  0  0  0  0
    1.7713   26.0164   63.8331 C   0  0  0  0  0
    2.8038   27.0962   63.4981 C   0  0  0  0  0
    5.3827   28.2379   56.2924 C   0  0  0  0  0
    2.3373   30.6929   55.4505 O   0  0  0  0  0
   -0.1397   29.9258   55.0826 O   0  0  0  0  0
    1.7064   28.1577   54.4837 O   0  0  0  0  0
    1.1078   28.8507   57.1396 O   0  0  0  0  0
    1.0359   29.7570   59.9785 O   0  0  0  0  0
    4.0474   26.7422   64.0232 O   0  0  0  0  0
    0.4828   26.4705   63.5457 O   0  0  0  0  0
    5.5767   27.4164   57.4515 O   0  0  0  0  0
    3.9923   28.5915   56.3008 O   0  0  0  0  0
    1.2187   29.4182   55.5149 P   0  0  0  0  0
    2.1126   28.4917   61.5977 N   0  0  0  0  0
  1  2  1  0  0  0
  2  3  1  0  0  0
  3  4  1  0  0  0
  4 23  1  0  0  0
  5 25  1  0  0  0
  5  6  1  0  0  0
  6  7  1  0  0  0
  7  8  1  0  0  0
  9 26  1  0  0  0
 10 11  1  0  0  0
 10 31  1  0  0  0
 11 30  1  0  0  0
 13 12  1  0  0  0
 13 14  1  0  0  0
 13 17  1  0  0  0
 14 15  1  0  0  0
 14  9  1  0  0  0
 15 33  1  0  0  0
 16 33  1  0  0  0
 16 17  1  0  0  0
 19 18  1  0  0  0
 19 20  1  0  0  0
 20 21  1  0  0  0
 20 29  1  0  0  0
 21 28  1  0  0  0
 21 16  1  0  0  0
 22 30  1  0  0  0
 22 31  1  0  0  0
 32 23  1  0  0  0
 32 25  1  0  0  0
 32 26  1  0  0  0
  9 10  2  0  0  0
 11 12  2  0  0  0
 15 27  2  0  0  0
 17 18  2  0  0  0
 32 24  2  0  0  0
M  END
> <rmsd>
0.599807084

$$$$
PubChem-120607074 CSC057142165 MCULE-5623914663


 22 22  0  0  0  0  0  0  0  0999 V2000
    3.4964   23.7301   61.5522 C   0  0  0  0  0
    2.3455   24.6529   61.9083 C   0  0  0  0  0
    1.3100   23.9283   62.7549 C   0  0  0  0  0
    2.8099   26.0195   62.4761 C   0  0  0  0  0
    1.6865   27.0052   62.6285 C   0  0  0  0  0
    0.5182   29.1119   61.9235 C   0  0  0  0  0
    0.0027   29.5615   60.5613 C   0  0  0  0  0
    1.9465   28.9662   59.4563 C   0  0  0  0  0
    2.5854   28.3755   60.7168 C   0  0  0  0  0
    1.2989   27.8867   58.5871 C   0  0  0  0  0
   -0.3393   27.7936   56.9358 C   0  0  0  0  0
    1.8953   28.0301   56.3238 C   0  0  0  0  0
    2.9080   29.1066   56.1270 C   0  0  0  0  0
    3.3149   25.0228   64.6550 C   0  0  0  0  0
    5.0545   25.7527   63.2432 C   0  0  0  0  0
    0.8512   26.8548   63.5615 O   0  0  0  0  0
    1.0653   30.0356   59.7600 O   0  0  0  0  0
    4.1185   28.8845   56.3891 O   0  0  0  0  0
    2.5193   30.3528   55.6545 O   0  0  0  0  0
    1.5599   28.1112   61.7234 N   0  0  0  0  0
    0.9034   28.4469   57.3037 N   0  0  0  0  0
    3.6885   26.0208   63.6619 N   0  0  0  0  0
  1  2  1  0  0  0
  2  3  1  0  0  0
  2  4  1  0  0  0
  4  5  1  0  0  0
  4 22  1  0  0  0
  5 20  1  0  0  0
  6 20  1  0  0  0
  6  7  1  0  0  0
  7 17  1  0  0  0
  8 17  1  0  0  0
  8  9  1  0  0  0
  8 10  1  0  0  0
  9 20  1  0  0  0
 10 21  1  0  0  0
 11 21  1  0  0  0
 12 21  1  0  0  0
 12 13  1  0  0  0
 13 19  1  0  0  0
 14 22  1  0  0  0
 15 22  1  0  0  0
  5 16  2  0  0  0
 13 18  2  0  0  0
M  END
> <rmsd>
0.586508811

$$$$
PubChem-162629619 MolPort-051-457-962


 24 27  0  0  0  0  0  0  0  0999 V2000
    6.2657   29.0801   61.9174 C   0  0  0  0  0
    4.0373   28.2863   62.6298 C   0  0  0  0  0
    3.2652   27.4350   63.4179 C   0  0  0  0  0
    2.5244   25.8569   64.8867 C   0  0  0  0  0
    1.9079   27.4473   63.3759 C   0  0  0  0  0
    1.2000   28.3115   62.5445 C   0  0  0  0  0
    1.9420   29.1942   61.7377 C   0  0  0  0  0
    1.2344   30.1197   60.8102 C   0  0  0  0  0
   -0.2598   29.4811   59.1164 C   0  0  0  0  0
   -0.4299   29.1893   57.6158 C   0  0  0  0  0
    1.6025   30.0409   57.1072 C   0  0  0  0  0
    1.8749   30.4205   58.5741 C   0  0  0  0  0
    2.8889   29.8303   56.3843 C   0  0  0  0  0
    5.2924   30.5064   53.9225 C   0  0  0  0  0
    3.3539   29.1781   61.7748 C   0  0  0  0  0
    5.4319   28.2369   62.7000 O   0  0  0  0  0
    3.6869   26.4821   64.3248 O   0  0  0  0  0
    1.4118   26.5039   64.2533 O   0  0  0  0  0
    0.8066   28.8816   57.0170 O   0  0  0  0  0
    1.1575   29.5266   59.4861 N   0  0  0  0  0
    3.2891   30.5701   55.3332 N   0  0  0  0  0
    4.4571   30.0422   55.0140 N   0  0  0  0  0
    4.7671   29.0366   55.8127 N   0  0  0  0  0
    3.7921   28.8760   56.6930 N   0  0  0  0  0
  1 16  1  0  0  0
  2 16  1  0  0  0
  3 17  1  0  0  0
  4 17  1  0  0  0
  4 18  1  0  0  0
  5 18  1  0  0  0
  5  3  1  0  0  0
  6  7  1  0  0  0
  8  7  1  0  0  0
  8 20  1  0  0  0
  9 20  1  0  0  0
  9 10  1  0  0  0
 10 19  1  0  0  0
 11 19  1  0  0  0
 11 12  1  0  0  0
 11 13  1  0  0  0
 12 20  1  0  0  0
 13 24  1  0  0  0
 14 22  1  0  0  0
 15  2  1  0  0  0
 22 21  1  0  0  0
 22 23  1  0  0  0
  2  3  2  0  0  0
  5  6  2  0  0  0
  7 15  2  0  0  0
 13 21  2  0  0  0
 23 24  2  0  0  0
M  END
> <rmsd>
0.609752834

$$$$
PubChem-129578666 585274936 ZINC000585274936


 34 37  0  0  0  0  0  0  0  0999 V2000
    1.2365   25.5733   64.8162 C   0  0  0  0  0
    1.8778   27.4161   63.2489 C   0  0  0  0  0
    1.3906   28.4305   62.4166 C   0  0  0  0  0
    2.2604   29.2476   61.6900 C   0  0  0  0  0
    1.7143   30.3328   60.8016 C   0  0  0  0  0
    0.4345   28.8443   59.4133 C   0  0  0  0  0
   -0.1994   28.7180   58.0294 C   0  0  0  0  0
    1.3457   29.4603   56.6119 C   0  0  0  0  0
    2.7004   29.7138   57.2888 C   0  0  0  0  0
    3.0972   31.1721   57.0961 C   0  0  0  0  0
    4.4744   31.9197   55.1798 C   0  0  0  0  0
    5.6141   32.0926   55.9827 C   0  0  0  0  0
    6.8128   32.5370   55.4179 C   0  0  0  0  0
    6.8803   32.8109   54.0491 C   0  0  0  0  0
    5.7495   32.6405   53.2455 C   0  0  0  0  0
    4.5504   32.1960   53.8104 C   0  0  0  0  0
    2.6657   29.4114   58.7925 C   0  0  0  0  0
    3.6388   29.0599   61.7992 C   0  0  0  0  0
    4.1429   28.0545   62.6237 C   0  0  0  0  0
    3.2783   27.2208   63.3539 C   0  0  0  0  0
    5.1900   25.9264   64.2823 C   0  0  0  0  0
    5.6498   25.1291   63.0721 C   0  0  0  0  0
    7.7213   24.1113   64.0546 C   0  0  0  0  0
    8.0220   25.3138   62.3097 C   0  0  0  0  0
    0.9287   26.6446   63.9361 O   0  0  0  0  0
    0.7511   28.2873   57.0943 O   0  0  0  0  0
    3.6641   28.8946   56.6990 O   0  0  0  0  0
    3.2623   31.4748   55.7142 O   0  0  0  0  0
    3.7999   26.2150   64.1785 O   0  0  0  0  0
    1.4398   29.9080   59.4210 N   0  0  0  0  0
    7.0774   24.8708   63.1533 N   0  0  0  0  0
    9.0379   24.0978   63.7728 N   0  0  0  0  0
    9.2241   24.8427   62.6920 N   0  0  0  0  0
    8.3810   33.3673   53.3412 Cl  0  0  0  0  0
  1 25  1  0  0  0
  2 25  1  0  0  0
  3  4  1  0  0  0
  5  4  1  0  0  0
  5 30  1  0  0  0
  6 30  1  0  0  0
  6  7  1  0  0  0
  7 26  1  0  0  0
  8 26  1  0  0  0
  8  9  1  0  0  0
  9 27  1  0  0  0
  9 10  1  0  0  0
  9 17  1  0  0  0
 10 28  1  0  0  0
 11 28  1  0  0  0
 12 13  1  0  0  0
 14 34  1  0  0  0
 14 15  1  0  0  0
 16 11  1  0  0  0
 17 30  1  0  0  0
 18 19  1  0  0  0
 20 29  1  0  0  0
 20  2  1  0  0  0
 21 29  1  0  0  0
 21 22  1  0  0  0
 22 31  1  0  0  0
 24 31  1  0  0  0
 31 23  1  0  0  0
 32 33  1  0  0  0
  2  3  2  0  0  0
  4 18  2  0  0  0
 11 12  2  0  0  0
 13 14  2  0  0  0
 15 16  2  0  0  0
 19 20  2  0  0  0
 23 32  2  0  0  0
 24 33  2  0  0  0
M  END
> <rmsd>
0.422714442

$$$$
PubChem-90178467


 26 27  0  0  0  0  0  0  0  0999 V2000
   -0.2811   26.8399   62.0347 C   0  0  0  0  0
    1.0389   26.6627   62.7033 C   0  0  0  0  0
    2.2109   26.9043   61.9925 C   0  0  0  0  0
    3.5060   26.3551   63.8937 C   0  0  0  0  0
    1.1434   26.2587   64.0372 C   0  0  0  0  0
    4.6568   27.0115   61.8263 C   0  0  0  0  0
    4.7701   26.0783   60.6309 C   0  0  0  0  0
    5.1462   26.9523   59.4528 C   0  0  0  0  0
    4.6274   28.3365   59.7810 C   0  0  0  0  0
    4.6880   28.4378   61.2938 C   0  0  0  0  0
    3.2111   29.6760   58.7131 C   0  0  0  0  0
    2.2379   30.5588   59.4240 C   0  0  0  0  0
    1.7965   32.6777   60.5914 C   0  0  0  0  0
    3.8099   31.5213   56.2399 C   0  0  0  0  0
    0.8573   28.5414   55.6109 C   0  0  0  0  0
    3.4305   26.7517   62.5867 N   0  0  0  0  0
    2.3700   26.1142   64.6004 N   0  0  0  0  0
    4.6245   26.2080   64.4565 O   0  0  0  0  0
    0.1120   26.0268   64.7224 O   0  0  0  0  0
    3.2973   28.4412   59.3615 O   0  0  0  0  0
    1.0460   30.1809   59.5963 O   0  0  0  0  0
    2.6697   31.7948   59.9038 O   0  0  0  0  0
    3.7594   28.5927   56.2760 O   0  0  0  0  0
    2.5447   30.9313   56.2004 O   0  0  0  0  0
    1.2262   28.6092   56.9554 O   0  0  0  0  0
    2.7109   29.4296   56.9779 P   0  0  0  0  0
  1  2  1  0  0  0
  3 16  1  0  0  0
  4 17  1  0  0  0
  5  2  1  0  0  0
  6 16  1  0  0  0
  6  7  1  0  0  0
  7  8  1  0  0  0
  8  9  1  0  0  0
  9 10  1  0  0  0
  9 20  1  0  0  0
 10  6  1  0  0  0
 11 20  1  0  0  0
 11 12  1  0  0  0
 11 26  1  0  0  0
 12 22  1  0  0  0
 13 22  1  0  0  0
 14 24  1  0  0  0
 15 25  1  0  0  0
 16  4  1  0  0  0
 17  5  1  0  0  0
 26 24  1  0  0  0
 26 25  1  0  0  0
  2  3  2  0  0  0
  4 18  2  0  0  0
  5 19  2  0  0  0
 12 21  2  0  0  0
 26 23  2  0  0  0
M  END
> <rmsd>
0.612581849

$$$$
PubChem-129577466 585273628 ZINC000585273628


 35 38  0  0  0  0  0  0  0  0999 V2000
   -0.4987   27.1312   64.4052 C   0  0  0  0  0
    1.7120   27.5574   63.3743 C   0  0  0  0  0
    1.1944   28.5645   62.5422 C   0  0  0  0  0
    2.0278   29.2454   61.6509 C   0  0  0  0  0
    1.4611   30.2991   60.7629 C   0  0  0  0  0
   -0.1356   29.5188   59.2315 C   0  0  0  0  0
   -0.4622   28.9967   57.8257 C   0  0  0  0  0
    1.2086   29.4738   56.4389 C   0  0  0  0  0
    2.2905   30.2455   57.2065 C   0  0  0  0  0
    3.4766   29.3372   57.5280 C   0  0  0  0  0
    5.4280   29.0996   56.0257 C   0  0  0  0  0
    5.9498   28.5960   54.8294 C   0  0  0  0  0
    7.2892   28.8184   54.4941 C   0  0  0  0  0
    8.1142   29.5464   55.3558 C   0  0  0  0  0
    7.6004   30.0525   56.5530 C   0  0  0  0  0
    8.4767   30.8282   57.4688 C   0  0  0  0  0
    6.2615   29.8312   56.8878 C   0  0  0  0  0
    1.7192   30.8331   58.5024 C   0  0  0  0  0
    3.3838   28.9189   61.5757 C   0  0  0  0  0
    3.9048   27.9170   62.3978 C   0  0  0  0  0
    3.0764   27.2331   63.3039 C   0  0  0  0  0
    4.9655   25.8739   64.1904 C   0  0  0  0  0
    5.7910   26.9792   64.8369 C   0  0  0  0  0
    5.5059   26.3652   67.2434 C   0  0  0  0  0
    4.9776   26.9912   68.3610 C   0  0  0  0  0
    4.7658   28.3095   66.6988 C   0  0  0  0  0
    4.4137   29.5085   65.8863 C   0  0  0  0  0
    0.8921   26.8703   64.2765 O   0  0  0  0  0
    0.6676   28.4378   57.2143 O   0  0  0  0  0
    2.7313   31.3020   56.4087 O   0  0  0  0  0
    4.0870   28.8572   56.3347 O   0  0  0  0  0
    3.5872   26.2354   64.1448 O   0  0  0  0  0
    1.2942   29.7761   59.4176 N   0  0  0  0  0
    5.3591   27.2086   66.2089 N   0  0  0  0  0
    4.5127   28.2124   68.0155 N   0  0  0  0  0
  1 28  1  0  0  0
  2 28  1  0  0  0
  3  4  1  0  0  0
  5  4  1  0  0  0
  5 33  1  0  0  0
  6 33  1  0  0  0
  6  7  1  0  0  0
  7 29  1  0  0  0
  8 29  1  0  0  0
  8  9  1  0  0  0
  9 30  1  0  0  0
  9 10  1  0  0  0
  9 18  1  0  0  0
 10 31  1  0  0  0
 11 31  1  0  0  0
 12 13  1  0  0  0
 14 15  1  0  0  0
 16 15  1  0  0  0
 17 11  1  0  0  0
 18 33  1  0  0  0
 19 20  1  0  0  0
 21 32  1  0  0  0
 21  2  1  0  0  0
 22 32  1  0  0  0
 22 23  1  0  0  0
 23 34  1  0  0  0
 25 35  1  0  0  0
 26 34  1  0  0  0
 27 26  1  0  0  0
 34 24  1  0  0  0
  2  3  2  0  0  0
  4 19  2  0  0  0
 11 12  2  0  0  0
 13 14  2  0  0  0
 15 17  2  0  0  0
 20 21  2  0  0  0
 24 25  2  0  0  0
 26 35  2  0  0  0
M  END
> <rmsd>
0.435387433

$$$$
PubChem-163058026


 22 23  0  0  0  0  0  0  0  0999 V2000
    3.4244   26.1515   63.6796 O   0  0  0  0  0
    1.3178   29.5575   59.7745 O   0  0  0  0  0
    1.4103   31.0609   58.0198 O   0  0  0  0  0
    2.9069   33.5969   55.9946 O   0  0  0  0  0
    3.1358   31.0029   54.8137 O   0  0  0  0  0
    4.0662   29.0934   56.5223 O   0  0  0  0  0
    0.6162   28.4377   57.2555 O   0  0  0  0  0
    0.8540   27.1886   63.9851 O   0  0  0  0  0
    2.8998   26.9976   62.7106 C   0  0  0  0  0
    3.6686   27.3214   61.5894 C   0  0  0  0  0
    3.1539   28.1705   60.6073 C   0  0  0  0  0
    1.8621   28.7028   60.7390 C   0  0  0  0  0
    1.9969   29.9091   58.5732 C   0  0  0  0  0
    2.2899   31.5300   57.0269 C   0  0  0  0  0
    1.8505   32.9251   56.6101 C   0  0  0  0  0
    2.2795   30.5609   55.8281 C   0  0  0  0  0
    2.3440   31.0342   53.6645 C   0  0  0  0  0
    2.6893   29.1515   56.2899 C   0  0  0  0  0
    1.9422   28.7523   57.5629 C   0  0  0  0  0
    1.0975   28.3771   61.8631 C   0  0  0  0  0
    1.6081   27.5237   62.8555 C   0  0  0  0  0
   -0.4613   27.6798   64.2048 C   0  0  0  0  0
  9  1  1  0  0  0
 10 11  1  0  0  0
 12  2  1  0  0  0
 12 20  1  0  0  0
 13  2  1  0  0  0
 13  3  1  0  0  0
 14  3  1  0  0  0
 14 15  1  0  0  0
 14 16  1  0  0  0
 15  4  1  0  0  0
 16  5  1  0  0  0
 16 18  1  0  0  0
 17  5  1  0  0  0
 18  6  1  0  0  0
 18 19  1  0  0  0
 19  7  1  0  0  0
 19 13  1  0  0  0
 21  8  1  0  0  0
 21  9  1  0  0  0
 22  8  1  0  0  0
  9 10  2  0  0  0
 11 12  2  0  0  0
 20 21  2  0  0  0
M  END
> <rmsd>
0.598648608

$$$$
PubChem-156314165


 27 28  0  0  0  0  0  0  0  0999 V2000
    7.1740   30.4312   62.7285 C   0  0  0  0  0
    5.5359   31.0130   60.9690 C   0  0  0  0  0
    4.7631   29.8665   61.2158 C   0  0  0  0  0
    3.6073   29.6233   60.4700 C   0  0  0  0  0
    3.2110   30.5245   59.4715 C   0  0  0  0  0
    3.9812   31.6647   59.2231 C   0  0  0  0  0
    5.1380   31.9076   59.9698 C   0  0  0  0  0
    1.9841   30.2716   58.6527 C   0  0  0  0  0
    2.1818   29.0609   57.7369 C   0  0  0  0  0
    3.0440   29.4170   56.5700 C   0  0  0  0  0
    1.2877   26.6976   59.3911 C   0  0  0  0  0
    2.5575   26.2588   59.7806 C   0  0  0  0  0
    2.8630   26.1100   61.1360 C   0  0  0  0  0
    1.9029   26.4022   62.1151 C   0  0  0  0  0
    0.6309   26.8426   61.7181 C   0  0  0  0  0
    0.3257   26.9909   60.3624 C   0  0  0  0  0
    6.6971   31.2850   61.6974 O   0  0  0  0  0
    4.1490   28.8373   56.4102 O   0  0  0  0  0
    2.6311   30.3818   55.6594 O   0  0  0  0  0
    0.9497   28.5745   57.2832 O   0  0  0  0  0
    1.9114   26.1866   56.8412 O   0  0  0  0  0
   -0.4529   26.3871   57.4092 O   0  0  0  0  0
    1.3724   26.5125   64.3824 O   0  0  0  0  0
    3.4733   25.8281   63.8885 O   0  0  0  0  0
    0.8859   30.0830   59.4963 O   0  0  0  0  0
    0.9185   26.9345   57.6878 S   0  0  0  0  0
    2.2222   26.2539   63.5051 N   0  0  0  0  0
  1 17  1  0  0  0
  2 17  1  0  0  0
  3  4  1  0  0  0
  5  6  1  0  0  0
  7  2  1  0  0  0
  8  5  1  0  0  0
  8  9  1  0  0  0
  8 25  1  0  0  0
  9 10  1  0  0  0
  9 20  1  0  0  0
 10 19  1  0  0  0
 12 13  1  0  0  0
 14 15  1  0  0  0
 14 27  1  0  0  0
 16 11  1  0  0  0
 26 20  1  0  0  0
 26 11  1  0  0  0
 27 24  1  0  0  0
  2  3  2  0  0  0
  4  5  2  0  0  0
  6  7  2  0  0  0
 10 18  2  0  0  0
 11 12  2  0  0  0
 13 14  2  0  0  0
 15 16  2  0  0  0
 26 21  2  0  0  0
 26 22  2  0  0  0
 27 23  2  0  0  0
M  CHG  2  27   1  24  -1
M  END
> <rmsd>
0.615073621

$$$$
PubChem-156314165


 27 28  0  0  0  0  0  0  0  0999 V2000
    7.1733   30.4303   62.7292 C   0  0  0  0  0
    5.5354   31.0122   60.9695 C   0  0  0  0  0
    5.1377   31.9069   59.9703 C   0  0  0  0  0
    3.9811   31.6641   59.2234 C   0  0  0  0  0
    3.2107   30.5239   59.4718 C   0  0  0  0  0
    3.6067   29.6228   60.4703 C   0  0  0  0  0
    4.7625   29.8658   61.2163 C   0  0  0  0  0
    1.9838   30.2712   58.6528 C   0  0  0  0  0
    2.1816   29.0604   57.7369 C   0  0  0  0  0
    3.0439   29.4166   56.5702 C   0  0  0  0  0
    1.2872   26.6972   59.3909 C   0  0  0  0  0
    2.5568   26.2583   59.7806 C   0  0  0  0  0
    2.8621   26.1094   61.1361 C   0  0  0  0  0
    1.9020   26.4017   62.1150 C   0  0  0  0  0
    0.6301   26.8423   61.7178 C   0  0  0  0  0
    0.3250   26.9905   60.3621 C   0  0  0  0  0
    6.6965   31.2841   61.6981 O   0  0  0  0  0
    4.1489   28.8368   56.4104 O   0  0  0  0  0
    2.6313   30.3815   55.6595 O   0  0  0  0  0
    0.9494   28.5743   57.2831 O   0  0  0  0  0
   -0.4533   26.3870   57.4088 O   0  0  0  0  0
    1.9110   26.1863   56.8412 O   0  0  0  0  0
    1.3712   26.5120   64.3823 O   0  0  0  0  0
    3.4722   25.8274   63.8886 O   0  0  0  0  0
    0.8856   30.0827   59.4962 O   0  0  0  0  0
    0.9181   26.9342   57.6877 S   0  0  0  0  0
    2.2212   26.2532   63.5050 N   0  0  0  0  0
  1 17  1  0  0  0
  2 17  1  0  0  0
  3  4  1  0  0  0
  5  6  1  0  0  0
  7  2  1  0  0  0
  8  5  1  0  0  0
  8  9  1  0  0  0
  8 25  1  0  0  0
  9 10  1  0  0  0
  9 20  1  0  0  0
 10 19  1  0  0  0
 12 13  1  0  0  0
 14 15  1  0  0  0
 14 27  1  0  0  0
 16 11  1  0  0  0
 26 20  1  0  0  0
 26 11  1  0  0  0
 27 24  1  0  0  0
  2  3  2  0  0  0
  4  5  2  0  0  0
  6  7  2  0  0  0
 10 18  2  0  0  0
 11 12  2  0  0  0
 13 14  2  0  0  0
 15 16  2  0  0  0
 26 21  2  0  0  0
 26 22  2  0  0  0
 27 23  2  0  0  0
M  CHG  2  27   1  24  -1
M  END
> <rmsd>
0.614758849

$$$$
PubChem-156314165


 27 28  0  0  0  0  0  0  0  0999 V2000
    7.1432   30.4723   62.7076 C   0  0  0  0  0
    5.4933   31.0503   60.9579 C   0  0  0  0  0
    5.0853   31.9462   59.9638 C   0  0  0  0  0
    3.9266   31.6989   59.2216 C   0  0  0  0  0
    3.1644   30.5532   59.4696 C   0  0  0  0  0
    3.5709   29.6509   60.4629 C   0  0  0  0  0
    4.7287   29.8983   61.2042 C   0  0  0  0  0
    1.9354   30.2956   58.6554 C   0  0  0  0  0
    2.1376   29.0898   57.7334 C   0  0  0  0  0
    2.9975   29.4501   56.5645 C   0  0  0  0  0
    1.2777   26.7108   59.3816 C   0  0  0  0  0
    0.3212   26.9940   60.3612 C   0  0  0  0  0
    0.6376   26.8429   61.7140 C   0  0  0  0  0
    1.9156   26.4094   62.0997 C   0  0  0  0  0
    2.8700   26.1273   61.1122 C   0  0  0  0  0
    2.5532   26.2790   59.7597 C   0  0  0  0  0
    6.6563   31.3269   61.6819 O   0  0  0  0  0
    2.6177   30.3176   55.7341 O   0  0  0  0  0
    4.2222   28.8199   56.3929 O   0  0  0  0  0
    0.9072   28.5938   57.2845 O   0  0  0  0  0
    1.8875   26.2168   56.8250 O   0  0  0  0  0
   -0.4743   26.3931   57.4109 O   0  0  0  0  0
    1.4016   26.5079   64.3714 O   0  0  0  0  0
    3.5032   25.8393   63.8589 O   0  0  0  0  0
    0.8425   30.0958   59.5031 O   0  0  0  0  0
    0.8939   26.9519   57.6820 S   0  0  0  0  0
    2.2464   26.2581   63.4866 N   0  0  0  0  0
  1 17  1  0  0  0
  2 17  1  0  0  0
  3  4  1  0  0  0
  5  6  1  0  0  0
  7  2  1  0  0  0
  8  5  1  0  0  0
  8  9  1  0  0  0
  8 25  1  0  0  0
  9 10  1  0  0  0
  9 20  1  0  0  0
 10 19  1  0  0  0
 12 13  1  0  0  0
 14 15  1  0  0  0
 14 27  1  0  0  0
 16 11  1  0  0  0
 26 20  1  0  0  0
 26 11  1  0  0  0
 27 24  1  0  0  0
  2  3  2  0  0  0
  4  5  2  0  0  0
  6  7  2  0  0  0
 10 18  2  0  0  0
 11 12  2  0  0  0
 13 14  2  0  0  0
 15 16  2  0  0  0
 26 21  2  0  0  0
 26 22  2  0  0  0
 27 23  2  0  0  0
M  CHG  2  27   1  24  -1
M  END
> <rmsd>
0.641153216

$$$$
PubChem-110115434 MCULE-2853336205


 24 27  0  0  0  0  0  0  0  0999 V2000
    5.9399   28.1864   55.9025 C   0  0  0  0  0
    4.8506   29.1725   55.6808 C   0  0  0  0  0
    2.7190   30.0212   56.2565 C   0  0  0  0  0
    3.9381   31.0529   54.5133 C   0  0  0  0  0
    4.9805   30.1441   54.6897 C   0  0  0  0  0
    1.4967   29.9700   57.1094 C   0  0  0  0  0
    1.8401   30.3809   58.5533 C   0  0  0  0  0
    0.0197   29.0096   59.2881 C   0  0  0  0  0
   -0.2685   28.7376   57.8024 C   0  0  0  0  0
    1.5458   29.9153   60.8321 C   0  0  0  0  0
    2.0335   28.8881   61.7972 C   0  0  0  0  0
    1.2102   28.4853   62.8546 C   0  0  0  0  0
    1.6682   27.5322   63.7679 C   0  0  0  0  0
    2.9412   26.9649   63.6136 C   0  0  0  0  0
    3.7720   27.3800   62.5698 C   0  0  0  0  0
    3.3180   28.3431   61.6626 C   0  0  0  0  0
    2.4313   25.3548   65.3996 C   0  0  0  0  0
    1.4251   26.3804   65.9269 C   0  0  0  0  0
    3.7284   29.1277   56.4451 N   0  0  0  0  0
    2.8306   30.9773   55.2968 N   0  0  0  0  0
    1.4325   29.3416   59.5008 N   0  0  0  0  0
    0.9262   28.6819   57.0604 O   0  0  0  0  0
    3.3622   25.9845   64.5163 O   0  0  0  0  0
    0.8715   27.1326   64.8445 O   0  0  0  0  0
  1  2  1  0  0  0
  3 19  1  0  0  0
  4 20  1  0  0  0
  5  2  1  0  0  0
  6  3  1  0  0  0
  6  7  1  0  0  0
  6 22  1  0  0  0
  7 21  1  0  0  0
  8 21  1  0  0  0
  8  9  1  0  0  0
  9 22  1  0  0  0
 10 21  1  0  0  0
 10 11  1  0  0  0
 12 13  1  0  0  0
 13 24  1  0  0  0
 14 15  1  0  0  0
 14 23  1  0  0  0
 16 11  1  0  0  0
 17 23  1  0  0  0
 17 18  1  0  0  0
 18 24  1  0  0  0
  2 19  2  0  0  0
  3 20  2  0  0  0
  4  5  2  0  0  0
 11 12  2  0  0  0
 13 14  2  0  0  0
 15 16  2  0  0  0
M  END
> <rmsd>
0.572321773

$$$$
PubChem-162906960


 31 33  0  0  0  0  0  0  0  0999 V2000
   -0.5325   30.8205   64.1769 C   0  0  0  0  0
    1.1468   29.0742   63.6606 C   0  0  0  0  0
    1.7789   29.8915   62.7127 C   0  0  0  0  0
    2.8868   29.4308   62.0058 C   0  0  0  0  0
    3.5458   30.3150   61.0013 C   0  0  0  0  0
    3.3735   29.7808   59.5791 C   0  0  0  0  0
    4.5420   30.3132   58.6952 C   0  0  0  0  0
    3.9928   31.0285   57.4321 C   0  0  0  0  0
    3.0451   32.1027   57.9449 C   0  0  0  0  0
    3.2294   33.5467   57.5995 C   0  0  0  0  0
    3.5992   34.3521   58.8054 C   0  0  0  0  0
    4.8006   34.2304   59.3656 C   0  0  0  0  0
    2.0239   31.6695   58.7123 C   0  0  0  0  0
    2.0014   30.1570   58.9391 C   0  0  0  0  0
   -0.2955   30.1645   59.2328 C   0  0  0  0  0
    2.0361   29.5077   57.5585 C   0  0  0  0  0
    3.1531   29.9813   56.6131 C   0  0  0  0  0
    3.3363   28.0169   55.3908 C   0  0  0  0  0
    3.5692   31.0483   54.6081 C   0  0  0  0  0
    3.3791   28.1492   62.2507 C   0  0  0  0  0
    2.7663   27.3100   63.1951 C   0  0  0  0  0
    4.4043   25.5054   62.7353 C   0  0  0  0  0
    1.6331   27.7784   63.9094 C   0  0  0  0  0
    1.2993   25.6840   65.2466 C   0  0  0  0  0
    0.0293   29.5293   64.3698 O   0  0  0  0  0
    0.9289   29.7061   59.7509 O   0  0  0  0  0
    1.2196   28.6630   57.2207 O   0  0  0  0  0
    4.0069   28.8991   56.2564 O   0  0  0  0  0
    2.5596   30.5958   55.4761 O   0  0  0  0  0
    3.2745   26.0260   63.4237 O   0  0  0  0  0
    0.9546   27.0095   64.8702 O   0  0  0  0  0
  1 25  1  0  0  0
  2 25  1  0  0  0
  3  4  1  0  0  0
  5  4  1  0  0  0
  6  5  1  0  0  0
  6  7  1  0  0  0
  8  7  1  0  0  0
  8  9  1  0  0  0
 10  9  1  0  0  0
 10 11  1  0  0  0
 14 13  1  0  0  0
 14 26  1  0  0  0
 14 16  1  0  0  0
 14  6  1  0  0  0
 15 26  1  0  0  0
 17 16  1  0  0  0
 17 28  1  0  0  0
 17 29  1  0  0  0
 17  8  1  0  0  0
 18 28  1  0  0  0
 19 29  1  0  0  0
 20 21  1  0  0  0
 21 30  1  0  0  0
 22 30  1  0  0  0
 23 31  1  0  0  0
 23  2  1  0  0  0
 24 31  1  0  0  0
  2  3  2  0  0  0
  4 20  2  0  0  0
  9 13  2  0  0  0
 11 12  2  0  0  0
 16 27  2  0  0  0
 21 23  2  0  0  0
M  END
> <rmsd>
0.623120964

$$$$
PubChem-161617725


 30 30  0  0  0  0  0  0  0  0999 V2000
    1.3774   24.9353   66.9938 C   0  0  0  0  0
    1.0058   25.3025   65.5706 C   0  0  0  0  0
    1.6933   26.6047   65.1547 C   0  0  0  0  0
    3.1371   26.3108   64.8541 C   0  0  0  0  0
    1.6582   28.4810   63.6838 C   0  0  0  0  0
    2.1059   28.4854   62.2362 C   0  0  0  0  0
    3.0075   29.6302   60.5774 C   0  0  0  0  0
    2.2061   30.5734   59.6993 C   0  0  0  0  0
    0.4766   30.5014   58.3292 C   0  0  0  0  0
   -0.0159   29.2843   57.5599 C   0  0  0  0  0
    0.4233   26.9694   57.5403 C   0  0  0  0  0
    0.6292   26.3846   58.9309 C   0  0  0  0  0
   -1.2252   26.1175   60.1095 C   0  0  0  0  0
   -2.0102   26.5529   61.3334 C   0  0  0  0  0
   -1.2425   27.5868   63.1278 C   0  0  0  0  0
   -0.3550   27.5277   64.3622 C   0  0  0  0  0
    1.7330   28.3487   56.1398 C   0  0  0  0  0
    0.7925   28.5085   54.9365 C   0  0  0  0  0
    1.4866   28.0807   53.6574 C   0  0  0  0  0
    2.8324   29.3672   56.1472 C   0  0  0  0  0
    4.0409   26.8504   65.5443 O   0  0  0  0  0
    3.4799   25.4531   63.8154 O   0  0  0  0  0
    2.5937   29.7487   61.9042 O   0  0  0  0  0
    0.8846   30.1321   59.6124 O   0  0  0  0  0
   -0.1966   27.0286   59.8553 O   0  0  0  0  0
   -1.2463   26.3489   62.4833 O   0  0  0  0  0
    2.5703   30.5989   56.1509 O   0  0  0  0  0
    4.1546   28.9460   56.1305 O   0  0  0  0  0
    1.0213   27.2038   63.9897 N   0  0  0  0  0
    1.0464   28.2821   57.4420 N   0  0  0  0  0
  1  2  1  0  0  0
  2  3  1  0  0  0
  3  4  1  0  0  0
  3 29  1  0  0  0
  4 22  1  0  0  0
  5 29  1  0  0  0
  5  6  1  0  0  0
  6 23  1  0  0  0
  7 23  1  0  0  0
  7  8  1  0  0  0
  8 24  1  0  0  0
  9 24  1  0  0  0
  9 10  1  0  0  0
 10 30  1  0  0  0
 11 30  1  0  0  0
 11 12  1  0  0  0
 12 25  1  0  0  0
 13 25  1  0  0  0
 13 14  1  0  0  0
 14 26  1  0  0  0
 15 26  1  0  0  0
 15 16  1  0  0  0
 16 29  1  0  0  0
 17 30  1  0  0  0
 17 18  1  0  0  0
 17 20  1  0  0  0
 18 19  1  0  0  0
 20 28  1  0  0  0
  4 21  2  0  0  0
 20 27  2  0  0  0
M  END
> <rmsd>
0.684285045

$$$$
PubChem-46834337


 16 15  0  0  0  0  0  0  0  0999 V2000
   -0.4610   27.8787   56.6574 C   0  0  0  0  0
    1.7258   28.3823   56.0223 C   0  0  0  0  0
    2.7745   29.4369   56.1283 C   0  0  0  0  0
    1.4871   28.3688   59.4524 C   0  0  0  0  0
    1.9786   27.5359   60.5822 C   0  0  0  0  0
    0.8020   26.9152   61.3143 C   0  0  0  0  0
    1.2898   26.0733   62.4822 C   0  0  0  0  0
    1.7617   26.9525   63.6327 C   0  0  0  0  0
    2.4779   26.1096   64.6717 C   0  0  0  0  0
    0.7622   28.5209   57.1029 N   0  0  0  0  0
    1.2425   27.7659   58.1822 N   0  0  0  0  0
    3.7763   25.6958   64.1682 N   0  0  0  0  0
    2.4641   30.6522   56.0233 O   0  0  0  0  0
    4.0988   29.0762   56.3345 O   0  0  0  0  0
    1.2650   29.5960   59.6299 O   0  0  0  0  0
    0.6647   27.5776   64.2261 O   0  0  0  0  0
  1 10  1  0  0  0
  2 10  1  0  0  0
  2  3  1  0  0  0
  3 14  1  0  0  0
  5  4  1  0  0  0
  5  6  1  0  0  0
  6  7  1  0  0  0
  8  7  1  0  0  0
  8  9  1  0  0  0
  8 16  1  0  0  0
  9 12  1  0  0  0
 10 11  1  0  0  0
 11  4  1  0  0  0
  3 13  2  0  0  0
  4 15  2  0  0  0
M  END
> <rmsd>
0.540723383

$$$$
PubChem-132768247 MCULE-8351908061


 35 38  0  0  0  0  0  0  0  0999 V2000
   -2.9208   28.5736   63.5801 N   0  0  0  0  0
   -2.3014   27.9745   64.5843 N   0  0  0  0  0
    1.4223   29.9299   59.4122 N   0  0  0  0  0
   -4.2481   28.4860   63.7944 C   0  0  0  0  0
   -4.4304   27.7988   64.9781 C   0  0  0  0  0
   -3.1837   27.4755   65.4668 C   0  0  0  0  0
   -0.8583   27.8452   64.6807 C   0  0  0  0  0
   -0.3903   26.6499   63.8669 C   0  0  0  0  0
    1.8832   27.4202   63.2146 C   0  0  0  0  0
    1.3746   28.4259   62.3763 C   0  0  0  0  0
    2.2379   29.2820   61.6867 C   0  0  0  0  0
    3.6198   29.1397   61.8367 C   0  0  0  0  0
    4.1346   28.1422   62.6670 C   0  0  0  0  0
    3.2719   27.2762   63.3594 C   0  0  0  0  0
    5.1617   26.0575   64.3954 C   0  0  0  0  0
    1.6836   30.3594   60.7939 C   0  0  0  0  0
    0.4076   28.8753   59.3999 C   0  0  0  0  0
   -0.2144   28.7487   58.0105 C   0  0  0  0  0
    1.3528   29.4697   56.6061 C   0  0  0  0  0
    2.7041   29.7093   57.2944 C   0  0  0  0  0
    3.1233   31.1603   57.0951 C   0  0  0  0  0
    4.5323   31.8691   55.1871 C   0  0  0  0  0
    5.6684   32.0220   55.9993 C   0  0  0  0  0
    6.8810   32.4388   55.4428 C   0  0  0  0  0
    6.9658   32.7053   54.0735 C   0  0  0  0  0
    5.8386   32.5553   53.2610 C   0  0  0  0  0
    4.6257   32.1381   53.8174 C   0  0  0  0  0
    2.6508   29.4186   58.7999 C   0  0  0  0  0
   -5.7344   27.4655   65.6086 C   0  0  0  0  0
    1.0295   26.5506   63.9063 O   0  0  0  0  0
    3.7711   26.2702   64.1938 O   0  0  0  0  0
    0.7408   28.3047   57.0863 O   0  0  0  0  0
    3.6619   28.8723   56.7202 O   0  0  0  0  0
    3.3072   31.4504   55.7129 O   0  0  0  0  0
    8.1406   33.1098   53.5339 F   0  0  0  0  0
  2  1  1  0  0  0
  4  5  1  0  0  0
  6  2  1  0  0  0
  7  2  1  0  0  0
  7  8  1  0  0  0
  8 30  1  0  0  0
  9 30  1  0  0  0
 10 11  1  0  0  0
 12 13  1  0  0  0
 14 31  1  0  0  0
 14  9  1  0  0  0
 15 31  1  0  0  0
 16 11  1  0  0  0
 16  3  1  0  0  0
 17  3  1  0  0  0
 17 18  1  0  0  0
 18 32  1  0  0  0
 19 32  1  0  0  0
 19 20  1  0  0  0
 20 33  1  0  0  0
 20 21  1  0  0  0
 20 28  1  0  0  0
 21 34  1  0  0  0
 22 34  1  0  0  0
 23 24  1  0  0  0
 25 26  1  0  0  0
 25 35  1  0  0  0
 27 22  1  0  0  0
 28  3  1  0  0  0
 29  5  1  0  0  0
  4  1  2  0  0  0
  5  6  2  0  0  0
  9 10  2  0  0  0
 11 12  2  0  0  0
 13 14  2  0  0  0
 22 23  2  0  0  0
 24 25  2  0  0  0
 26 27  2  0  0  0
M  END
> <rmsd>
0.46294418

$$$$
PubChem-164816262


 23 24  0  0  0  0  0  0  0  0999 V2000
    3.2862   32.1464   53.6744 C   0  0  0  0  0
    3.3300   31.4076   54.9951 C   0  0  0  0  0
    2.4746   31.0186   58.0564 C   0  0  0  0  0
    2.6540   30.2860   59.3728 C   0  0  0  0  0
    1.3022   28.8950   60.9093 C   0  0  0  0  0
    2.3897   28.6684   61.7679 C   0  0  0  0  0
    2.2363   27.8715   62.9049 C   0  0  0  0  0
    0.9771   27.3081   63.2058 C   0  0  0  0  0
   -0.1050   27.5439   62.3534 C   0  0  0  0  0
    0.0581   28.3316   61.2104 C   0  0  0  0  0
    3.3855   27.7126   63.8680 C   0  0  0  0  0
   -0.1220   29.5784   56.7950 C   0  0  0  0  0
   -1.2936   28.8953   57.4685 C   0  0  0  0  0
    3.6057   27.9361   55.5599 C   0  0  0  0  0
    4.8477   27.0831   55.4107 C   0  0  0  0  0
    2.1656   30.6532   55.1451 O   0  0  0  0  0
    1.4289   29.6752   59.7580 O   0  0  0  0  0
    0.7982   26.4993   64.3335 O   0  0  0  0  0
    3.5373   26.3848   64.3091 O   0  0  0  0  0
    1.0038   28.7582   56.8769 O   0  0  0  0  0
    3.7958   28.8579   56.5898 O   0  0  0  0  0
    2.3547   29.8000   56.6316 Si  0  0  0  0  0
    2.1714   26.0584   65.3099 Si  0  0  0  0  0
  1  2  1  0  0  0
  2 16  1  0  0  0
  3  4  1  0  0  0
  4 17  1  0  0  0
  5 17  1  0  0  0
  6  7  1  0  0  0
  8  9  1  0  0  0
  8 18  1  0  0  0
 10  5  1  0  0  0
 11 19  1  0  0  0
 11  7  1  0  0  0
 12 20  1  0  0  0
 12 13  1  0  0  0
 14 21  1  0  0  0
 14 15  1  0  0  0
 22 16  1  0  0  0
 22  3  1  0  0  0
 22 20  1  0  0  0
 22 21  1  0  0  0
 23 18  1  0  0  0
 23 19  1  0  0  0
  5  6  2  0  0  0
  7  8  2  0  0  0
  9 10  2  0  0  0
M  END
> <rmsd>
0.56063211

$$$$
PubChem-116525689


 21 22  0  0  0  0  0  0  0  0999 V2000
    0.5103   27.2935   57.6086 C   0  0  0  0  0
    2.0266   29.0699   57.6795 C   0  0  0  0  0
    1.7906   30.2160   58.6562 C   0  0  0  0  0
    1.5684   28.9311   60.7791 C   0  0  0  0  0
    0.7351   28.4616   61.8057 C   0  0  0  0  0
   -0.6167   28.8210   61.8448 C   0  0  0  0  0
   -1.4388   28.3489   62.8663 C   0  0  0  0  0
   -0.8989   27.5162   63.8454 C   0  0  0  0  0
    1.2502   27.6123   62.8180 C   0  0  0  0  0
    2.6151   27.2361   62.7951 C   0  0  0  0  0
    3.4293   27.7200   61.7602 C   0  0  0  0  0
    2.9170   28.5542   60.7680 C   0  0  0  0  0
    2.9591   29.4984   56.5959 C   0  0  0  0  0
    0.7643   28.6319   57.1046 N   0  0  0  0  0
    0.4153   27.1709   63.8005 N   0  0  0  0  0
    3.1984   26.3753   63.7954 N   0  0  0  0  0
    1.0439   29.7710   59.7854 O   0  0  0  0  0
    4.4084   26.0737   63.7297 O   0  0  0  0  0
    2.4530   25.8682   64.8348 O   0  0  0  0  0
    2.6486   30.4381   55.8163 O   0  0  0  0  0
    4.1778   28.8514   56.4442 O   0  0  0  0  0
  1 14  1  0  0  0
  2 14  1  0  0  0
  2  3  1  0  0  0
  2 13  1  0  0  0
  3 17  1  0  0  0
  4 17  1  0  0  0
  5  6  1  0  0  0
  7  8  1  0  0  0
  9 15  1  0  0  0
  9  5  1  0  0  0
 10 11  1  0  0  0
 10 16  1  0  0  0
 12  4  1  0  0  0
 13 21  1  0  0  0
 16 19  1  0  0  0
  4  5  2  0  0  0
  6  7  2  0  0  0
  8 15  2  0  0  0
  9 10  2  0  0  0
 11 12  2  0  0  0
 13 20  2  0  0  0
 16 18  2  0  0  0
M  CHG  2  16   1  19  -1
M  END
> <rmsd>
0.483948648

$$$$
PubChem-21240314


 27 29  0  0  0  0  0  0  0  0999 V2000
    4.0226   25.8926   67.1745 C   0  0  0  0  0
    5.0019   26.8164   66.8048 C   0  0  0  0  0
    5.1559   27.1434   65.4557 C   0  0  0  0  0
    3.4021   25.6564   64.8576 C   0  0  0  0  0
    3.2138   25.3082   66.1983 C   0  0  0  0  0
    2.5324   25.0608   63.8034 C   0  0  0  0  0
    1.3558   25.9458   63.5341 C   0  0  0  0  0
    1.4066   26.9798   62.4695 C   0  0  0  0  0
    0.3411   27.8801   62.2402 C   0  0  0  0  0
    0.4373   28.8367   61.2246 C   0  0  0  0  0
    1.5789   28.9174   60.4249 C   0  0  0  0  0
    2.6385   28.0287   60.6490 C   0  0  0  0  0
    2.5502   27.0710   61.6602 C   0  0  0  0  0
    2.7307   30.0179   58.5132 C   0  0  0  0  0
    2.7425   28.8868   57.4696 C   0  0  0  0  0
    1.6383   29.0700   56.4220 C   0  0  0  0  0
    1.5294   30.5224   55.9547 C   0  0  0  0  0
    1.5549   31.4593   57.1654 C   0  0  0  0  0
    4.3586   26.5636   64.5182 N   0  0  0  0  0
    0.3280   25.8064   64.2495 O   0  0  0  0  0
    1.6348   29.8899   59.4212 O   0  0  0  0  0
    2.7453   31.2945   57.9038 O   0  0  0  0  0
    1.4393   32.7858   56.7493 O   0  0  0  0  0
    2.5788   30.8226   55.0827 O   0  0  0  0  0
    0.4149   28.6477   56.9446 O   0  0  0  0  0
    3.9883   28.8379   56.8430 O   0  0  0  0  0
   -0.8163   27.8422   63.0091 O   0  0  0  0  0
  2  3  1  0  0  0
  4 19  1  0  0  0
  5  1  1  0  0  0
  6  4  1  0  0  0
  6  7  1  0  0  0
  7  8  1  0  0  0
  9 10  1  0  0  0
  9 27  1  0  0  0
 11 12  1  0  0  0
 11 21  1  0  0  0
 13  8  1  0  0  0
 14 21  1  0  0  0
 14 15  1  0  0  0
 14 22  1  0  0  0
 15 16  1  0  0  0
 15 26  1  0  0  0
 16 17  1  0  0  0
 16 25  1  0  0  0
 17 18  1  0  0  0
 17 24  1  0  0  0
 18 22  1  0  0  0
 18 23  1  0  0  0
  1  2  2  0  0  0
  3 19  2  0  0  0
  4  5  2  0  0  0
  7 20  2  0  0  0
  8  9  2  0  0  0
 10 11  2  0  0  0
 12 13  2  0  0  0
M  END
> <rmsd>
0.647195339

$$$$
PubChem-126705282


 33 36  0  0  0  0  0  0  0  0999 V2000
    4.8307   26.8237   61.4816 C   0  0  0  0  0
    3.4577   27.3813   61.6487 C   0  0  0  0  0
    2.9801   28.2258   60.6433 C   0  0  0  0  0
    1.6930   28.7744   60.7161 C   0  0  0  0  0
    0.8840   28.4778   61.8126 C   0  0  0  0  0
    1.3454   27.6425   62.8319 C   0  0  0  0  0
    2.6333   27.0724   62.7582 C   0  0  0  0  0
    3.0424   26.1574   63.8539 C   0  0  0  0  0
    2.0244   25.6855   64.8463 C   0  0  0  0  0
    0.9707   26.7612   65.1264 C   0  0  0  0  0
    1.4451   27.7829   66.1159 C   0  0  0  0  0
    0.8117   27.8695   67.3576 C   0  0  0  0  0
    1.2197   28.8161   68.3027 C   0  0  0  0  0
    2.2839   29.7001   68.0016 C   0  0  0  0  0
    2.9083   29.6070   66.7527 C   0  0  0  0  0
    2.4946   28.6591   65.8153 C   0  0  0  0  0
    2.2426   30.9075   70.1907 C   0  0  0  0  0
    1.9279   29.9441   58.5390 C   0  0  0  0  0
    1.9055   28.7693   57.5474 C   0  0  0  0  0
    2.7070   29.1398   56.2984 C   0  0  0  0  0
    2.3283   30.5425   55.7989 C   0  0  0  0  0
    2.2976   31.5319   56.9740 C   0  0  0  0  0
    1.8913   32.9132   56.4880 C   0  0  0  0  0
    4.2245   25.7358   63.9545 O   0  0  0  0  0
    0.5085   27.3819   63.9240 O   0  0  0  0  0
    2.7590   30.6783   68.8876 O   0  0  0  0  0
    0.5576   28.8590   69.5232 O   0  0  0  0  0
    1.1972   29.6194   59.7175 O   0  0  0  0  0
    1.3752   31.0913   57.9423 O   0  0  0  0  0
    2.0255   33.8378   57.5236 O   0  0  0  0  0
    3.2307   30.9651   54.8190 O   0  0  0  0  0
    4.0729   29.0749   56.5881 O   0  0  0  0  0
    0.5908   28.4583   57.1922 O   0  0  0  0  0
  1  2  1  0  0  0
  3  4  1  0  0  0
  4 28  1  0  0  0
  5  6  1  0  0  0
  6 25  1  0  0  0
  7  8  1  0  0  0
  7  2  1  0  0  0
  9  8  1  0  0  0
  9 10  1  0  0  0
 10 25  1  0  0  0
 10 11  1  0  0  0
 12 13  1  0  0  0
 13 27  1  0  0  0
 14 15  1  0  0  0
 14 26  1  0  0  0
 16 11  1  0  0  0
 17 26  1  0  0  0
 18 28  1  0  0  0
 18 19  1  0  0  0
 18 29  1  0  0  0
 19 20  1  0  0  0
 19 33  1  0  0  0
 20 21  1  0  0  0
 20 32  1  0  0  0
 21 22  1  0  0  0
 21 31  1  0  0  0
 22 29  1  0  0  0
 22 23  1  0  0  0
 23 30  1  0  0  0
  2  3  2  0  0  0
  4  5  2  0  0  0
  6  7  2  0  0  0
  8 24  2  0  0  0
 11 12  2  0  0  0
 13 14  2  0  0  0
 15 16  2  0  0  0
M  END
> <rmsd>
0.572206497

$$$$
PubChem-129577601 585273795 ZINC000585273795


 34 37  0  0  0  0  0  0  0  0999 V2000
   -0.5858   26.8856   64.0049 C   0  0  0  0  0
    1.6877   27.5273   63.2546 C   0  0  0  0  0
    1.1695   28.5342   62.4219 C   0  0  0  0  0
    2.0192   29.3377   61.6598 C   0  0  0  0  0
    1.4499   30.3776   60.7576 C   0  0  0  0  0
   -0.1430   29.5937   59.2265 C   0  0  0  0  0
   -0.4592   29.0101   57.8427 C   0  0  0  0  0
    1.2181   29.4608   56.4572 C   0  0  0  0  0
    2.3011   30.2499   57.2063 C   0  0  0  0  0
    3.4900   29.3528   57.5495 C   0  0  0  0  0
    5.3877   29.0604   55.9863 C   0  0  0  0  0
    5.8714   28.4905   54.8040 C   0  0  0  0  0
    7.1849   28.7313   54.3901 C   0  0  0  0  0
    8.0216   29.5462   55.1584 C   0  0  0  0  0
    7.5467   30.1185   56.3414 C   0  0  0  0  0
    6.2335   29.8769   56.7560 C   0  0  0  0  0
    1.7303   30.8690   58.4875 C   0  0  0  0  0
    3.3985   29.1383   61.7147 C   0  0  0  0  0
    3.9279   28.1404   62.5352 C   0  0  0  0  0
    3.0902   27.3238   63.3040 C   0  0  0  0  0
    3.0284   25.2685   64.7416 C   0  0  0  0  0
    2.6724   24.1853   63.7312 C   0  0  0  0  0
    4.7928   22.8805   63.8152 C   0  0  0  0  0
    5.7595   22.4945   62.9034 C   0  0  0  0  0
    5.3435   23.0282   61.6919 C   0  0  0  0  0
    0.8278   26.7435   64.0313 O   0  0  0  0  0
    0.6789   28.4418   57.2564 O   0  0  0  0  0
    2.7425   31.2853   56.3824 O   0  0  0  0  0
    4.0677   28.8060   56.3689 O   0  0  0  0  0
    3.7052   26.3434   64.0985 O   0  0  0  0  0
    1.2879   29.8342   59.4195 N   0  0  0  0  0
    3.8749   23.6043   63.1547 N   0  0  0  0  0
    4.1903   23.6972   61.8779 N   0  0  0  0  0
    9.2929   29.7811   54.7555 F   0  0  0  0  0
  1 26  1  0  0  0
  2 26  1  0  0  0
  3  4  1  0  0  0
  5  4  1  0  0  0
  5 31  1  0  0  0
  6 31  1  0  0  0
  6  7  1  0  0  0
  7 27  1  0  0  0
  8 27  1  0  0  0
  8  9  1  0  0  0
  9 28  1  0  0  0
  9 10  1  0  0  0
  9 17  1  0  0  0
 10 29  1  0  0  0
 11 29  1  0  0  0
 12 13  1  0  0  0
 14 34  1  0  0  0
 14 15  1  0  0  0
 16 11  1  0  0  0
 17 31  1  0  0  0
 18 19  1  0  0  0
 20 30  1  0  0  0
 20  2  1  0  0  0
 21 30  1  0  0  0
 21 22  1  0  0  0
 22 32  1  0  0  0
 24 25  1  0  0  0
 32 23  1  0  0  0
 32 33  1  0  0  0
  2  3  2  0  0  0
  4 18  2  0  0  0
 11 12  2  0  0  0
 13 14  2  0  0  0
 15 16  2  0  0  0
 19 20  2  0  0  0
 23 24  2  0  0  0
 25 33  2  0  0  0
M  END
> <rmsd>
0.4175933

$$$$
PubChem-139620480 PubChem-139620481


 28 29  0  0  0  0  0  0  0  0999 V2000
   -2.9993   30.0449   64.8825 C   0  0  0  0  0
   -2.7355   28.6014   64.5104 C   0  0  0  0  0
   -3.5406   27.6975   65.4249 C   0  0  0  0  0
   -1.2531   28.3100   64.6562 C   0  0  0  0  0
   -0.8911   27.0242   63.9294 C   0  0  0  0  0
    1.4817   27.4977   63.3363 C   0  0  0  0  0
    2.8529   27.2311   63.5381 C   0  0  0  0  0
    3.8006   27.9715   62.8160 C   0  0  0  0  0
    3.4286   28.9679   61.9031 C   0  0  0  0  0
    2.0522   29.2259   61.7078 C   0  0  0  0  0
    1.1035   28.4882   62.4188 C   0  0  0  0  0
    1.5443   30.2234   60.7156 C   0  0  0  0  0
   -0.0612   29.2711   59.2830 C   0  0  0  0  0
   -0.4267   28.9018   57.8363 C   0  0  0  0  0
    1.5139   30.0125   56.9929 C   0  0  0  0  0
    1.7207   30.5809   58.4073 C   0  0  0  0  0
    2.8300   29.8174   56.3181 C   0  0  0  0  0
    4.5062   29.7038   61.1965 C   0  0  0  0  0
    0.5069   26.7730   64.0360 O   0  0  0  0  0
    3.6768   29.0110   56.7872 O   0  0  0  0  0
    3.1219   30.5287   55.1626 O   0  0  0  0  0
    5.7028   29.3228   61.3036 O   0  0  0  0  0
    4.2325   30.8279   60.4274 O   0  0  0  0  0
    4.5307   26.0107   64.6029 O   0  0  0  0  0
    2.4225   25.4823   65.2101 O   0  0  0  0  0
    1.3636   29.5893   59.4195 N   0  0  0  0  0
    0.7732   28.7463   57.0144 N   0  0  0  0  0
    3.3082   26.2235   64.4625 N   0  0  0  0  0
  1  2  1  0  0  0
  2  3  1  0  0  0
  2  4  1  0  0  0
  4  5  1  0  0  0
  5 19  1  0  0  0
  6 19  1  0  0  0
  7  8  1  0  0  0
  7 28  1  0  0  0
  9 10  1  0  0  0
  9 18  1  0  0  0
 11  6  1  0  0  0
 12 10  1  0  0  0
 12 26  1  0  0  0
 13 26  1  0  0  0
 13 14  1  0  0  0
 14 27  1  0  0  0
 15 27  1  0  0  0
 15 16  1  0  0  0
 15 17  1  0  0  0
 16 26  1  0  0  0
 17 21  1  0  0  0
 18 23  1  0  0  0
 28 25  1  0  0  0
  6  7  2  0  0  0
  8  9  2  0  0  0
 10 11  2  0  0  0
 17 20  2  0  0  0
 18 22  2  0  0  0
 28 24  2  0  0  0
M  CHG  2  28   1  25  -1
M  END
> <rmsd>
0.546889782

$$$$
PubChem-164815654


 24 25  0  0  0  0  0  0  0  0999 V2000
   -1.2938   28.8786   57.4637 C   0  0  0  0  0
   -0.1199   29.5919   56.8269 C   0  0  0  0  0
    2.4623   31.0240   58.0623 C   0  0  0  0  0
    2.6440   30.2931   59.3794 C   0  0  0  0  0
    1.3010   28.8895   60.9119 C   0  0  0  0  0
    2.3877   28.6744   61.7744 C   0  0  0  0  0
    2.2382   27.8768   62.9115 C   0  0  0  0  0
    0.9839   27.3007   63.2082 C   0  0  0  0  0
   -0.0977   27.5254   62.3521 C   0  0  0  0  0
    0.0614   28.3140   61.2091 C   0  0  0  0  0
    3.3852   27.7303   63.8791 C   0  0  0  0  0
    2.1288   24.2289   65.6915 C   0  0  0  0  0
    4.8331   29.7399   56.3537 C   0  0  0  0  0
    6.1465   28.9871   56.3295 C   0  0  0  0  0
    2.1243   29.7067   54.1589 C   0  0  0  0  0
    1.9826   30.3799   52.8102 C   0  0  0  0  0
    1.0028   28.7634   56.8630 O   0  0  0  0  0
    1.4239   29.6702   59.7605 O   0  0  0  0  0
    0.8093   26.4911   64.3358 O   0  0  0  0  0
    3.5523   26.4032   64.3169 O   0  0  0  0  0
    3.7889   28.8463   56.5962 O   0  0  0  0  0
    2.1897   30.6776   55.1591 O   0  0  0  0  0
    2.3574   29.8047   56.6360 Si  0  0  0  0  0
    2.1858   26.0549   65.3095 Si  0  0  0  0  0
  1  2  1  0  0  0
  2 17  1  0  0  0
  3  4  1  0  0  0
  4 18  1  0  0  0
  5 18  1  0  0  0
  6  7  1  0  0  0
  8  9  1  0  0  0
  8 19  1  0  0  0
 10  5  1  0  0  0
 11 20  1  0  0  0
 11  7  1  0  0  0
 13 21  1  0  0  0
 13 14  1  0  0  0
 15 22  1  0  0  0
 15 16  1  0  0  0
 23 17  1  0  0  0
 23  3  1  0  0  0
 23 21  1  0  0  0
 23 22  1  0  0  0
 24 19  1  0  0  0
 24 20  1  0  0  0
 24 12  1  0  0  0
  5  6  2  0  0  0
  7  8  2  0  0  0
  9 10  2  0  0  0
M  END
> <rmsd>
0.553100228

$$$$
PubChem-129578870 585275140 ZINC000585275140


 34 37  0  0  0  0  0  0  0  0999 V2000
    1.3514   25.7126   65.1190 C   0  0  0  0  0
    1.9414   27.4148   63.3812 C   0  0  0  0  0
    1.4268   28.3259   62.4517 C   0  0  0  0  0
    2.2743   29.1154   61.6704 C   0  0  0  0  0
    1.6989   30.0898   60.6789 C   0  0  0  0  0
    0.4934   28.4371   59.4116 C   0  0  0  0  0
    0.1972   27.8216   58.0394 C   0  0  0  0  0
    1.7152   28.4453   56.5450 C   0  0  0  0  0
    2.7860   29.2873   57.2525 C   0  0  0  0  0
    2.6003   30.7717   56.9422 C   0  0  0  0  0
    3.7020   31.8601   55.0114 C   0  0  0  0  0
    3.7535   32.0468   53.6259 C   0  0  0  0  0
    4.7212   32.8837   53.0617 C   0  0  0  0  0
    5.6438   33.5387   53.8825 C   0  0  0  0  0
    5.5990   33.3572   55.2675 C   0  0  0  0  0
    4.6317   32.5208   55.8316 C   0  0  0  0  0
    2.7419   29.0610   58.7682 C   0  0  0  0  0
    3.6571   29.0037   61.8205 C   0  0  0  0  0
    4.1886   28.1007   62.7410 C   0  0  0  0  0
    3.3466   27.2966   63.5282 C   0  0  0  0  0
    5.2936   26.2470   64.6506 C   0  0  0  0  0
    5.5493   25.2058   65.7279 C   0  0  0  0  0
    5.4316   26.7022   67.7277 C   0  0  0  0  0
    4.6598   26.7359   68.8731 C   0  0  0  0  0
    4.0278   25.0568   67.6936 C   0  0  0  0  0
    1.0141   26.6652   64.1207 O   0  0  0  0  0
    0.4283   28.7457   57.0138 O   0  0  0  0  0
    4.0392   28.8839   56.7913 O   0  0  0  0  0
    2.7245   31.0160   55.5450 O   0  0  0  0  0
    3.8938   26.3919   64.4441 O   0  0  0  0  0
    1.4747   29.5261   59.3406 N   0  0  0  0  0
    5.0150   25.6497   67.0061 N   0  0  0  0  0
    3.7853   25.7072   68.8475 N   0  0  0  0  0
    6.4928   33.9918   56.0630 F   0  0  0  0  0
  1 26  1  0  0  0
  2 26  1  0  0  0
  3  4  1  0  0  0
  5  4  1  0  0  0
  5 31  1  0  0  0
  6 31  1  0  0  0
  6  7  1  0  0  0
  7 27  1  0  0  0
  8 27  1  0  0  0
  8  9  1  0  0  0
  9 28  1  0  0  0
  9 10  1  0  0  0
  9 17  1  0  0  0
 10 29  1  0  0  0
 11 29  1  0  0  0
 12 13  1  0  0  0
 14 15  1  0  0  0
 15 34  1  0  0  0
 16 11  1  0  0  0
 17 31  1  0  0  0
 18 19  1  0  0  0
 20 30  1  0  0  0
 20  2  1  0  0  0
 21 30  1  0  0  0
 21 22  1  0  0  0
 22 32  1  0  0  0
 24 33  1  0  0  0
 25 32  1  0  0  0
 32 23  1  0  0  0
  2  3  2  0  0  0
  4 18  2  0  0  0
 11 12  2  0  0  0
 13 14  2  0  0  0
 15 16  2  0  0  0
 19 20  2  0  0  0
 23 24  2  0  0  0
 25 33  2  0  0  0
M  END
> <rmsd>
0.441366673

$$$$
PubChem-59993661


 32 34  0  0  0  0  0  0  0  0999 V2000
   -1.4852   26.7556   62.6006 C   0  0  0  0  0
   -0.2183   26.1886   62.0528 C   0  0  0  0  0
    0.9008   26.0265   62.7991 C   0  0  0  0  0
    2.2716   25.1116   60.7689 C   0  0  0  0  0
    3.7006   25.3345   60.8177 C   0  0  0  0  0
    3.5422   25.6556   62.2746 C   0  0  0  0  0
    3.9097   27.8841   60.2657 C   0  0  0  0  0
    4.3133   28.8792   59.2353 C   0  0  0  0  0
    3.3681   28.8061   58.0452 C   0  0  0  0  0
    2.2257   29.8269   58.1640 C   0  0  0  0  0
    1.2738   29.6586   56.9731 C   0  0  0  0  0
    2.0547   29.6499   55.6538 C   0  0  0  0  0
    3.2960   28.7408   55.7367 C   0  0  0  0  0
    2.9638   27.2525   55.6262 C   0  0  0  0  0
    1.5874   25.8670   54.6019 C   0  0  0  0  0
    1.7885   31.2293   54.1273 C   0  0  0  0  0
   -0.7990   28.8866   57.1101 C   0  0  0  0  0
    1.5113   30.9330   59.9459 C   0  0  0  0  0
   -0.2659   25.7351   60.6128 C   0  0  0  0  0
    0.9968   26.3988   64.2344 C   0  0  0  0  0
    2.0710   25.5489   62.1276 N   0  0  0  0  0
    4.1700   26.4894   60.0364 N   0  0  0  0  0
    4.3304   25.9499   63.2104 O   0  0  0  0  0
    3.3110   28.2767   61.3020 O   0  0  0  0  0
    4.1040   29.0345   56.8622 O   0  0  0  0  0
    2.3960   26.9808   54.3814 O   0  0  0  0  0
    2.4454   30.9508   55.3264 O   0  0  0  0  0
    0.5345   28.4769   57.0939 O   0  0  0  0  0
    1.5234   29.6648   59.3632 O   0  0  0  0  0
    2.0188   26.0783   64.8957 O   0  0  0  0  0
   -0.0178   27.0966   64.8792 O   0  0  0  0  0
    1.2484   26.1554   59.6709 S   0  0  0  0  0
  1  2  1  0  0  0
  3 21  1  0  0  0
  3 20  1  0  0  0
  4 21  1  0  0  0
  4  5  1  0  0  0
  4 32  1  0  0  0
  5  6  1  0  0  0
  5 22  1  0  0  0
  6 21  1  0  0  0
  8  7  1  0  0  0
  9  8  1  0  0  0
  9 10  1  0  0  0
  9 25  1  0  0  0
 10 11  1  0  0  0
 10 29  1  0  0  0
 11 12  1  0  0  0
 11 28  1  0  0  0
 12 13  1  0  0  0
 12 27  1  0  0  0
 13 25  1  0  0  0
 13 14  1  0  0  0
 14 26  1  0  0  0
 15 26  1  0  0  0
 16 27  1  0  0  0
 17 28  1  0  0  0
 18 29  1  0  0  0
 19 32  1  0  0  0
 19  2  1  0  0  0
 20 31  1  0  0  0
 22  7  1  0  0  0
  2  3  2  0  0  0
  6 23  2  0  0  0
  7 24  2  0  0  0
 20 30  2  0  0  0
M  END
> <rmsd>
0.581112742

$$$$
PubChem-129576407 585272346 ZINC000585272346


 35 38  0  0  0  0  0  0  0  0999 V2000
    5.1790   25.9543   64.3260 C   0  0  0  0  0
    3.2719   27.2121   63.3615 C   0  0  0  0  0
    4.1414   28.0338   62.6237 C   0  0  0  0  0
    3.6433   29.0402   61.7966 C   0  0  0  0  0
    2.2663   29.2397   61.6910 C   0  0  0  0  0
    1.7264   30.3275   60.8020 C   0  0  0  0  0
    0.4414   28.8403   59.4161 C   0  0  0  0  0
   -0.1951   28.7149   58.0334 C   0  0  0  0  0
    1.3464   29.4578   56.6129 C   0  0  0  0  0
    2.7025   29.7138   57.2869 C   0  0  0  0  0
    3.0947   31.1741   57.0984 C   0  0  0  0  0
    2.4621   32.4557   55.0776 C   0  0  0  0  0
    2.6688   32.7015   53.7158 C   0  0  0  0  0
    1.9030   33.6618   53.0479 C   0  0  0  0  0
    0.9250   34.3818   53.7398 C   0  0  0  0  0
    0.7123   34.1419   55.1001 C   0  0  0  0  0
    1.4776   33.1819   55.7681 C   0  0  0  0  0
    2.6716   29.4070   58.7899 C   0  0  0  0  0
    1.3916   28.4326   62.4229 C   0  0  0  0  0
    1.8728   27.4185   63.2589 C   0  0  0  0  0
    1.2239   25.6119   64.8628 C   0  0  0  0  0
   -0.0643   25.0165   65.3985 C   0  0  0  0  0
    0.8105   22.7716   66.0651 C   0  0  0  0  0
    0.8689   22.0504   67.2466 C   0  0  0  0  0
   -0.0573   23.9273   67.6567 C   0  0  0  0  0
   -0.7229   25.0397   68.3921 C   0  0  0  0  0
    3.7866   26.2039   64.1848 O   0  0  0  0  0
    0.7539   28.2843   57.0966 O   0  0  0  0  0
    3.6672   28.8999   56.6919 O   0  0  0  0  0
    3.2407   31.4871   55.7167 O   0  0  0  0  0
    0.9194   26.6580   63.9521 O   0  0  0  0  0
    1.4475   29.9033   59.4223 N   0  0  0  0  0
    0.2300   23.9504   66.3454 N   0  0  0  0  0
    0.3222   22.7794   68.2449 N   0  0  0  0  0
   -0.2366   34.8379   55.7706 F   0  0  0  0  0
  1 27  1  0  0  0
  2 27  1  0  0  0
  3  4  1  0  0  0
  5 19  1  0  0  0
  6  5  1  0  0  0
  6 32  1  0  0  0
  7 32  1  0  0  0
  7  8  1  0  0  0
  8 28  1  0  0  0
  9 28  1  0  0  0
  9 10  1  0  0  0
 10 29  1  0  0  0
 10 11  1  0  0  0
 10 18  1  0  0  0
 11 30  1  0  0  0
 12 30  1  0  0  0
 13 14  1  0  0  0
 15 16  1  0  0  0
 16 35  1  0  0  0
 17 12  1  0  0  0
 18 32  1  0  0  0
 20 31  1  0  0  0
 20  2  1  0  0  0
 21 31  1  0  0  0
 21 22  1  0  0  0
 22 33  1  0  0  0
 24 34  1  0  0  0
 25 33  1  0  0  0
 26 25  1  0  0  0
 33 23  1  0  0  0
  2  3  2  0  0  0
  4  5  2  0  0  0
 12 13  2  0  0  0
 14 15  2  0  0  0
 16 17  2  0  0  0
 19 20  2  0  0  0
 23 24  2  0  0  0
 25 34  2  0  0  0
M  END
> <rmsd>
0.418004543

$$$$
PubChem-154056903


 24 25  0  0  0  0  0  0  0  0999 V2000
   -0.8486   28.9098   61.4014 C   0  0  0  0  0
    0.2145   29.6329   61.9452 C   0  0  0  0  0
    1.1809   30.1696   61.0917 C   0  0  0  0  0
    0.0532   29.2817   59.1981 C   0  0  0  0  0
   -0.9340   28.7319   60.0192 C   0  0  0  0  0
   -0.0274   29.1013   57.7197 C   0  0  0  0  0
    0.7839   26.9809   57.1317 C   0  0  0  0  0
    1.9062   26.1133   57.6861 C   0  0  0  0  0
    2.0236   26.2755   59.1649 C   0  0  0  0  0
    1.0254   25.7829   60.0143 C   0  0  0  0  0
    1.1342   25.9582   61.3965 C   0  0  0  0  0
    2.2395   26.6271   61.9339 C   0  0  0  0  0
    3.2430   27.1068   61.0854 C   0  0  0  0  0
    3.1354   26.9307   59.7033 C   0  0  0  0  0
    1.4036   28.8614   55.8887 C   0  0  0  0  0
    2.6944   29.6030   55.8548 C   0  0  0  0  0
    1.0808   29.9864   59.7473 N   0  0  0  0  0
    1.1451   28.3875   57.2380 N   0  0  0  0  0
    3.0330   28.4274   63.9872 N   0  0  0  0  0
    2.3706   26.8640   63.6662 S   0  0  0  0  0
    1.0090   26.7762   64.2972 O   0  0  0  0  0
    3.2634   25.8074   64.2530 O   0  0  0  0  0
    2.7114   30.8199   55.5356 O   0  0  0  0  0
    3.8806   28.9520   56.1680 O   0  0  0  0  0
  2  3  1  0  0  0
  4 17  1  0  0  0
  5  1  1  0  0  0
  6  4  1  0  0  0
  6 18  1  0  0  0
  7 18  1  0  0  0
  7  8  1  0  0  0
  8  9  1  0  0  0
 10 11  1  0  0  0
 12 13  1  0  0  0
 14  9  1  0  0  0
 15 18  1  0  0  0
 15 16  1  0  0  0
 16 24  1  0  0  0
 20 12  1  0  0  0
 20 19  1  0  0  0
  1  2  2  0  0  0
  3 17  2  0  0  0
  4  5  2  0  0  0
  9 10  2  0  0  0
 11 12  2  0  0  0
 13 14  2  0  0  0
 16 23  2  0  0  0
 20 21  2  0  0  0
 20 22  2  0  0  0
M  CHG  1  24  -1
M  END
> <rmsd>
0.534053624

$$$$
PubChem-146072367 MCULE-6976603523 MolPort-047-141-739


 32 35  0  0  0  0  0  0  0  0999 V2000
   -5.4664   30.4481   53.0377 C   0  0  0  0  0
   -4.4643   29.6237   52.2530 C   0  0  0  0  0
   -5.0033   29.3390   50.8642 C   0  0  0  0  0
   -4.1550   28.3446   52.9719 C   0  0  0  0  0
   -2.5374   26.7970   54.1053 C   0  0  0  0  0
   -1.0380   26.6167   54.3518 C   0  0  0  0  0
   -0.4107   27.8550   55.0057 C   0  0  0  0  0
    1.0902   27.7745   54.8915 C   0  0  0  0  0
    1.6291   28.0471   56.2838 C   0  0  0  0  0
    0.6740   27.5519   58.3738 C   0  0  0  0  0
    1.2328   28.3667   59.4993 C   0  0  0  0  0
    2.0446   28.4528   61.8833 C   0  0  0  0  0
    2.2121   27.5257   63.0344 C   0  0  0  0  0
    1.2967   26.4223   64.9194 C   0  0  0  0  0
    2.5126   25.7677   65.1263 C   0  0  0  0  0
    3.4257   26.8647   63.2361 C   0  0  0  0  0
   -0.6824   27.8513   56.4941 C   0  0  0  0  0
    2.5796   29.1968   56.2507 C   0  0  0  0  0
    4.2817   30.3776   56.4242 C   0  0  0  0  0
    5.6688   30.8418   56.6887 C   0  0  0  0  0
   -0.8932   29.1870   54.4032 C   0  0  0  0  0
   -1.7333   29.0008   53.1424 C   0  0  0  0  0
   -5.0825   27.5172   53.1928 O   0  0  0  0  0
    1.4666   29.5979   59.3524 O   0  0  0  0  0
    2.2640   30.4104   55.8691 O   0  0  0  0  0
   -2.8185   28.0575   53.4114 N   0  0  0  0  0
    0.5072   28.3512   57.1673 N   0  0  0  0  0
    1.4970   27.7284   60.7476 N   0  0  0  0  0
    1.1717   27.2849   63.8761 N   0  0  0  0  0
    3.5500   26.0023   64.2795 N   0  0  0  0  0
    3.8704   29.1092   56.6230 N   0  0  0  0  0
    3.3044   31.1802   55.9629 N   0  0  0  0  0
  1  2  1  0  0  0
  2  3  1  0  0  0
  2  4  1  0  0  0
  4 26  1  0  0  0
  5 26  1  0  0  0
  5  6  1  0  0  0
  6  7  1  0  0  0
  7  8  1  0  0  0
  7 21  1  0  0  0
  8  9  1  0  0  0
  9 27  1  0  0  0
  9 18  1  0  0  0
 10 27  1  0  0  0
 10 11  1  0  0  0
 11 28  1  0  0  0
 12 28  1  0  0  0
 12 13  1  0  0  0
 14 29  1  0  0  0
 15 30  1  0  0  0
 16 13  1  0  0  0
 17 27  1  0  0  0
 17  7  1  0  0  0
 18 25  1  0  0  0
 19 31  1  0  0  0
 20 19  1  0  0  0
 21 22  1  0  0  0
 22 26  1  0  0  0
 32 25  1  0  0  0
  4 23  2  0  0  0
 11 24  2  0  0  0
 13 29  2  0  0  0
 14 15  2  0  0  0
 16 30  2  0  0  0
 18 31  2  0  0  0
 19 32  2  0  0  0
M  END
> <rmsd>
0.585741699

$$$$
PubChem-129578590 585274860 ZINC000585274860


 35 38  0  0  0  0  0  0  0  0999 V2000
   -0.4115   26.7211   63.9061 C   0  0  0  0  0
    1.8670   27.4280   63.2442 C   0  0  0  0  0
    1.3716   28.4413   62.4070 C   0  0  0  0  0
    2.2467   29.2606   61.6874 C   0  0  0  0  0
    1.7058   30.3448   60.7946 C   0  0  0  0  0
    0.4264   28.8560   59.4062 C   0  0  0  0  0
   -0.2033   28.7277   58.0205 C   0  0  0  0  0
    1.3484   29.4621   56.6061 C   0  0  0  0  0
    2.7014   29.7145   57.2867 C   0  0  0  0  0
    3.1018   31.1715   57.0917 C   0  0  0  0  0
    4.4866   31.9121   55.1782 C   0  0  0  0  0
    5.6242   32.0842   55.9843 C   0  0  0  0  0
    6.8256   32.5252   55.4222 C   0  0  0  0  0
    6.8979   32.7964   54.0531 C   0  0  0  0  0
    5.7692   32.6267   53.2464 C   0  0  0  0  0
    4.5673   32.1856   53.8085 C   0  0  0  0  0
    2.6613   29.4157   58.7911 C   0  0  0  0  0
    3.6264   29.0749   61.8080 C   0  0  0  0  0
    4.1274   28.0705   62.6383 C   0  0  0  0  0
    3.2531   27.2417   63.3607 C   0  0  0  0  0
    5.1239   26.0096   64.4437 C   0  0  0  0  0
    5.6734   27.0730   65.3863 C   0  0  0  0  0
    5.0720   26.0030   67.5536 C   0  0  0  0  0
    4.2950   26.3767   68.6276 C   0  0  0  0  0
    4.0611   25.5819   69.8612 C   0  0  0  0  0
    3.7762   27.6260   68.3510 C   0  0  0  0  0
    1.0030   26.5991   63.9681 O   0  0  0  0  0
    0.7493   28.2919   57.0898 O   0  0  0  0  0
    3.6652   28.8919   56.7020 O   0  0  0  0  0
    3.2721   31.4706   55.7098 O   0  0  0  0  0
    3.7378   26.2277   64.1965 O   0  0  0  0  0
    1.4346   29.9171   59.4143 N   0  0  0  0  0
    4.9968   27.0170   66.6728 N   0  0  0  0  0
    4.2320   27.9915   67.1370 N   0  0  0  0  0
    8.0619   33.2236   53.5080 F   0  0  0  0  0
  1 27  1  0  0  0
  2 27  1  0  0  0
  3  4  1  0  0  0
  5  4  1  0  0  0
  5 32  1  0  0  0
  6 32  1  0  0  0
  6  7  1  0  0  0
  7 28  1  0  0  0
  8 28  1  0  0  0
  8  9  1  0  0  0
  9 29  1  0  0  0
  9 10  1  0  0  0
  9 17  1  0  0  0
 10 30  1  0  0  0
 11 30  1  0  0  0
 12 13  1  0  0  0
 14 35  1  0  0  0
 14 15  1  0  0  0
 16 11  1  0  0  0
 17 32  1  0  0  0
 18 19  1  0  0  0
 20 31  1  0  0  0
 20  2  1  0  0  0
 21 31  1  0  0  0
 21 22  1  0  0  0
 22 33  1  0  0  0
 24 26  1  0  0  0
 25 24  1  0  0  0
 33 23  1  0  0  0
 33 34  1  0  0  0
  2  3  2  0  0  0
  4 18  2  0  0  0
 11 12  2  0  0  0
 13 14  2  0  0  0
 15 16  2  0  0  0
 19 20  2  0  0  0
 23 24  2  0  0  0
 26 34  2  0  0  0
M  END
> <rmsd>
0.4437702

$$$$
PubChem-129578208 585274478 ZINC000585274478


 34 37  0  0  0  0  0  0  0  0999 V2000
   -0.4086   26.7161   63.9014 C   0  0  0  0  0
    1.8688   27.4281   63.2414 C   0  0  0  0  0
    1.3717   28.4416   62.4054 C   0  0  0  0  0
    2.2451   29.2628   61.6862 C   0  0  0  0  0
    1.7024   30.3461   60.7934 C   0  0  0  0  0
    0.4243   28.8572   59.4043 C   0  0  0  0  0
   -0.2042   28.7287   58.0181 C   0  0  0  0  0
    1.3491   29.4620   56.6050 C   0  0  0  0  0
    2.7017   29.7137   57.2867 C   0  0  0  0  0
    3.1034   31.1701   57.0913 C   0  0  0  0  0
    4.4911   31.9086   55.1789 C   0  0  0  0  0
    5.6276   32.0811   55.9865 C   0  0  0  0  0
    6.8300   32.5211   55.4256 C   0  0  0  0  0
    6.9043   32.7909   54.0563 C   0  0  0  0  0
    8.1823   33.2586   53.4595 C   0  0  0  0  0
    5.7766   32.6208   53.2483 C   0  0  0  0  0
    4.5738   32.1808   53.8090 C   0  0  0  0  0
    2.6598   29.4158   58.7911 C   0  0  0  0  0
    3.6252   29.0801   61.8071 C   0  0  0  0  0
    4.1281   28.0757   62.6361 C   0  0  0  0  0
    3.2554   27.2425   63.3557 C   0  0  0  0  0
    5.1277   25.9309   64.3304 C   0  0  0  0  0
    5.6142   25.1364   63.1286 C   0  0  0  0  0
    7.6171   24.0828   64.1674 C   0  0  0  0  0
    8.9774   24.0723   63.9148 C   0  0  0  0  0
    9.1429   24.8844   62.8019 C   0  0  0  0  0
    1.0061   26.5968   63.9640 O   0  0  0  0  0
    0.7489   28.2922   57.0883 O   0  0  0  0  0
    3.6654   28.8899   56.7033 O   0  0  0  0  0
    3.2756   31.4683   55.7094 O   0  0  0  0  0
    3.7430   26.2297   64.1917 O   0  0  0  0  0
    1.4327   29.9180   59.4130 N   0  0  0  0  0
    7.0381   24.8687   63.2450 N   0  0  0  0  0
    7.9419   25.3522   62.4151 N   0  0  0  0  0
  1 27  1  0  0  0
  2 27  1  0  0  0
  3  4  1  0  0  0
  5  4  1  0  0  0
  5 32  1  0  0  0
  6 32  1  0  0  0
  6  7  1  0  0  0
  7 28  1  0  0  0
  8 28  1  0  0  0
  8  9  1  0  0  0
  9 29  1  0  0  0
  9 10  1  0  0  0
  9 18  1  0  0  0
 10 30  1  0  0  0
 11 30  1  0  0  0
 12 13  1  0  0  0
 14 16  1  0  0  0
 15 14  1  0  0  0
 17 11  1  0  0  0
 18 32  1  0  0  0
 19 20  1  0  0  0
 21 31  1  0  0  0
 21  2  1  0  0  0
 22 31  1  0  0  0
 22 23  1  0  0  0
 23 33  1  0  0  0
 25 26  1  0  0  0
 33 24  1  0  0  0
 33 34  1  0  0  0
  2  3  2  0  0  0
  4 19  2  0  0  0
 11 12  2  0  0  0
 13 14  2  0  0  0
 16 17  2  0  0  0
 20 21  2  0  0  0
 24 25  2  0  0  0
 26 34  2  0  0  0
M  END
> <rmsd>
0.444412977

$$$$
PubChem-51361716 CHEMBL2140933


 31 34  0  0  0  0  0  0  0  0999 V2000
    0.6722   28.5364   56.8219 O   0  0  0  0  0
    2.5913   30.9394   55.6086 O   0  0  0  0  0
    4.1307   28.9401   56.2196 O   0  0  0  0  0
    3.8658   26.2782   59.4268 O   0  0  0  0  0
    3.4606   26.2680   64.5265 O   0  0  0  0  0
    0.7436   26.4791   65.0233 O   0  0  0  0  0
    0.7968   29.9404   56.7979 C   0  0  0  0  0
    0.3279   30.4259   59.2350 C   0  0  0  0  0
    1.4317   29.8429   61.2053 C   0  0  0  0  0
   -0.5237   31.2053   61.3047 C   0  0  0  0  0
   -0.5939   31.1345   59.9207 C   0  0  0  0  0
   -1.0243   31.3149   57.8488 C   0  0  0  0  0
    2.2632   30.3385   56.8271 C   0  0  0  0  0
    2.9745   29.0222   57.0002 C   0  0  0  0  0
    1.9478   28.0239   56.5331 C   0  0  0  0  0
    2.1531   26.6633   57.1894 C   0  0  0  0  0
    2.6397   26.4601   59.6623 C   0  0  0  0  0
    2.1437   26.4508   61.0489 C   0  0  0  0  0
    3.0379   26.3543   62.1225 C   0  0  0  0  0
    2.5740   26.3623   63.4483 C   0  0  0  0  0
    4.8676   26.1601   64.3582 C   0  0  0  0  0
    1.1976   26.4682   63.7000 C   0  0  0  0  0
   -0.6318   26.5880   65.3640 C   0  0  0  0  0
    0.3016   26.5610   62.6231 C   0  0  0  0  0
    0.7716   26.5521   61.3089 C   0  0  0  0  0
    0.0779   30.5274   57.9233 N   0  0  0  0  0
    1.3512   29.7760   59.8414 N   0  0  0  0  0
    0.5008   30.5489   61.9251 N   0  0  0  0  0
   -1.4769   31.9443   62.0603 N   0  0  0  0  0
   -1.4688   31.7110   59.0757 N   0  0  0  0  0
    1.7313   26.6883   58.5827 N   0  0  0  0  0
  7  1  1  0  0  0
  7 26  1  0  0  0
  7 13  1  0  0  0
  9 27  1  0  0  0
 10 28  1  0  0  0
 10 29  1  0  0  0
 11 30  1  0  0  0
 11  8  1  0  0  0
 12 26  1  0  0  0
 13  2  1  0  0  0
 13 14  1  0  0  0
 14  3  1  0  0  0
 14 15  1  0  0  0
 15 16  1  0  0  0
 15  1  1  0  0  0
 16 31  1  0  0  0
 17 18  1  0  0  0
 19 20  1  0  0  0
 20  5  1  0  0  0
 21  5  1  0  0  0
 22  6  1  0  0  0
 22 24  1  0  0  0
 23  6  1  0  0  0
 25 18  1  0  0  0
 26  8  1  0  0  0
 31 17  1  0  0  0
  8 27  2  0  0  0
  9 28  2  0  0  0
 10 11  2  0  0  0
 12 30  2  0  0  0
 17  4  2  0  0  0
 18 19  2  0  0  0
 20 22  2  0  0  0
 24 25  2  0  0  0
M  END
> <rmsd>
0.533905625

$$$$
PubChem-129578676 585274946 ZINC000585274946


 35 38  0  0  0  0  0  0  0  0999 V2000
   -0.4705   26.7366   63.8375 C   0  0  0  0  0
    1.8378   27.4183   63.2420 C   0  0  0  0  0
    1.3583   28.4380   62.4023 C   0  0  0  0  0
    2.2397   29.2551   61.6906 C   0  0  0  0  0
    1.7087   30.3435   60.7969 C   0  0  0  0  0
    0.4178   28.8667   59.4062 C   0  0  0  0  0
   -0.2088   28.7425   58.0189 C   0  0  0  0  0
    1.3518   29.4619   56.6072 C   0  0  0  0  0
    2.7049   29.7070   57.2912 C   0  0  0  0  0
    3.1128   31.1627   57.1013 C   0  0  0  0  0
    2.5141   32.4442   55.0699 C   0  0  0  0  0
    1.5294   33.1824   55.7475 C   0  0  0  0  0
    0.7818   34.1490   55.0686 C   0  0  0  0  0
    1.0129   34.3835   53.7105 C   0  0  0  0  0
    1.9913   33.6518   53.0314 C   0  0  0  0  0
    2.7391   32.6849   53.7102 C   0  0  0  0  0
    2.6591   29.4053   58.7948 C   0  0  0  0  0
    3.6158   29.0605   61.8158 C   0  0  0  0  0
    4.1070   28.0547   62.6489 C   0  0  0  0  0
    3.2369   27.2313   63.3726 C   0  0  0  0  0
    3.1179   25.4758   65.1581 C   0  0  0  0  0
    2.8777   26.3049   66.4098 C   0  0  0  0  0
    0.7876   25.1981   67.1849 C   0  0  0  0  0
    0.4185   24.5368   68.3351 C   0  0  0  0  0
   -0.9152   23.9459   68.6188 C   0  0  0  0  0
    1.5116   24.5284   69.1786 C   0  0  0  0  0
    0.9406   26.5915   63.9277 O   0  0  0  0  0
    0.7428   28.2973   57.0917 O   0  0  0  0  0
    3.6662   28.8817   56.7065 O   0  0  0  0  0
    3.2757   31.4693   55.7200 O   0  0  0  0  0
    3.8170   26.2480   64.1899 O   0  0  0  0  0
    1.4361   29.9181   59.4163 N   0  0  0  0  0
    2.0721   25.5570   67.3608 N   0  0  0  0  0
    2.5138   25.1695   68.5461 N   0  0  0  0  0
    2.2145   33.8789   51.7149 F   0  0  0  0  0
  1 27  1  0  0  0
  2 27  1  0  0  0
  3  4  1  0  0  0
  5  4  1  0  0  0
  5 32  1  0  0  0
  6 32  1  0  0  0
  6  7  1  0  0  0
  7 28  1  0  0  0
  8 28  1  0  0  0
  8  9  1  0  0  0
  9 29  1  0  0  0
  9 10  1  0  0  0
  9 17  1  0  0  0
 10 30  1  0  0  0
 11 30  1  0  0  0
 12 13  1  0  0  0
 14 15  1  0  0  0
 15 35  1  0  0  0
 16 11  1  0  0  0
 17 32  1  0  0  0
 18 19  1  0  0  0
 20 31  1  0  0  0
 20  2  1  0  0  0
 21 31  1  0  0  0
 21 22  1  0  0  0
 22 33  1  0  0  0
 24 26  1  0  0  0
 25 24  1  0  0  0
 33 23  1  0  0  0
 33 34  1  0  0  0
  2  3  2  0  0  0
  4 18  2  0  0  0
 11 12  2  0  0  0
 13 14  2  0  0  0
 15 16  2  0  0  0
 19 20  2  0  0  0
 23 24  2  0  0  0
 26 34  2  0  0  0
M  END
> <rmsd>
0.430324316

$$$$
PubChem-164816440


 23 24  0  0  0  0  0  0  0  0999 V2000
    1.4726   27.5998   57.5090 C   0  0  0  0  0
    2.4453   30.9762   58.0802 C   0  0  0  0  0
    2.6385   30.2395   59.3915 C   0  0  0  0  0
    1.2779   28.9288   60.9878 C   0  0  0  0  0
    2.3870   28.6430   61.7997 C   0  0  0  0  0
    2.2392   27.8571   62.9451 C   0  0  0  0  0
    0.9653   27.3648   63.3015 C   0  0  0  0  0
   -0.1383   27.6611   62.4969 C   0  0  0  0  0
    0.0184   28.4370   61.3450 C   0  0  0  0  0
    3.4170   27.6456   63.8612 C   0  0  0  0  0
    2.0265   24.1683   65.6357 C   0  0  0  0  0
    2.3336   26.9011   66.9273 C   0  0  0  0  0
    2.3982   28.2285   66.9555 C   0  0  0  0  0
    0.9284   31.2907   55.2686 C   0  0  0  0  0
    4.8299   29.7965   56.2804 C   0  0  0  0  0
    1.0062   28.7216   56.8220 O   0  0  0  0  0
    1.3985   29.6983   59.8282 O   0  0  0  0  0
    0.7901   26.5681   64.4374 O   0  0  0  0  0
    3.5345   26.3120   64.2974 O   0  0  0  0  0
    2.1728   30.6672   55.1704 O   0  0  0  0  0
    3.8248   28.8663   56.5476 O   0  0  0  0  0
    2.3612   29.7763   56.6334 Si  0  0  0  0  0
    2.1786   26.0017   65.3223 Si  0  0  0  0  0
  1 16  1  0  0  0
  2  3  1  0  0  0
  3 17  1  0  0  0
  4 17  1  0  0  0
  5  6  1  0  0  0
  7  8  1  0  0  0
  7 18  1  0  0  0
  9  4  1  0  0  0
 10 19  1  0  0  0
 10  6  1  0  0  0
 14 20  1  0  0  0
 15 21  1  0  0  0
 22 16  1  0  0  0
 22  2  1  0  0  0
 22 20  1  0  0  0
 22 21  1  0  0  0
 23 18  1  0  0  0
 23 19  1  0  0  0
 23 11  1  0  0  0
 23 12  1  0  0  0
  4  5  2  0  0  0
  6  7  2  0  0  0
  8  9  2  0  0  0
 12 13  2  0  0  0
M  END
> <rmsd>
0.546001971

$$$$
PubChem-164815766


 29 31  0  0  0  0  0  0  0  0999 V2000
    2.1730   29.7373   54.1679 C   0  0  0  0  0
    2.4876   31.0051   58.0750 C   0  0  0  0  0
    2.6527   30.2870   59.4017 C   0  0  0  0  0
    1.2981   28.8892   60.9281 C   0  0  0  0  0
    2.3808   28.6707   61.7947 C   0  0  0  0  0
    2.2246   27.8749   62.9321 C   0  0  0  0  0
    0.9673   27.3045   63.2250 C   0  0  0  0  0
   -0.1107   27.5335   62.3658 C   0  0  0  0  0
    0.0551   28.3198   61.2223 C   0  0  0  0  0
    3.3663   27.7333   63.9054 C   0  0  0  0  0
    2.0960   24.1870   65.6445 C   0  0  0  0  0
    3.2988   23.7743   66.4206 C   0  0  0  0  0
    3.1585   23.2174   67.6194 C   0  0  0  0  0
    2.1698   26.9564   66.9030 C   0  0  0  0  0
    3.2643   27.7576   67.2450 C   0  0  0  0  0
    3.2695   28.4556   68.4564 C   0  0  0  0  0
    2.1809   28.3516   69.3277 C   0  0  0  0  0
    1.0874   27.5490   68.9878 C   0  0  0  0  0
    1.0824   26.8513   67.7762 C   0  0  0  0  0
    3.6693   27.8376   57.5071 C   0  0  0  0  0
   -0.1236   29.5959   56.8290 C   0  0  0  0  0
    2.1854   30.6869   55.1901 O   0  0  0  0  0
    1.4288   29.6671   59.7755 O   0  0  0  0  0
    0.7851   26.4965   64.3516 O   0  0  0  0  0
    3.5406   26.4085   64.3497 O   0  0  0  0  0
    3.8062   28.8534   56.5601 O   0  0  0  0  0
    0.9902   28.7559   56.8631 O   0  0  0  0  0
    2.3579   29.7872   56.6483 Si  0  0  0  0  0
    2.1582   26.0248   65.3121 Si  0  0  0  0  0
  1 22  1  0  0  0
  2  3  1  0  0  0
  3 23  1  0  0  0
  4 23  1  0  0  0
  5  6  1  0  0  0
  7  8  1  0  0  0
  7 24  1  0  0  0
  9  4  1  0  0  0
 10 25  1  0  0  0
 10  6  1  0  0  0
 11 12  1  0  0  0
 15 16  1  0  0  0
 17 18  1  0  0  0
 19 14  1  0  0  0
 20 26  1  0  0  0
 21 27  1  0  0  0
 28 22  1  0  0  0
 28  2  1  0  0  0
 28 26  1  0  0  0
 28 27  1  0  0  0
 29 24  1  0  0  0
 29 25  1  0  0  0
 29 11  1  0  0  0
 29 14  1  0  0  0
  4  5  2  0  0  0
  6  7  2  0  0  0
  8  9  2  0  0  0
 12 13  2  0  0  0
 14 15  2  0  0  0
 16 17  2  0  0  0
 18 19  2  0  0  0
M  END
> <rmsd>
0.549452484

$$$$
PubChem-65067462


 19 20  0  0  0  0  0  0  0  0999 V2000
   -0.6546   26.8767   64.2350 C   0  0  0  0  0
    1.6535   27.4376   63.5388 C   0  0  0  0  0
    3.0307   27.2121   63.6820 C   0  0  0  0  0
    3.9453   27.9292   62.9044 C   0  0  0  0  0
    3.4925   28.8762   61.9823 C   0  0  0  0  0
    2.1225   29.1129   61.8388 C   0  0  0  0  0
    1.2059   28.3916   62.6096 C   0  0  0  0  0
    1.6379   30.1041   60.8374 C   0  0  0  0  0
    0.0354   29.2517   59.3439 C   0  0  0  0  0
   -0.2739   28.8922   57.8808 C   0  0  0  0  0
    1.5680   29.9580   57.1196 C   0  0  0  0  0
    1.9770   30.4000   58.5368 C   0  0  0  0  0
    2.7643   29.8889   56.2317 C   0  0  0  0  0
    0.7536   26.7076   64.3227 O   0  0  0  0  0
    0.9108   28.7120   57.1420 O   0  0  0  0  0
    3.6948   29.0755   56.4749 O   0  0  0  0  0
    2.8487   30.7231   55.1256 O   0  0  0  0  0
    3.4957   26.2742   64.5955 O   0  0  0  0  0
    1.4728   29.4630   59.5433 N   0  0  0  0  0
  1 14  1  0  0  0
  2 14  1  0  0  0
  3  4  1  0  0  0
  3 18  1  0  0  0
  5  6  1  0  0  0
  7  2  1  0  0  0
  8  6  1  0  0  0
  8 19  1  0  0  0
  9 19  1  0  0  0
  9 10  1  0  0  0
 10 15  1  0  0  0
 11 15  1  0  0  0
 11 12  1  0  0  0
 11 13  1  0  0  0
 12 19  1  0  0  0
 13 17  1  0  0  0
  2  3  2  0  0  0
  4  5  2  0  0  0
  6  7  2  0  0  0
 13 16  2  0  0  0
M  END
> <rmsd>
0.527109504

$$$$
PubChem-164731951


 30 32  0  0  0  0  0  0  0  0999 V2000
    4.7900   27.7896   59.1004 C   0  0  0  0  0
    4.8886   29.2680   58.7529 C   0  0  0  0  0
    5.2376   29.5064   57.2758 C   0  0  0  0  0
    6.6285   28.9326   56.9621 C   0  0  0  0  0
    7.7364   29.5791   57.7841 C   0  0  0  0  0
    5.1950   31.0248   56.9781 C   0  0  0  0  0
    3.8397   31.6924   57.3588 C   0  0  0  0  0
    2.8504   31.8916   56.1775 C   0  0  0  0  0
    3.5796   32.2484   54.8664 C   0  0  0  0  0
    4.5615   31.1079   54.5865 C   0  0  0  0  0
    5.6923   31.4156   55.5605 C   0  0  0  0  0
    5.6827   32.8947   55.4644 C   0  0  0  0  0
    0.9756   30.8842   56.8509 C   0  0  0  0  0
    0.9509   29.7374   57.7991 C   0  0  0  0  0
    1.3634   29.0026   60.1531 C   0  0  0  0  0
    1.3107   27.6250   59.8811 C   0  0  0  0  0
    1.4914   26.6927   60.9058 C   0  0  0  0  0
    1.7235   27.1278   62.2147 C   0  0  0  0  0
    1.7767   28.4970   62.4924 C   0  0  0  0  0
    1.5972   29.4279   61.4658 C   0  0  0  0  0
    6.6677   33.6423   55.6982 O   0  0  0  0  0
    4.4351   33.3609   55.0975 O   0  0  0  0  0
    2.0674   30.7449   55.9887 O   0  0  0  0  0
    0.7173   28.5787   57.3619 O   0  0  0  0  0
    1.2037   29.9768   59.1567 O   0  0  0  0  0
    1.5276   24.5984   63.0547 O   0  0  0  0  0
    3.4165   25.9282   63.8857 O   0  0  0  0  0
    1.0411   26.4170   64.8403 O   0  0  0  0  0
    4.2991   28.8473   56.4766 O   0  0  0  0  0
    1.9616   25.9667   63.5071 S   0  0  0  0  0
  1  2  1  0  0  0
  2  3  1  0  0  0
  3  4  1  0  0  0
  3  6  1  0  0  0
  3 29  1  0  0  0
  4  5  1  0  0  0
  6  7  1  0  0  0
  7  8  1  0  0  0
  8  9  1  0  0  0
  8 23  1  0  0  0
  9 10  1  0  0  0
  9 22  1  0  0  0
 10 11  1  0  0  0
 11 12  1  0  0  0
 11  6  1  0  0  0
 12 22  1  0  0  0
 13 23  1  0  0  0
 13 14  1  0  0  0
 14 25  1  0  0  0
 15 25  1  0  0  0
 16 17  1  0  0  0
 18 19  1  0  0  0
 20 15  1  0  0  0
 30 18  1  0  0  0
 30 28  1  0  0  0
 12 21  2  0  0  0
 14 24  2  0  0  0
 15 16  2  0  0  0
 17 18  2  0  0  0
 19 20  2  0  0  0
 30 26  2  0  0  0
 30 27  2  0  0  0
M  END
> <rmsd>
0.628788948

$$$$
PubChem-146617381


 29 31  0  0  0  0  0  0  0  0999 V2000
    7.8524   26.9905   59.3935 C   0  0  0  0  0
    7.8495   27.3987   57.9124 C   0  0  0  0  0
    6.4901   27.2136   57.2304 C   0  0  0  0  0
    5.3573   26.8763   59.4642 C   0  0  0  0  0
    6.6529   26.1216   59.7640 C   0  0  0  0  0
    4.1765   25.9254   59.5359 C   0  0  0  0  0
    2.3680   26.2908   61.1865 C   0  0  0  0  0
    1.4323   26.5397   60.1692 C   0  0  0  0  0
    0.1309   26.9310   60.4787 C   0  0  0  0  0
   -0.2518   27.0794   61.8103 C   0  0  0  0  0
    0.6624   26.8349   62.8372 C   0  0  0  0  0
    1.9787   26.4371   62.5381 C   0  0  0  0  0
    2.9104   26.1927   63.6566 C   0  0  0  0  0
    4.4235   28.5262   57.7694 C   0  0  0  0  0
    3.5076   29.1501   58.7594 C   0  0  0  0  0
    2.1632   29.4686   58.4557 C   0  0  0  0  0
    1.8402   30.3447   60.6478 C   0  0  0  0  0
    3.1598   30.0568   60.9857 C   0  0  0  0  0
    3.9895   29.4632   60.0369 C   0  0  0  0  0
    1.5610   29.1352   57.1224 C   0  0  0  0  0
    1.0711   30.3859   56.4106 C   0  0  0  0  0
    5.4052   27.5425   58.1550 N   0  0  0  0  0
    1.3758   30.0476   59.4062 N   0  0  0  0  0
    3.6750   25.9043   60.8655 O   0  0  0  0  0
    4.1080   25.8478   63.4757 O   0  0  0  0  0
    0.2516   26.9909   64.1565 O   0  0  0  0  0
    4.3493   28.8790   56.5606 O   0  0  0  0  0
    2.1564   31.1726   56.0219 O   0  0  0  0  0
    0.4993   28.2468   57.2910 O   0  0  0  0  0
  1  2  1  0  0  0
  2  3  1  0  0  0
  3 22  1  0  0  0
  4 22  1  0  0  0
  4  5  1  0  0  0
  4  6  1  0  0  0
  5  1  1  0  0  0
  6 24  1  0  0  0
  7 24  1  0  0  0
  8  9  1  0  0  0
 10 11  1  0  0  0
 11 26  1  0  0  0
 12 13  1  0  0  0
 12  7  1  0  0  0
 14 15  1  0  0  0
 16 23  1  0  0  0
 17 18  1  0  0  0
 19 15  1  0  0  0
 20 16  1  0  0  0
 20 21  1  0  0  0
 20 29  1  0  0  0
 21 28  1  0  0  0
 22 14  1  0  0  0
  7  8  2  0  0  0
  9 10  2  0  0  0
 11 12  2  0  0  0
 13 25  2  0  0  0
 14 27  2  0  0  0
 15 16  2  0  0  0
 17 23  2  0  0  0
 18 19  2  0  0  0
M  END
> <rmsd>
0.51235348

$$$$
PubChem-120441675 CSC057413517 MCULE-1320759210


 25 26  0  0  0  0  0  0  0  0999 V2000
    2.1201   24.5866   62.3063 C   0  0  0  0  0
    2.7292   25.9611   62.5062 C   0  0  0  0  0
    1.6621   27.0002   62.6597 C   0  0  0  0  0
    0.5674   29.1345   61.9238 C   0  0  0  0  0
    0.0618   29.5972   60.5623 C   0  0  0  0  0
    1.9654   28.9025   59.4464 C   0  0  0  0  0
    2.5857   28.2907   60.7061 C   0  0  0  0  0
    1.2622   27.8494   58.5884 C   0  0  0  0  0
   -0.3354   27.7595   56.8981 C   0  0  0  0  0
    1.9123   28.0042   56.3414 C   0  0  0  0  0
    2.8851   29.1112   56.1196 C   0  0  0  0  0
    4.9084   26.3757   63.6069 C   0  0  0  0  0
    5.4908   26.8268   62.4103 C   0  0  0  0  0
    6.8238   27.2445   62.3858 C   0  0  0  0  0
    7.5857   27.2151   63.5559 C   0  0  0  0  0
    7.0148   26.7680   64.7501 C   0  0  0  0  0
    5.6808   26.3489   64.7791 C   0  0  0  0  0
    0.8513   26.9172   63.6230 O   0  0  0  0  0
    1.1382   30.0144   59.7482 O   0  0  0  0  0
    4.0980   28.9479   56.4109 O   0  0  0  0  0
    2.4574   30.3201   55.5868 O   0  0  0  0  0
    3.5741   25.9557   63.6499 O   0  0  0  0  0
    1.5590   28.0837   61.7247 N   0  0  0  0  0
    0.8962   28.4145   57.2985 N   0  0  0  0  0
    4.9941   25.7947   66.2954 Cl  0  0  0  0  0
  1  2  1  0  0  0
  2  3  1  0  0  0
  2 22  1  0  0  0
  3 23  1  0  0  0
  4 23  1  0  0  0
  4  5  1  0  0  0
  5 19  1  0  0  0
  6 19  1  0  0  0
  6  7  1  0  0  0
  6  8  1  0  0  0
  7 23  1  0  0  0
  8 24  1  0  0  0
  9 24  1  0  0  0
 10 24  1  0  0  0
 10 11  1  0  0  0
 11 21  1  0  0  0
 12 22  1  0  0  0
 13 14  1  0  0  0
 15 16  1  0  0  0
 17 25  1  0  0  0
 17 12  1  0  0  0
  3 18  2  0  0  0
 11 20  2  0  0  0
 12 13  2  0  0  0
 14 15  2  0  0  0
 16 17  2  0  0  0
M  END
> <rmsd>
0.604623318

$$$$
PubChem-82315802


 20 21  0  0  0  0  0  0  0  0999 V2000
    0.3551   26.4118   58.5514 C   0  0  0  0  0
    1.1640   27.6905   58.4045 C   0  0  0  0  0
    1.0272   28.5577   59.6581 C   0  0  0  0  0
    1.6533   27.9069   60.8534 C   0  0  0  0  0
    0.8556   27.5783   61.9503 C   0  0  0  0  0
    1.3982   26.9615   63.0841 C   0  0  0  0  0
    2.7934   26.6844   63.1187 C   0  0  0  0  0
    3.5848   27.0382   62.0195 C   0  0  0  0  0
    3.0241   27.6381   60.8927 C   0  0  0  0  0
    2.9457   25.1112   65.0562 C   0  0  0  0  0
    1.7918   25.6221   65.8785 C   0  0  0  0  0
    0.5595   25.5958   65.0113 C   0  0  0  0  0
    1.6689   28.2274   56.1754 C   0  0  0  0  0
    2.6492   29.3507   56.1674 C   0  0  0  0  0
    3.4616   26.1334   64.2181 O   0  0  0  0  0
    0.5159   26.7200   64.1448 O   0  0  0  0  0
    1.6102   29.8107   59.4503 O   0  0  0  0  0
    2.2648   30.5256   55.9305 O   0  0  0  0  0
    3.9915   29.0981   56.4140 O   0  0  0  0  0
    0.6912   28.4200   57.2364 N   0  0  0  0  0
  2  1  1  0  0  0
  2  3  1  0  0  0
  2 20  1  0  0  0
  3  4  1  0  0  0
  3 17  1  0  0  0
  5  6  1  0  0  0
  6 16  1  0  0  0
  7  8  1  0  0  0
  7 15  1  0  0  0
  9  4  1  0  0  0
 10 15  1  0  0  0
 10 11  1  0  0  0
 11 12  1  0  0  0
 12 16  1  0  0  0
 13 20  1  0  0  0
 13 14  1  0  0  0
 14 19  1  0  0  0
  4  5  2  0  0  0
  6  7  2  0  0  0
  8  9  2  0  0  0
 14 18  2  0  0  0
M  END
> <rmsd>
0.512598813

$$$$
PubChem-61938145


 16 17  0  0  0  0  0  0  0  0999 V2000
    2.1555   26.2515   64.6219 C   0  0  0  0  0
    2.9751   27.2668   62.7542 C   0  0  0  0  0
    1.6512   27.5566   62.8237 C   0  0  0  0  0
    1.0148   28.3439   61.8678 C   0  0  0  0  0
    1.7903   28.8426   60.8042 C   0  0  0  0  0
    3.1744   28.5370   60.7381 C   0  0  0  0  0
    3.7822   27.7382   61.7230 C   0  0  0  0  0
    1.8529   30.1504   58.6940 C   0  0  0  0  0
    2.0499   29.0579   57.6527 C   0  0  0  0  0
    2.9458   29.5369   56.5602 C   0  0  0  0  0
    3.3293   26.4742   63.8276 O   0  0  0  0  0
    1.1084   26.9605   63.9443 O   0  0  0  0  0
    1.1703   29.6370   59.8338 O   0  0  0  0  0
    2.6142   30.5174   55.8415 O   0  0  0  0  0
    4.1542   28.8931   56.3321 O   0  0  0  0  0
    0.7659   28.6576   57.1019 N   0  0  0  0  0
  1 11  1  0  0  0
  1 12  1  0  0  0
  2 11  1  0  0  0
  3 12  1  0  0  0
  3  4  1  0  0  0
  5  6  1  0  0  0
  5 13  1  0  0  0
  7  2  1  0  0  0
  8 13  1  0  0  0
  9  8  1  0  0  0
  9 10  1  0  0  0
  9 16  1  0  0  0
 10 15  1  0  0  0
  2  3  2  0  0  0
  4  5  2  0  0  0
  6  7  2  0  0  0
 10 14  2  0  0  0
M  END
> <rmsd>
0.574362576

$$$$
PubChem-129590277 585287248 ZINC000585287248


 35 38  0  0  0  0  0  0  0  0999 V2000
   -0.4552   26.6880   63.8107 C   0  0  0  0  0
    1.8448   27.4131   63.2335 C   0  0  0  0  0
    1.3526   28.4261   62.3921 C   0  0  0  0  0
    2.2236   29.2618   61.6896 C   0  0  0  0  0
    1.6811   30.3445   60.7964 C   0  0  0  0  0
    0.3963   28.8761   59.3924 C   0  0  0  0  0
   -0.2186   28.7571   57.9991 C   0  0  0  0  0
    1.3613   29.4724   56.6058 C   0  0  0  0  0
    2.7123   29.7011   57.3010 C   0  0  0  0  0
    3.1410   31.1523   57.1198 C   0  0  0  0  0
    2.5253   32.4727   55.1205 C   0  0  0  0  0
    1.5691   33.2181   55.8306 C   0  0  0  0  0
    0.8278   34.2108   55.1846 C   0  0  0  0  0
    1.0373   34.4658   53.8267 C   0  0  0  0  0
    1.9849   33.7258   53.1146 C   0  0  0  0  0
    2.7265   32.7318   53.7606 C   0  0  0  0  0
    2.6488   29.3968   58.8031 C   0  0  0  0  0
    3.6017   29.0945   61.8271 C   0  0  0  0  0
    4.1056   28.0932   62.6574 C   0  0  0  0  0
    3.2464   27.2465   63.3665 C   0  0  0  0  0
    3.1355   25.3916   65.0430 C   0  0  0  0  0
    4.1049   24.4188   65.6946 C   0  0  0  0  0
    6.4014   25.1793   66.2905 C   0  0  0  0  0
    6.9515   25.9386   67.3063 C   0  0  0  0  0
    4.8306   25.8304   67.6288 C   0  0  0  0  0
    0.9573   26.5816   63.9272 O   0  0  0  0  0
    0.7390   28.3094   57.0786 O   0  0  0  0  0
    3.6685   28.8656   56.7219 O   0  0  0  0  0
    3.2816   31.4737   55.7396 O   0  0  0  0  0
    3.8414   26.2661   64.1740 O   0  0  0  0  0
    1.4231   29.9189   59.4128 N   0  0  0  0  0
    5.0788   25.1299   66.5103 N   0  0  0  0  0
    5.9677   26.3411   68.1398 N   0  0  0  0  0
   -0.0881   34.9290   55.8770 F   0  0  0  0  0
    2.1979   33.9841   51.8020 F   0  0  0  0  0
  1 26  1  0  0  0
  2 26  1  0  0  0
  3  4  1  0  0  0
  5  4  1  0  0  0
  5 31  1  0  0  0
  6 31  1  0  0  0
  6  7  1  0  0  0
  7 27  1  0  0  0
  8 27  1  0  0  0
  8  9  1  0  0  0
  9 28  1  0  0  0
  9 10  1  0  0  0
  9 17  1  0  0  0
 10 29  1  0  0  0
 11 29  1  0  0  0
 12 13  1  0  0  0
 13 34  1  0  0  0
 14 15  1  0  0  0
 15 35  1  0  0  0
 16 11  1  0  0  0
 17 31  1  0  0  0
 18 19  1  0  0  0
 20 30  1  0  0  0
 20  2  1  0  0  0
 21 30  1  0  0  0
 21 22  1  0  0  0
 22 32  1  0  0  0
 24 33  1  0  0  0
 25 32  1  0  0  0
 32 23  1  0  0  0
  2  3  2  0  0  0
  4 18  2  0  0  0
 11 12  2  0  0  0
 13 14  2  0  0  0
 15 16  2  0  0  0
 19 20  2  0  0  0
 23 24  2  0  0  0
 25 33  2  0  0  0
M  END
> <rmsd>
0.431518018

$$$$
PubChem-101621659


 33 36  0  0  0  0  0  0  0  0999 V2000
    7.0933   27.8219   62.7453 C   0  0  0  0  0
    6.1400   26.6616   62.5511 C   0  0  0  0  0
    3.8193   26.7542   63.3732 C   0  0  0  0  0
    2.4510   27.2999   63.2473 C   0  0  0  0  0
    1.5838   27.1047   64.2478 C   0  0  0  0  0
   -0.6551   27.3594   65.3144 C   0  0  0  0  0
   -1.9776   27.9763   65.0256 C   0  0  0  0  0
   -2.9642   27.2392   64.3611 C   0  0  0  0  0
   -4.1984   27.8277   64.0680 C   0  0  0  0  0
   -4.4447   29.1550   64.4333 C   0  0  0  0  0
   -3.4559   29.8952   65.0889 C   0  0  0  0  0
   -2.2217   29.3071   65.3820 C   0  0  0  0  0
    2.0665   28.0748   62.0436 C   0  0  0  0  0
    2.3255   27.6230   60.7501 C   0  0  0  0  0
    1.9516   28.3664   59.6857 C   0  0  0  0  0
    1.0587   30.0152   61.0686 C   0  0  0  0  0
    2.8567   26.5715   58.9786 C   0  0  0  0  0
    2.0808   28.1414   57.1762 C   0  0  0  0  0
    2.9681   29.3158   56.8501 C   0  0  0  0  0
    2.1554   30.0921   55.8711 C   0  0  0  0  0
    0.7344   29.6363   56.1303 C   0  0  0  0  0
    0.0298   29.3172   54.8220 C   0  0  0  0  0
    4.8098   27.1502   62.4710 O   0  0  0  0  0
    4.0981   25.9480   64.3049 O   0  0  0  0  0
    0.7371   28.4971   56.9590 O   0  0  0  0  0
   -0.1998   30.4911   54.1037 O   0  0  0  0  0
    2.2709   31.4558   56.1393 O   0  0  0  0  0
    4.1430   28.8704   56.2457 O   0  0  0  0  0
    0.2451   27.5916   64.2009 N   0  0  0  0  0
    1.3204   29.5587   59.8075 N   0  0  0  0  0
    1.4263   29.2788   62.1661 N   0  0  0  0  0
    2.2760   27.7222   58.5584 N   0  0  0  0  0
    2.8977   26.4751   60.3376 N   0  0  0  0  0
  1  2  1  0  0  0
  2 23  1  0  0  0
  3 23  1  0  0  0
  3  4  1  0  0  0
  4 13  1  0  0  0
  5 29  1  0  0  0
  6 29  1  0  0  0
  6  7  1  0  0  0
  8  9  1  0  0  0
 10 11  1  0  0  0
 12  7  1  0  0  0
 13 31  1  0  0  0
 14 15  1  0  0  0
 14 33  1  0  0  0
 15 32  1  0  0  0
 16 30  1  0  0  0
 18 32  1  0  0  0
 18 19  1  0  0  0
 18 25  1  0  0  0
 19 20  1  0  0  0
 19 28  1  0  0  0
 20 21  1  0  0  0
 20 27  1  0  0  0
 21 25  1  0  0  0
 21 22  1  0  0  0
 22 26  1  0  0  0
 32 17  1  0  0  0
  3 24  2  0  0  0
  4  5  2  0  0  0
  7  8  2  0  0  0
  9 10  2  0  0  0
 11 12  2  0  0  0
 13 14  2  0  0  0
 15 30  2  0  0  0
 16 31  2  0  0  0
 17 33  2  0  0  0
M  END
> <rmsd>
0.555279016

$$$$
PubChem-164731950


 30 32  0  0  0  0  0  0  0  0999 V2000
    4.7900   27.7896   59.1004 C   0  0  0  0  0
    4.8886   29.2680   58.7529 C   0  0  0  0  0
    5.2376   29.5064   57.2758 C   0  0  0  0  0
    6.6285   28.9326   56.9621 C   0  0  0  0  0
    7.7364   29.5791   57.7841 C   0  0  0  0  0
    5.1950   31.0248   56.9781 C   0  0  0  0  0
    3.8397   31.6924   57.3588 C   0  0  0  0  0
    2.8504   31.8916   56.1775 C   0  0  0  0  0
    3.5796   32.2484   54.8664 C   0  0  0  0  0
    4.5615   31.1079   54.5865 C   0  0  0  0  0
    5.6923   31.4156   55.5605 C   0  0  0  0  0
    5.6827   32.8947   55.4644 C   0  0  0  0  0
    0.9756   30.8842   56.8509 C   0  0  0  0  0
    0.9509   29.7374   57.7991 C   0  0  0  0  0
    1.3634   29.0026   60.1531 C   0  0  0  0  0
    1.3107   27.6250   59.8811 C   0  0  0  0  0
    1.4914   26.6927   60.9058 C   0  0  0  0  0
    1.7235   27.1278   62.2147 C   0  0  0  0  0
    1.7767   28.4970   62.4924 C   0  0  0  0  0
    1.5972   29.4279   61.4658 C   0  0  0  0  0
    6.6677   33.6423   55.6982 O   0  0  0  0  0
    4.4351   33.3609   55.0975 O   0  0  0  0  0
    2.0674   30.7449   55.9887 O   0  0  0  0  0
    0.7173   28.5787   57.3619 O   0  0  0  0  0
    1.2037   29.9768   59.1567 O   0  0  0  0  0
    1.5276   24.5984   63.0547 O   0  0  0  0  0
    3.4165   25.9282   63.8857 O   0  0  0  0  0
    1.0411   26.4170   64.8403 O   0  0  0  0  0
    4.2991   28.8473   56.4766 O   0  0  0  0  0
    1.9616   25.9667   63.5071 S   0  0  0  0  0
  1  2  1  0  0  0
  2  3  1  0  0  0
  3  4  1  0  0  0
  3  6  1  0  0  0
  3 29  1  0  0  0
  4  5  1  0  0  0
  6  7  1  0  0  0
  7  8  1  0  0  0
  8  9  1  0  0  0
  8 23  1  0  0  0
  9 10  1  0  0  0
  9 22  1  0  0  0
 10 11  1  0  0  0
 11 12  1  0  0  0
 11  6  1  0  0  0
 12 22  1  0  0  0
 13 23  1  0  0  0
 13 14  1  0  0  0
 14 25  1  0  0  0
 15 25  1  0  0  0
 16 17  1  0  0  0
 18 19  1  0  0  0
 20 15  1  0  0  0
 30 18  1  0  0  0
 30 28  1  0  0  0
 12 21  2  0  0  0
 14 24  2  0  0  0
 15 16  2  0  0  0
 17 18  2  0  0  0
 19 20  2  0  0  0
 30 26  2  0  0  0
 30 27  2  0  0  0
M  CHG  1  28  -1
M  END
> <rmsd>
0.628788948

$$$$
PubChem-165024407


 23 24  0  0  0  0  0  0  0  0999 V2000
    3.2862   32.1464   53.6744 C   0  0  0  0  0
    3.3300   31.4076   54.9951 C   0  0  0  0  0
    2.4746   31.0186   58.0564 C   0  0  0  0  0
    2.6540   30.2860   59.3728 C   0  0  0  0  0
    1.3022   28.8950   60.9093 C   0  0  0  0  0
    2.3897   28.6684   61.7679 C   0  0  0  0  0
    2.2363   27.8715   62.9049 C   0  0  0  0  0
    0.9771   27.3081   63.2058 C   0  0  0  0  0
   -0.1050   27.5439   62.3534 C   0  0  0  0  0
    0.0581   28.3316   61.2104 C   0  0  0  0  0
    3.3855   27.7126   63.8680 C   0  0  0  0  0
   -0.1220   29.5784   56.7950 C   0  0  0  0  0
   -1.2936   28.8953   57.4685 C   0  0  0  0  0
    3.6057   27.9361   55.5599 C   0  0  0  0  0
    4.8477   27.0831   55.4107 C   0  0  0  0  0
    2.1656   30.6532   55.1451 O   0  0  0  0  0
    1.4289   29.6752   59.7580 O   0  0  0  0  0
    0.7982   26.4993   64.3335 O   0  0  0  0  0
    3.5373   26.3848   64.3091 O   0  0  0  0  0
    1.0038   28.7582   56.8769 O   0  0  0  0  0
    3.7958   28.8579   56.5898 O   0  0  0  0  0
    2.3547   29.8000   56.6316 Si  0  0  0  0  0
    2.1714   26.0584   65.3099 Si  0  0  0  0  0
  1  2  1  0  0  0
  2 16  1  0  0  0
  3  4  1  0  0  0
  4 17  1  0  0  0
  5 17  1  0  0  0
  6  7  1  0  0  0
  8  9  1  0  0  0
  8 18  1  0  0  0
 10  5  1  0  0  0
 11 19  1  0  0  0
 11  7  1  0  0  0
 12 20  1  0  0  0
 12 13  1  0  0  0
 14 21  1  0  0  0
 14 15  1  0  0  0
 18 23  1  0  0  0
 22 16  1  0  0  0
 22  3  1  0  0  0
 22 20  1  0  0  0
 22 21  1  0  0  0
 23 19  1  0  0  0
  5  6  2  0  0  0
  7  8  2  0  0  0
  9 10  2  0  0  0
M  END
> <rmsd>
0.56063211

$$$$
PubChem-132780329 MCULE-4433210335


 34 37  0  0  0  0  0  0  0  0999 V2000
    2.6881   29.7549   57.2488 C   0  0  0  0  0
    1.3293   29.4678   56.5940 C   0  0  0  0  0
   -0.1405   28.5850   58.0109 C   0  0  0  0  0
    0.5229   28.6758   59.3836 C   0  0  0  0  0
    1.7746   30.1623   60.8083 C   0  0  0  0  0
    2.2406   29.0282   61.6829 C   0  0  0  0  0
    3.5280   28.4988   61.5496 C   0  0  0  0  0
    3.9517   27.4670   62.3891 C   0  0  0  0  0
    3.0956   26.9584   63.3794 C   0  0  0  0  0
    1.8076   27.4964   63.5247 C   0  0  0  0  0
   -0.3536   27.4779   64.7323 C   0  0  0  0  0
    1.3902   28.5348   62.6758 C   0  0  0  0  0
    4.8130   25.3633   64.2144 C   0  0  0  0  0
    5.8065   26.3139   64.8707 C   0  0  0  0  0
    5.4810   25.6243   67.2519 C   0  0  0  0  0
    5.1001   26.2757   68.4094 C   0  0  0  0  0
    5.0870   27.7043   66.8065 C   0  0  0  0  0
    2.7090   29.3797   58.7364 C   0  0  0  0  0
    3.0090   31.2385   57.1180 C   0  0  0  0  0
    4.2983   32.1417   55.2079 C   0  0  0  0  0
    4.3246   32.4893   53.8529 C   0  0  0  0  0
    5.4868   33.0168   53.2818 C   0  0  0  0  0
    6.6302   33.1993   54.0647 C   0  0  0  0  0
    6.6119   32.8543   55.4188 C   0  0  0  0  0
    5.4503   32.3270   55.9901 C   0  0  0  0  0
    0.8043   28.2456   57.0333 O   0  0  0  0  0
    0.9631   26.9883   64.5178 O   0  0  0  0  0
    3.5020   25.9212   64.2285 O   0  0  0  0  0
    3.6736   29.0133   56.5958 O   0  0  0  0  0
    3.1229   31.6146   55.7491 O   0  0  0  0  0
    1.4789   29.7846   59.4183 N   0  0  0  0  0
    5.4602   26.5351   66.2661 N   0  0  0  0  0
    4.8553   27.5734   68.1266 N   0  0  0  0  0
    8.0431   33.0818   56.3998 Cl  0  0  0  0  0
  1  2  1  0  0  0
  1 29  1  0  0  0
  1 19  1  0  0  0
  2 26  1  0  0  0
  3 26  1  0  0  0
  3  4  1  0  0  0
  4 31  1  0  0  0
  5 31  1  0  0  0
  5  6  1  0  0  0
  7  8  1  0  0  0
  9 10  1  0  0  0
  9 28  1  0  0  0
 10 27  1  0  0  0
 11 27  1  0  0  0
 12  6  1  0  0  0
 13 28  1  0  0  0
 13 14  1  0  0  0
 14 32  1  0  0  0
 16 33  1  0  0  0
 17 32  1  0  0  0
 18 31  1  0  0  0
 18  1  1  0  0  0
 19 30  1  0  0  0
 20 30  1  0  0  0
 21 22  1  0  0  0
 23 24  1  0  0  0
 24 34  1  0  0  0
 25 20  1  0  0  0
 32 15  1  0  0  0
  6  7  2  0  0  0
  8  9  2  0  0  0
 10 12  2  0  0  0
 15 16  2  0  0  0
 17 33  2  0  0  0
 20 21  2  0  0  0
 22 23  2  0  0  0
 24 25  2  0  0  0
M  END
> <rmsd>
0.473296136

$$$$
PubChem-129577792 585274062 ZINC000585274062


 34 37  0  0  0  0  0  0  0  0999 V2000
    5.2257   26.1060   64.6586 C   0  0  0  0  0
    3.3129   27.2299   63.5511 C   0  0  0  0  0
    4.1773   27.9586   62.7164 C   0  0  0  0  0
    3.6737   28.8663   61.7845 C   0  0  0  0  0
    2.2962   29.0582   61.6713 C   0  0  0  0  0
    1.7469   30.0473   60.6796 C   0  0  0  0  0
    0.5439   28.3830   59.4149 C   0  0  0  0  0
    0.2291   27.7861   58.0387 C   0  0  0  0  0
    1.7173   28.4491   56.5312 C   0  0  0  0  0
    2.7864   29.2991   57.2309 C   0  0  0  0  0
    2.5690   30.7841   56.9435 C   0  0  0  0  0
    3.6545   31.9356   55.0416 C   0  0  0  0  0
    3.7168   32.1452   53.6598 C   0  0  0  0  0
    4.6647   33.0200   53.1204 C   0  0  0  0  0
    5.5564   33.6906   53.9622 C   0  0  0  0  0
    5.5005   33.4870   55.3434 C   0  0  0  0  0
    4.5531   32.6126   55.8828 C   0  0  0  0  0
    2.7710   29.0519   58.7440 C   0  0  0  0  0
    1.4264   28.3400   62.4958 C   0  0  0  0  0
    1.9132   27.4205   63.4313 C   0  0  0  0  0
    1.2482   25.6460   65.0735 C   0  0  0  0  0
    1.3832   24.3681   64.2613 C   0  0  0  0  0
    0.9798   22.1776   65.3541 C   0  0  0  0  0
    1.6713   21.3532   66.2242 C   0  0  0  0  0
    2.8616   22.0185   66.4814 C   0  0  0  0  0
    3.8330   26.3373   64.4958 O   0  0  0  0  0
    0.4342   28.7274   57.0234 O   0  0  0  0  0
    4.0382   28.9238   56.7432 O   0  0  0  0  0
    2.6971   31.0549   55.5513 O   0  0  0  0  0
    0.9646   26.7416   64.2127 O   0  0  0  0  0
    1.5061   29.4895   59.3416 N   0  0  0  0  0
    1.7392   23.2606   65.1316 N   0  0  0  0  0
    2.8743   23.1780   65.7992 N   0  0  0  0  0
    6.6160   34.3268   56.3983 Cl  0  0  0  0  0
  1 26  1  0  0  0
  2 26  1  0  0  0
  3  4  1  0  0  0
  5 19  1  0  0  0
  6  5  1  0  0  0
  6 31  1  0  0  0
  7 31  1  0  0  0
  7  8  1  0  0  0
  8 27  1  0  0  0
  9 27  1  0  0  0
  9 10  1  0  0  0
 10 28  1  0  0  0
 10 11  1  0  0  0
 10 18  1  0  0  0
 11 29  1  0  0  0
 12 29  1  0  0  0
 13 14  1  0  0  0
 15 16  1  0  0  0
 16 34  1  0  0  0
 17 12  1  0  0  0
 18 31  1  0  0  0
 20 30  1  0  0  0
 20  2  1  0  0  0
 21 30  1  0  0  0
 21 22  1  0  0  0
 22 32  1  0  0  0
 24 25  1  0  0  0
 32 23  1  0  0  0
 32 33  1  0  0  0
  2  3  2  0  0  0
  4  5  2  0  0  0
 12 13  2  0  0  0
 14 15  2  0  0  0
 16 17  2  0  0  0
 19 20  2  0  0  0
 23 24  2  0  0  0
 25 33  2  0  0  0
M  END
> <rmsd>
0.434180826

$$$$
PubChem-103202204


 20 20  0  0  0  0  0  0  0  0999 V2000
   -0.7280   26.7674   57.1453 C   0  0  0  0  0
    0.6158   27.2766   57.6215 C   0  0  0  0  0
    2.1228   29.0611   57.6152 C   0  0  0  0  0
    1.9116   30.2158   58.5868 C   0  0  0  0  0
    1.7367   28.9460   60.7192 C   0  0  0  0  0
    0.9219   28.5161   61.7680 C   0  0  0  0  0
    1.4150   27.6755   62.7780 C   0  0  0  0  0
    2.7677   27.2601   62.7267 C   0  0  0  0  0
    3.5828   27.6985   61.6698 C   0  0  0  0  0
    3.0740   28.5336   60.6759 C   0  0  0  0  0
    4.6369   25.9702   63.7219 C   0  0  0  0  0
    3.0062   29.4924   56.4944 C   0  0  0  0  0
    0.8447   28.6086   57.0896 N   0  0  0  0  0
    0.5245   27.2645   63.8329 N   0  0  0  0  0
    1.1925   29.7835   59.7388 O   0  0  0  0  0
    3.2888   26.4209   63.7190 O   0  0  0  0  0
    0.9099   26.5193   64.7570 O   0  0  0  0  0
   -0.7824   27.6960   63.8343 O   0  0  0  0  0
    4.1103   28.9171   56.3135 O   0  0  0  0  0
    2.6168   30.5220   55.6459 O   0  0  0  0  0
  1  2  1  0  0  0
  2 13  1  0  0  0
  3 13  1  0  0  0
  3  4  1  0  0  0
  3 12  1  0  0  0
  4 15  1  0  0  0
  5 15  1  0  0  0
  6  7  1  0  0  0
  7 14  1  0  0  0
  8  9  1  0  0  0
  8 16  1  0  0  0
 10  5  1  0  0  0
 11 16  1  0  0  0
 12 20  1  0  0  0
 14 18  1  0  0  0
  5  6  2  0  0  0
  7  8  2  0  0  0
  9 10  2  0  0  0
 12 19  2  0  0  0
 14 17  2  0  0  0
M  CHG  2  14   1  18  -1
M  END
> <rmsd>
0.531152189

$$$$
PubChem-103202204


 20 20  0  0  0  0  0  0  0  0999 V2000
   -0.5683   26.5614   57.3409 C   0  0  0  0  0
    0.7754   27.1395   57.7311 C   0  0  0  0  0
    2.1665   29.0150   57.6735 C   0  0  0  0  0
    1.9625   30.1235   58.6989 C   0  0  0  0  0
    2.0322   28.7801   60.7918 C   0  0  0  0  0
    1.3296   28.2675   61.8837 C   0  0  0  0  0
    1.9503   27.4290   62.8226 C   0  0  0  0  0
    3.3175   27.1015   62.6535 C   0  0  0  0  0
    4.0193   27.6229   61.5539 C   0  0  0  0  0
    3.3846   28.4544   60.6321 C   0  0  0  0  0
    5.3335   25.9022   63.4567 C   0  0  0  0  0
    2.9316   29.5356   56.5047 C   0  0  0  0  0
    0.8809   28.4992   57.2311 N   0  0  0  0  0
    1.1717   26.9303   63.9270 N   0  0  0  0  0
    1.3632   29.6114   59.8863 O   0  0  0  0  0
    3.9645   26.2667   63.5727 O   0  0  0  0  0
    1.6726   26.1827   64.7919 O   0  0  0  0  0
   -0.1549   27.2781   64.0434 O   0  0  0  0  0
    4.0510   29.0370   56.2198 O   0  0  0  0  0
    2.4153   30.5642   55.7255 O   0  0  0  0  0
  1  2  1  0  0  0
  2 13  1  0  0  0
  3 13  1  0  0  0
  3  4  1  0  0  0
  3 12  1  0  0  0
  4 15  1  0  0  0
  5 15  1  0  0  0
  6  7  1  0  0  0
  7 14  1  0  0  0
  8  9  1  0  0  0
  8 16  1  0  0  0
 10  5  1  0  0  0
 11 16  1  0  0  0
 12 20  1  0  0  0
 14 18  1  0  0  0
  5  6  2  0  0  0
  7  8  2  0  0  0
  9 10  2  0  0  0
 12 19  2  0  0  0
 14 17  2  0  0  0
M  CHG  2  14   1  18  -1
M  END
> <rmsd>
0.55502516

$$$$
PubChem-156314167


 27 28  0  0  0  0  0  0  0  0999 V2000
    7.1440   30.4719   62.7066 C   0  0  0  0  0
    5.4938   31.0500   60.9572 C   0  0  0  0  0
    4.7292   29.8981   61.2037 C   0  0  0  0  0
    3.5711   29.6507   60.4627 C   0  0  0  0  0
    3.1647   30.5530   59.4693 C   0  0  0  0  0
    3.9270   31.6986   59.2211 C   0  0  0  0  0
    5.0858   31.9458   59.9631 C   0  0  0  0  0
    1.9355   30.2955   58.6554 C   0  0  0  0  0
    2.1373   29.0896   57.7334 C   0  0  0  0  0
    2.9972   29.4497   56.5644 C   0  0  0  0  0
    1.2774   26.7108   59.3819 C   0  0  0  0  0
    2.5530   26.2790   59.7600 C   0  0  0  0  0
    2.8700   26.1272   61.1124 C   0  0  0  0  0
    1.9157   26.4096   62.1000 C   0  0  0  0  0
    0.6379   26.8432   61.7145 C   0  0  0  0  0
    0.3212   26.9943   60.3617 C   0  0  0  0  0
    6.6570   31.3264   61.6810 O   0  0  0  0  0
    2.6173   30.3171   55.7339 O   0  0  0  0  0
    4.2218   28.8193   56.3926 O   0  0  0  0  0
    0.9068   28.5937   57.2847 O   0  0  0  0  0
    1.8868   26.2165   56.8253 O   0  0  0  0  0
   -0.4749   26.3932   57.4116 O   0  0  0  0  0
    1.4023   26.5084   64.3717 O   0  0  0  0  0
    3.5037   25.8394   63.8590 O   0  0  0  0  0
    0.8426   30.0958   59.5032 O   0  0  0  0  0
    0.8934   26.9518   57.6825 S   0  0  0  0  0
    2.2469   26.2584   63.4869 N   0  0  0  0  0
  1 17  1  0  0  0
  2 17  1  0  0  0
  3  4  1  0  0  0
  5  6  1  0  0  0
  7  2  1  0  0  0
  8  5  1  0  0  0
  8  9  1  0  0  0
  8 25  1  0  0  0
  9 10  1  0  0  0
  9 20  1  0  0  0
 10 19  1  0  0  0
 12 13  1  0  0  0
 14 15  1  0  0  0
 14 27  1  0  0  0
 16 11  1  0  0  0
 26 20  1  0  0  0
 26 11  1  0  0  0
 27 24  1  0  0  0
  2  3  2  0  0  0
  4  5  2  0  0  0
  6  7  2  0  0  0
 10 18  2  0  0  0
 11 12  2  0  0  0
 13 14  2  0  0  0
 15 16  2  0  0  0
 26 21  2  0  0  0
 26 22  2  0  0  0
 27 23  2  0  0  0
M  CHG  2  27   1  24  -1
M  END
> <rmsd>
0.641301572

$$$$
PubChem-129577598 585273792 ZINC000585273792


 34 37  0  0  0  0  0  0  0  0999 V2000
    1.3559   25.6590   65.0604 C   0  0  0  0  0
    1.9459   27.4086   63.3702 C   0  0  0  0  0
    1.4312   28.3199   62.4410 C   0  0  0  0  0
    2.2785   29.1192   61.6690 C   0  0  0  0  0
    1.7033   30.0953   60.6788 C   0  0  0  0  0
    0.4871   28.4504   59.4111 C   0  0  0  0  0
    0.1935   27.8305   58.0407 C   0  0  0  0  0
    1.7143   28.4452   56.5462 C   0  0  0  0  0
    2.7874   29.2844   57.2539 C   0  0  0  0  0
    2.6077   30.7700   56.9422 C   0  0  0  0  0
    3.6899   31.8368   54.9873 C   0  0  0  0  0
    4.6471   32.4844   55.7873 C   0  0  0  0  0
    5.6183   33.3013   55.2013 C   0  0  0  0  0
    5.6393   33.4765   53.8147 C   0  0  0  0  0
    4.6888   32.8352   53.0142 C   0  0  0  0  0
    3.7174   32.0178   53.6001 C   0  0  0  0  0
    2.7409   29.0585   58.7695 C   0  0  0  0  0
    3.6609   29.0182   61.8291 C   0  0  0  0  0
    4.1924   28.1177   62.7521 C   0  0  0  0  0
    3.3509   27.3042   63.5311 C   0  0  0  0  0
    5.2984   26.2098   64.6264 C   0  0  0  0  0
    5.8374   25.3108   63.5254 C   0  0  0  0  0
    7.8568   24.4656   64.7118 C   0  0  0  0  0
    9.2220   24.4856   64.4881 C   0  0  0  0  0
    9.3800   25.1722   63.2929 C   0  0  0  0  0
    1.0186   26.6414   64.0913 O   0  0  0  0  0
    0.4280   28.7512   57.0130 O   0  0  0  0  0
    4.0393   28.8761   56.7942 O   0  0  0  0  0
    2.7103   31.0088   55.5420 O   0  0  0  0  0
    3.8992   26.4072   64.4573 O   0  0  0  0  0
    1.4767   29.5326   59.3405 N   0  0  0  0  0
    7.2678   25.1155   63.6946 N   0  0  0  0  0
    8.1702   25.5409   62.8323 N   0  0  0  0  0
    6.5815   34.2665   53.2472 F   0  0  0  0  0
  1 26  1  0  0  0
  2 26  1  0  0  0
  3  4  1  0  0  0
  5  4  1  0  0  0
  5 31  1  0  0  0
  6 31  1  0  0  0
  6  7  1  0  0  0
  7 27  1  0  0  0
  8 27  1  0  0  0
  8  9  1  0  0  0
  9 28  1  0  0  0
  9 10  1  0  0  0
  9 17  1  0  0  0
 10 29  1  0  0  0
 11 29  1  0  0  0
 12 13  1  0  0  0
 14 34  1  0  0  0
 14 15  1  0  0  0
 16 11  1  0  0  0
 17 31  1  0  0  0
 18 19  1  0  0  0
 20 30  1  0  0  0
 20  2  1  0  0  0
 21 30  1  0  0  0
 21 22  1  0  0  0
 22 32  1  0  0  0
 24 25  1  0  0  0
 32 23  1  0  0  0
 32 33  1  0  0  0
  2  3  2  0  0  0
  4 18  2  0  0  0
 11 12  2  0  0  0
 13 14  2  0  0  0
 15 16  2  0  0  0
 19 20  2  0  0  0
 23 24  2  0  0  0
 25 33  2  0  0  0
M  END
> <rmsd>
0.451112568

$$$$
PubChem-126708250


 33 36  0  0  0  0  0  0  0  0999 V2000
    4.8318   26.8255   61.4820 C   0  0  0  0  0
    3.4587   27.3827   61.6489 C   0  0  0  0  0
    2.9810   28.2271   60.6434 C   0  0  0  0  0
    1.6938   28.7756   60.7161 C   0  0  0  0  0
    0.8850   28.4792   61.8128 C   0  0  0  0  0
    1.3466   27.6443   62.8323 C   0  0  0  0  0
    2.6344   27.0741   62.7585 C   0  0  0  0  0
    3.0436   26.1592   63.8544 C   0  0  0  0  0
    2.0264   25.6901   64.8491 C   0  0  0  0  0
    0.9742   26.7674   65.1286 C   0  0  0  0  0
    1.4532   27.7926   66.1124 C   0  0  0  0  0
    2.5024   28.6673   65.8035 C   0  0  0  0  0
    2.9299   29.6237   66.7288 C   0  0  0  0  0
    2.2963   29.7143   67.9915 C   0  0  0  0  0
    1.2461   28.8374   68.2863 C   0  0  0  0  0
    0.8257   27.8847   67.3558 C   0  0  0  0  0
    3.6986   31.5989   68.8478 C   0  0  0  0  0
    1.9286   29.9450   58.5389 C   0  0  0  0  0
    1.9064   28.7701   57.5474 C   0  0  0  0  0
    2.7079   29.1405   56.2984 C   0  0  0  0  0
    2.3291   30.5432   55.7987 C   0  0  0  0  0
    2.2982   31.5325   56.9736 C   0  0  0  0  0
    1.8918   32.9138   56.4876 C   0  0  0  0  0
    4.2250   25.7357   63.9536 O   0  0  0  0  0
    0.5101   27.3843   63.9249 O   0  0  0  0  0
    2.6584   30.6409   68.9802 O   0  0  0  0  0
    3.9761   30.4656   66.3735 O   0  0  0  0  0
    1.1979   29.6202   59.7173 O   0  0  0  0  0
    1.3759   31.0920   57.9420 O   0  0  0  0  0
    2.0259   33.8385   57.5231 O   0  0  0  0  0
    3.2315   30.9657   54.8189 O   0  0  0  0  0
    4.0738   29.0757   56.5881 O   0  0  0  0  0
    0.5918   28.4588   57.1921 O   0  0  0  0  0
  1  2  1  0  0  0
  3  4  1  0  0  0
  4 28  1  0  0  0
  5  6  1  0  0  0
  6 25  1  0  0  0
  7  8  1  0  0  0
  7  2  1  0  0  0
  9  8  1  0  0  0
  9 10  1  0  0  0
 10 25  1  0  0  0
 10 11  1  0  0  0
 12 13  1  0  0  0
 13 27  1  0  0  0
 14 15  1  0  0  0
 14 26  1  0  0  0
 16 11  1  0  0  0
 17 26  1  0  0  0
 18 28  1  0  0  0
 18 19  1  0  0  0
 18 29  1  0  0  0
 19 20  1  0  0  0
 19 33  1  0  0  0
 20 21  1  0  0  0
 20 32  1  0  0  0
 21 22  1  0  0  0
 21 31  1  0  0  0
 22 29  1  0  0  0
 22 23  1  0  0  0
 23 30  1  0  0  0
  2  3  2  0  0  0
  4  5  2  0  0  0
  6  7  2  0  0  0
  8 24  2  0  0  0
 11 12  2  0  0  0
 13 14  2  0  0  0
 15 16  2  0  0  0
M  END
> <rmsd>
0.572698295

$$$$
PubChem-126708250


 33 36  0  0  0  0  0  0  0  0999 V2000
    4.9019   26.9939   61.5568 C   0  0  0  0  0
    3.5000   27.4848   61.6880 C   0  0  0  0  0
    3.0037   28.2970   60.6654 C   0  0  0  0  0
    1.7034   28.8156   60.7259 C   0  0  0  0  0
    0.8956   28.5120   61.8218 C   0  0  0  0  0
    1.3701   27.6950   62.8498 C   0  0  0  0  0
    2.6822   27.1802   62.8030 C   0  0  0  0  0
    3.1362   26.3586   63.9532 C   0  0  0  0  0
    2.3166   26.3274   65.2061 C   0  0  0  0  0
    0.8216   26.3729   64.8827 C   0  0  0  0  0
    0.3118   25.0260   64.4527 C   0  0  0  0  0
    0.0493   24.0556   65.4239 C   0  0  0  0  0
   -0.4091   22.7853   65.0606 C   0  0  0  0  0
   -0.6104   22.4722   63.6946 C   0  0  0  0  0
   -0.3423   23.4496   62.7298 C   0  0  0  0  0
    0.1164   24.7146   63.1016 C   0  0  0  0  0
   -1.3810   20.1250   64.0792 C   0  0  0  0  0
    1.9190   29.9562   58.5323 C   0  0  0  0  0
    1.9072   28.7706   57.5531 C   0  0  0  0  0
    2.7098   29.1317   56.3022 C   0  0  0  0  0
    2.3216   30.5249   55.7836 C   0  0  0  0  0
    2.2709   31.5287   56.9481 C   0  0  0  0  0
    1.8813   32.9211   56.4658 C   0  0  0  0  0
    4.2137   25.7082   63.9165 O   0  0  0  0  0
    0.5224   27.3937   63.9243 O   0  0  0  0  0
   -1.0666   21.2264   63.2394 O   0  0  0  0  0
   -0.6535   21.8587   66.0664 O   0  0  0  0  0
    1.1928   29.6361   59.7147 O   0  0  0  0  0
    1.3554   31.0927   57.9252 O   0  0  0  0  0
    0.5895   32.9143   55.9354 O   0  0  0  0  0
    3.2267   30.9463   54.8059 O   0  0  0  0  0
    4.0751   29.0818   56.5972 O   0  0  0  0  0
    0.5957   28.4462   57.1983 O   0  0  0  0  0
  1  2  1  0  0  0
  3  4  1  0  0  0
  4 28  1  0  0  0
  5  6  1  0  0  0
  6 25  1  0  0  0
  7  8  1  0  0  0
  7  2  1  0  0  0
  9  8  1  0  0  0
  9 10  1  0  0  0
 10 25  1  0  0  0
 10 11  1  0  0  0
 12 13  1  0  0  0
 13 27  1  0  0  0
 14 15  1  0  0  0
 14 26  1  0  0  0
 16 11  1  0  0  0
 17 26  1  0  0  0
 18 28  1  0  0  0
 18 19  1  0  0  0
 18 29  1  0  0  0
 19 20  1  0  0  0
 19 33  1  0  0  0
 20 21  1  0  0  0
 20 32  1  0  0  0
 21 22  1  0  0  0
 21 31  1  0  0  0
 22 29  1  0  0  0
 22 23  1  0  0  0
 23 30  1  0  0  0
  2  3  2  0  0  0
  4  5  2  0  0  0
  6  7  2  0  0  0
  8 24  2  0  0  0
 11 12  2  0  0  0
 13 14  2  0  0  0
 15 16  2  0  0  0
M  END
> <rmsd>
0.581761003

$$$$
PubChem-129575324 585271063 ZINC000585271063


 34 37  0  0  0  0  0  0  0  0999 V2000
    1.2225   25.5812   64.8241 C   0  0  0  0  0
    1.8735   27.4180   63.2537 C   0  0  0  0  0
    1.3918   28.4342   62.4204 C   0  0  0  0  0
    2.2658   29.2433   61.6900 C   0  0  0  0  0
    1.7252   30.3309   60.8010 C   0  0  0  0  0
    0.4380   28.8452   59.4160 C   0  0  0  0  0
   -0.1969   28.7183   58.0326 C   0  0  0  0  0
    1.3469   29.4555   56.6118 C   0  0  0  0  0
    2.7024   29.7120   57.2872 C   0  0  0  0  0
    3.0946   31.1722   57.0983 C   0  0  0  0  0
    2.4634   32.4502   55.0751 C   0  0  0  0  0
    2.6767   32.7003   53.7152 C   0  0  0  0  0
    1.9098   33.6580   53.0448 C   0  0  0  0  0
    0.9238   34.3712   53.7326 C   0  0  0  0  0
    0.7044   34.1270   55.0911 C   0  0  0  0  0
   -0.3440   34.8842   55.8228 C   0  0  0  0  0
    1.4711   33.1699   55.7614 C   0  0  0  0  0
    2.6698   29.4061   58.7902 C   0  0  0  0  0
    3.6430   29.0458   61.7964 C   0  0  0  0  0
    4.1418   28.0387   62.6220 C   0  0  0  0  0
    3.2728   27.2131   63.3561 C   0  0  0  0  0
    5.1773   25.9071   64.2834 C   0  0  0  0  0
    5.6273   25.1004   63.0757 C   0  0  0  0  0
    7.6575   24.0526   64.0659 C   0  0  0  0  0
    9.0101   24.0370   63.7742 C   0  0  0  0  0
    9.1445   24.8383   62.6494 C   0  0  0  0  0
    0.9204   26.6548   63.9447 O   0  0  0  0  0
    0.7524   28.2841   57.0979 O   0  0  0  0  0
    3.6677   28.8978   56.6937 O   0  0  0  0  0
    3.2432   31.4843   55.7168 O   0  0  0  0  0
    3.7891   26.2057   64.1823 O   0  0  0  0  0
    1.4464   29.9061   59.4213 N   0  0  0  0  0
    7.0536   24.8309   63.1532 N   0  0  0  0  0
    7.9337   25.3049   62.2931 N   0  0  0  0  0
  1 27  1  0  0  0
  2 27  1  0  0  0
  3  4  1  0  0  0
  5  4  1  0  0  0
  5 32  1  0  0  0
  6 32  1  0  0  0
  6  7  1  0  0  0
  7 28  1  0  0  0
  8 28  1  0  0  0
  8  9  1  0  0  0
  9 29  1  0  0  0
  9 10  1  0  0  0
  9 18  1  0  0  0
 10 30  1  0  0  0
 11 30  1  0  0  0
 12 13  1  0  0  0
 14 15  1  0  0  0
 16 15  1  0  0  0
 17 11  1  0  0  0
 18 32  1  0  0  0
 19 20  1  0  0  0
 21 31  1  0  0  0
 21  2  1  0  0  0
 22 31  1  0  0  0
 22 23  1  0  0  0
 23 33  1  0  0  0
 25 26  1  0  0  0
 33 24  1  0  0  0
 33 34  1  0  0  0
  2  3  2  0  0  0
  4 19  2  0  0  0
 11 12  2  0  0  0
 13 14  2  0  0  0
 15 17  2  0  0  0
 20 21  2  0  0  0
 24 25  2  0  0  0
 26 34  2  0  0  0
M  END
> <rmsd>
0.419174492

$$$$
PubChem-7514104 ZINC000005124371 ZINC05124371


 28 30  0  0  0  0  0  0  0  0999 V2000
    0.9147   21.6408   63.3598 C   0  0  0  0  0
    0.1687   22.7911   63.0853 C   0  0  0  0  0
    0.5970   24.0329   63.5642 C   0  0  0  0  0
    1.7707   24.1256   64.3217 C   0  0  0  0  0
    2.5190   22.9738   64.5909 C   0  0  0  0  0
    2.0900   21.7321   64.1118 C   0  0  0  0  0
    2.2398   25.4526   64.8149 C   0  0  0  0  0
    3.1189   26.1098   63.7985 C   0  0  0  0  0
    2.5842   27.0302   62.7631 C   0  0  0  0  0
    3.4029   27.3448   61.6673 C   0  0  0  0  0
    2.9534   28.1958   60.6567 C   0  0  0  0  0
    1.6694   28.7527   60.7229 C   0  0  0  0  0
    0.8504   28.4554   61.8135 C   0  0  0  0  0
    1.2936   27.6059   62.8320 C   0  0  0  0  0
    1.9264   29.9305   58.5530 C   0  0  0  0  0
    1.8889   28.7651   57.5532 C   0  0  0  0  0
    2.7264   29.1137   56.3251 C   0  0  0  0  0
    2.3596   30.5095   55.8063 C   0  0  0  0  0
    2.2716   31.5465   56.9404 C   0  0  0  0  0
    3.6341   32.0101   57.4626 C   0  0  0  0  0
    4.3466   25.8234   63.8030 O   0  0  0  0  0
    0.4440   27.3626   63.9043 O   0  0  0  0  0
    1.1870   29.6076   59.7263 O   0  0  0  0  0
    1.4082   31.1119   57.9764 O   0  0  0  0  0
    3.4671   33.0961   58.3215 O   0  0  0  0  0
    3.2396   30.9239   54.8035 O   0  0  0  0  0
    4.0849   29.0448   56.6454 O   0  0  0  0  0
    0.5729   28.4936   57.1715 O   0  0  0  0  0
  2  3  1  0  0  0
  4  5  1  0  0  0
  6  1  1  0  0  0
  7  4  1  0  0  0
  7  8  1  0  0  0
  8  9  1  0  0  0
 10 11  1  0  0  0
 12 13  1  0  0  0
 12 23  1  0  0  0
 14 22  1  0  0  0
 14  9  1  0  0  0
 15 23  1  0  0  0
 15 16  1  0  0  0
 15 24  1  0  0  0
 16 17  1  0  0  0
 16 28  1  0  0  0
 17 18  1  0  0  0
 17 27  1  0  0  0
 18 19  1  0  0  0
 18 26  1  0  0  0
 19 24  1  0  0  0
 19 20  1  0  0  0
 20 25  1  0  0  0
  1  2  2  0  0  0
  3  4  2  0  0  0
  5  6  2  0  0  0
  8 21  2  0  0  0
  9 10  2  0  0  0
 11 12  2  0  0  0
 13 14  2  0  0  0
M  END
> <rmsd>
0.581390738

$$$$
PubChem-129575897 585271736 ZINC000585271736


 35 38  0  0  0  0  0  0  0  0999 V2000
   -0.5203   27.0939   64.3098 C   0  0  0  0  0
    1.7092   27.5547   63.3363 C   0  0  0  0  0
    1.1998   28.5675   62.5065 C   0  0  0  0  0
    2.0458   29.2730   61.6475 C   0  0  0  0  0
    1.4885   30.3289   60.7565 C   0  0  0  0  0
   -0.1324   29.5543   59.2455 C   0  0  0  0  0
   -0.4694   29.0039   57.8524 C   0  0  0  0  0
    1.1980   29.4438   56.4489 C   0  0  0  0  0
    2.2869   30.2272   57.1955 C   0  0  0  0  0
    3.4752   29.3235   57.5208 C   0  0  0  0  0
    5.4406   29.1440   56.0298 C   0  0  0  0  0
    5.9797   28.6786   54.8258 C   0  0  0  0  0
    7.3138   28.9438   54.5005 C   0  0  0  0  0
    8.1164   29.6774   55.3788 C   0  0  0  0  0
    7.5852   30.1446   56.5836 C   0  0  0  0  0
    6.2525   29.8778   56.9104 C   0  0  0  0  0
    1.7292   30.8368   58.4866 C   0  0  0  0  0
    3.4069   28.9619   61.6007 C   0  0  0  0  0
    3.9217   27.9566   62.4213 C   0  0  0  0  0
    3.0791   27.2494   63.2957 C   0  0  0  0  0
    4.9628   25.9133   64.2238 C   0  0  0  0  0
    5.7275   27.0090   64.9561 C   0  0  0  0  0
    5.3711   26.2728   67.3193 C   0  0  0  0  0
    4.7732   26.8255   68.4409 C   0  0  0  0  0
    4.5766   28.2104   66.8312 C   0  0  0  0  0
    4.1953   29.4245   66.0558 C   0  0  0  0  0
    0.8753   26.8437   64.2066 O   0  0  0  0  0
    0.6545   28.4267   57.2474 O   0  0  0  0  0
    2.7212   31.2703   56.3770 O   0  0  0  0  0
    4.1041   28.8646   56.3287 O   0  0  0  0  0
    3.5793   26.2426   64.1320 O   0  0  0  0  0
    1.3013   29.7954   59.4176 N   0  0  0  0  0
    5.2339   27.1579   66.3182 N   0  0  0  0  0
    4.2745   28.0428   68.1305 N   0  0  0  0  0
    8.3612   30.8580   57.4341 F   0  0  0  0  0
  1 27  1  0  0  0
  2 27  1  0  0  0
  3  4  1  0  0  0
  5  4  1  0  0  0
  5 32  1  0  0  0
  6 32  1  0  0  0
  6  7  1  0  0  0
  7 28  1  0  0  0
  8 28  1  0  0  0
  8  9  1  0  0  0
  9 29  1  0  0  0
  9 10  1  0  0  0
  9 17  1  0  0  0
 10 30  1  0  0  0
 11 30  1  0  0  0
 12 13  1  0  0  0
 14 15  1  0  0  0
 15 35  1  0  0  0
 16 11  1  0  0  0
 17 32  1  0  0  0
 18 19  1  0  0  0
 20 31  1  0  0  0
 20  2  1  0  0  0
 21 31  1  0  0  0
 21 22  1  0  0  0
 22 33  1  0  0  0
 24 34  1  0  0  0
 25 33  1  0  0  0
 26 25  1  0  0  0
 33 23  1  0  0  0
  2  3  2  0  0  0
  4 18  2  0  0  0
 11 12  2  0  0  0
 13 14  2  0  0  0
 15 16  2  0  0  0
 19 20  2  0  0  0
 23 24  2  0  0  0
 25 34  2  0  0  0
M  END
> <rmsd>
0.431479663

$$$$
PubChem-23500575


 21 22  0  0  0  0  0  0  0  0999 V2000
   -1.0561   30.6814   60.0464 C   0  0  0  0  0
    0.3799   30.5726   60.5216 C   0  0  0  0  0
    2.0053   28.9184   60.7728 C   0  0  0  0  0
    1.5435   27.5451   61.2504 C   0  0  0  0  0
    1.4783   26.5192   60.1068 C   0  0  0  0  0
    2.8000   25.8314   59.7529 C   0  0  0  0  0
    3.9922   26.7641   59.8994 C   0  0  0  0  0
    4.6234   26.6091   61.2791 C   0  0  0  0  0
    3.6708   26.7464   62.4378 C   0  0  0  0  0
    1.9770   26.9999   63.6581 C   0  0  0  0  0
    1.8108   30.0626   58.7447 C   0  0  0  0  0
    1.9928   29.0484   57.6245 C   0  0  0  0  0
    3.0025   29.5358   56.6407 C   0  0  0  0  0
    1.0438   29.4773   59.8348 N   0  0  0  0  0
    4.0393   26.4641   63.7061 N   0  0  0  0  0
    2.3598   27.0866   62.3743 N   0  0  0  0  0
    0.7243   28.8089   56.9567 N   0  0  0  0  0
    2.9690   26.6336   64.4292 O   0  0  0  0  0
    0.8146   27.2518   64.0728 O   0  0  0  0  0
    2.8063   30.5980   55.9921 O   0  0  0  0  0
    4.1677   28.8094   56.4372 O   0  0  0  0  0
  1  2  1  0  0  0
  2 14  1  0  0  0
  3 14  1  0  0  0
  4  3  1  0  0  0
  4  5  1  0  0  0
  4 16  1  0  0  0
  5  6  1  0  0  0
  6  7  1  0  0  0
  7  8  1  0  0  0
  8  9  1  0  0  0
 10 18  1  0  0  0
 10 16  1  0  0  0
 11 14  1  0  0  0
 12 11  1  0  0  0
 12 13  1  0  0  0
 12 17  1  0  0  0
 13 21  1  0  0  0
 15 18  1  0  0  0
 16  9  1  0  0  0
  9 15  2  0  0  0
 10 19  2  0  0  0
 13 20  2  0  0  0
M  END
> <rmsd>
0.477821052

$$$$
PubChem-7896823 ZINC000006142038 ZINC06142038


 29 31  0  0  0  0  0  0  0  0999 V2000
    4.4662   20.9313   66.8467 C   0  0  0  0  0
    3.5022   21.8951   66.2549 C   0  0  0  0  0
    2.5883   23.8756   65.7509 C   0  0  0  0  0
    1.6695   23.0665   65.0817 C   0  0  0  0  0
    2.4990   25.3633   65.7309 C   0  0  0  0  0
    3.3336   25.9186   64.6218 C   0  0  0  0  0
    2.7898   26.1555   63.2603 C   0  0  0  0  0
    3.6967   26.3793   62.2126 C   0  0  0  0  0
    3.2481   26.5994   60.9095 C   0  0  0  0  0
    1.8759   26.6017   60.6273 C   0  0  0  0  0
    0.9641   26.3893   61.6629 C   0  0  0  0  0
    1.4046   26.1705   62.9720 C   0  0  0  0  0
    2.2521   27.0418   58.2239 C   0  0  0  0  0
    1.4214   27.3673   56.9843 C   0  0  0  0  0
    2.2298   27.4046   55.6768 C   0  0  0  0  0
    3.0361   28.6912   55.5413 C   0  0  0  0  0
    2.1030   29.8745   55.7706 C   0  0  0  0  0
    1.2971   29.7298   57.0725 C   0  0  0  0  0
    2.0852   30.0571   58.3403 C   0  0  0  0  0
    3.6016   23.2312   66.3915 N   0  0  0  0  0
    2.1682   21.4769   65.3334 S   0  0  0  0  0
    4.5528   26.1411   64.8529 O   0  0  0  0  0
    0.4515   25.9872   63.9663 O   0  0  0  0  0
    1.3935   26.8181   59.3344 O   0  0  0  0  0
    0.5826   28.5027   57.1606 O   0  0  0  0  0
    1.2155   30.1590   59.4258 O   0  0  0  0  0
    2.8058   31.0813   55.7387 O   0  0  0  0  0
    4.1016   28.7117   56.4475 O   0  0  0  0  0
    3.0527   26.2822   55.5558 O   0  0  0  0  0
  1  2  1  0  0  0
  2 21  1  0  0  0
  3 20  1  0  0  0
  4 21  1  0  0  0
  5  3  1  0  0  0
  5  6  1  0  0  0
  6  7  1  0  0  0
  8  9  1  0  0  0
 10 11  1  0  0  0
 10 24  1  0  0  0
 12 23  1  0  0  0
 12  7  1  0  0  0
 13 24  1  0  0  0
 14 13  1  0  0  0
 14 15  1  0  0  0
 14 25  1  0  0  0
 15 16  1  0  0  0
 15 29  1  0  0  0
 16 17  1  0  0  0
 16 28  1  0  0  0
 17 18  1  0  0  0
 17 27  1  0  0  0
 18 25  1  0  0  0
 18 19  1  0  0  0
 19 26  1  0  0  0
  2 20  2  0  0  0
  3  4  2  0  0  0
  6 22  2  0  0  0
  7  8  2  0  0  0
  9 10  2  0  0  0
 11 12  2  0  0  0
M  END
> <rmsd>
0.581874192

$$$$
PubChem-120441543 CSC057040452 MCULE-3730327471


 22 22  0  0  0  0  0  0  0  0999 V2000
    6.1222   28.9948   61.9615 C   0  0  0  0  0
    6.4223   28.3212   63.2876 C   0  0  0  0  0
    5.1570   27.7224   63.8744 C   0  0  0  0  0
    4.7865   26.4459   63.1404 C   0  0  0  0  0
    2.7208   25.9526   62.5141 C   0  0  0  0  0
    2.0981   24.5778   62.3532 C   0  0  0  0  0
    1.6557   26.9971   62.6667 C   0  0  0  0  0
    0.5617   29.1277   61.9211 C   0  0  0  0  0
    0.0604   29.5945   60.5595 C   0  0  0  0  0
    1.9619   28.8924   59.4453 C   0  0  0  0  0
    2.5771   28.2748   60.7046 C   0  0  0  0  0
    1.2547   27.8449   58.5837 C   0  0  0  0  0
   -0.3375   27.7628   56.8880 C   0  0  0  0  0
    1.9122   28.0063   56.3392 C   0  0  0  0  0
    2.8865   29.1133   56.1234 C   0  0  0  0  0
    3.5685   25.9641   63.6247 O   0  0  0  0  0
    0.8527   26.9262   63.6376 O   0  0  0  0  0
    1.1400   30.0079   59.7479 O   0  0  0  0  0
    4.0983   28.9484   56.4180 O   0  0  0  0  0
    2.4611   30.3239   55.5926 O   0  0  0  0  0
    1.5491   28.0729   61.7229 N   0  0  0  0  0
    0.8937   28.4148   57.2946 N   0  0  0  0  0
  1  2  1  0  0  0
  2  3  1  0  0  0
  3  4  1  0  0  0
  4 16  1  0  0  0
  5 16  1  0  0  0
  5  6  1  0  0  0
  5  7  1  0  0  0
  7 21  1  0  0  0
  8 21  1  0  0  0
  8  9  1  0  0  0
  9 18  1  0  0  0
 10 18  1  0  0  0
 10 11  1  0  0  0
 10 12  1  0  0  0
 11 21  1  0  0  0
 12 22  1  0  0  0
 13 22  1  0  0  0
 14 22  1  0  0  0
 14 15  1  0  0  0
 15 20  1  0  0  0
  7 17  2  0  0  0
 15 19  2  0  0  0
M  END
> <rmsd>
0.602675378

$$$$
PubChem-128779


 34 36  0  0  0  0  0  0  0  0999 V2000
    5.9902   22.9833   62.6941 C   0  0  0  0  0
    5.5881   24.2481   63.4337 C   0  0  0  0  0
    6.7370   25.2511   63.4503 C   0  0  0  0  0
    8.0344   24.6799   63.9977 C   0  0  0  0  0
    9.1848   25.6353   63.7069 C   0  0  0  0  0
    9.4745   25.7166   62.2380 C   0  0  0  0  0
    8.6553   26.6034   61.3503 C   0  0  0  0  0
    7.8758   25.7745   60.3416 C   0  0  0  0  0
    7.2084   26.6827   59.3140 C   0  0  0  0  0
    5.8340   27.1652   59.6883 C   0  0  0  0  0
    5.1735   26.7885   60.7841 C   0  0  0  0  0
    3.8173   27.2826   61.1155 C   0  0  0  0  0
    3.1868   28.1936   60.2555 C   0  0  0  0  0
    1.9268   28.7239   60.5555 C   0  0  0  0  0
    1.2922   28.3434   61.7362 C   0  0  0  0  0
    1.8959   27.4388   62.6115 C   0  0  0  0  0
    3.1609   26.8904   62.3101 C   0  0  0  0  0
    3.7923   25.9326   63.2449 C   0  0  0  0  0
    1.8193   30.0979   58.4634 C   0  0  0  0  0
    1.9254   28.9576   57.4412 C   0  0  0  0  0
    2.9417   29.2803   56.3394 C   0  0  0  0  0
    3.1223   30.7902   56.1579 C   0  0  0  0  0
    3.3969   31.4858   57.5191 C   0  0  0  0  0
    2.8596   32.9097   57.6184 C   0  0  0  0  0
   10.4144   25.0917   61.7743 O   0  0  0  0  0
    3.7090   26.1102   64.4907 O   0  0  0  0  0
    4.4988   24.8393   62.7400 O   0  0  0  0  0
    1.2181   27.0779   63.7706 O   0  0  0  0  0
    1.2836   29.6322   59.7029 O   0  0  0  0  0
    3.0696   30.7159   58.6642 O   0  0  0  0  0
    3.4439   33.5585   58.7065 O   0  0  0  0  0
    1.9880   31.3184   55.5338 O   0  0  0  0  0
    4.1691   28.6916   56.6480 O   0  0  0  0  0
    0.6735   28.7237   56.8734 O   0  0  0  0  0
  2  1  1  0  0  0
  2  3  1  0  0  0
  2 27  1  0  0  0
  3  4  1  0  0  0
  4  5  1  0  0  0
  5  6  1  0  0  0
  7  6  1  0  0  0
  7  8  1  0  0  0
  8  9  1  0  0  0
  9 10  1  0  0  0
 11 12  1  0  0  0
 13 14  1  0  0  0
 14 29  1  0  0  0
 15 16  1  0  0  0
 16 28  1  0  0  0
 17 18  1  0  0  0
 17 12  1  0  0  0
 18 27  1  0  0  0
 19 29  1  0  0  0
 19 20  1  0  0  0
 19 30  1  0  0  0
 20 21  1  0  0  0
 20 34  1  0  0  0
 21 22  1  0  0  0
 21 33  1  0  0  0
 22 23  1  0  0  0
 22 32  1  0  0  0
 23 30  1  0  0  0
 23 24  1  0  0  0
 24 31  1  0  0  0
  6 25  2  0  0  0
 10 11  2  0  0  0
 12 13  2  0  0  0
 14 15  2  0  0  0
 16 17  2  0  0  0
 18 26  2  0  0  0
M  END
> <rmsd>
0.63832885

$$$$
PubChem-7514105 ZINC000005124374 ZINC05124374


 28 30  0  0  0  0  0  0  0  0999 V2000
    0.9115   21.6432   63.3575 C   0  0  0  0  0
    0.1643   22.7938   63.0873 C   0  0  0  0  0
    0.5938   24.0349   63.5669 C   0  0  0  0  0
    1.7697   24.1266   64.3210 C   0  0  0  0  0
    2.5192   22.9745   64.5858 C   0  0  0  0  0
    2.0890   21.7336   64.1060 C   0  0  0  0  0
    2.2403   25.4529   64.8147 C   0  0  0  0  0
    3.1191   26.1100   63.7981 C   0  0  0  0  0
    2.5845   27.0306   62.7630 C   0  0  0  0  0
    3.4032   27.3457   61.6673 C   0  0  0  0  0
    2.9536   28.1967   60.6567 C   0  0  0  0  0
    1.6697   28.7534   60.7228 C   0  0  0  0  0
    0.8506   28.4559   61.8134 C   0  0  0  0  0
    1.2938   27.6062   62.8319 C   0  0  0  0  0
    1.9264   29.9310   58.5528 C   0  0  0  0  0
    1.8893   28.7654   57.5533 C   0  0  0  0  0
    2.7269   29.1142   56.3252 C   0  0  0  0  0
    2.3597   30.5098   55.8061 C   0  0  0  0  0
    2.2713   31.5470   56.9401 C   0  0  0  0  0
    3.6338   32.0109   57.4622 C   0  0  0  0  0
    4.3468   25.8231   63.8021 O   0  0  0  0  0
    0.4443   27.3629   63.9042 O   0  0  0  0  0
    1.1870   29.6082   59.7262 O   0  0  0  0  0
    1.4081   31.1123   57.9761 O   0  0  0  0  0
    3.4666   33.0972   58.3207 O   0  0  0  0  0
    3.2395   30.9241   54.8032 O   0  0  0  0  0
    4.0853   29.0457   56.6458 O   0  0  0  0  0
    0.5733   28.4937   57.1715 O   0  0  0  0  0
  2  3  1  0  0  0
  4  5  1  0  0  0
  6  1  1  0  0  0
  7  4  1  0  0  0
  7  8  1  0  0  0
  8  9  1  0  0  0
 10 11  1  0  0  0
 12 13  1  0  0  0
 12 23  1  0  0  0
 14 22  1  0  0  0
 14  9  1  0  0  0
 15 23  1  0  0  0
 15 16  1  0  0  0
 15 24  1  0  0  0
 16 17  1  0  0  0
 16 28  1  0  0  0
 17 18  1  0  0  0
 17 27  1  0  0  0
 18 19  1  0  0  0
 18 26  1  0  0  0
 19 24  1  0  0  0
 19 20  1  0  0  0
 20 25  1  0  0  0
  1  2  2  0  0  0
  3  4  2  0  0  0
  5  6  2  0  0  0
  8 21  2  0  0  0
  9 10  2  0  0  0
 11 12  2  0  0  0
 13 14  2  0  0  0
M  END
> <rmsd>
0.581728041

$$$$
PubChem-162917288


 34 37  0  0  0  0  0  0  0  0999 V2000
    7.3752   20.8271   66.6184 C   0  0  0  0  0
    7.0009   22.2297   64.6151 C   0  0  0  0  0
    5.8472   22.8162   65.1569 C   0  0  0  0  0
    5.1290   23.7639   64.4234 C   0  0  0  0  0
    5.5462   24.1480   63.1382 C   0  0  0  0  0
    6.6991   23.5471   62.6029 C   0  0  0  0  0
    7.4192   22.5991   63.3346 C   0  0  0  0  0
    4.7827   25.1475   62.3345 C   0  0  0  0  0
    5.0008   25.2076   60.9533 C   0  0  0  0  0
    3.4655   26.9305   60.6672 C   0  0  0  0  0
    2.8346   27.8091   59.7854 C   0  0  0  0  0
    1.8883   28.7281   60.2491 C   0  0  0  0  0
    1.5717   28.7576   61.6064 C   0  0  0  0  0
    2.1931   27.8943   62.5138 C   0  0  0  0  0
    3.1606   26.9589   62.0510 C   0  0  0  0  0
    3.8505   26.0511   62.8933 C   0  0  0  0  0
    1.7577   27.9946   63.9395 C   0  0  0  0  0
    1.5240   29.6888   57.9911 C   0  0  0  0  0
    0.9460   30.9787   57.4062 C   0  0  0  0  0
    1.3140   31.0837   55.9258 C   0  0  0  0  0
    0.9578   29.7793   55.2084 C   0  0  0  0  0
    1.3964   28.5277   55.9941 C   0  0  0  0  0
    2.8387   28.1280   55.8322 C   0  0  0  0  0
    7.7460   21.2830   65.3238 O   0  0  0  0  0
    4.3537   26.0729   60.1859 O   0  0  0  0  0
    3.6474   26.0540   64.1377 O   0  0  0  0  0
    0.7687   27.0463   64.1987 O   0  0  0  0  0
    1.2494   29.6241   59.3860 O   0  0  0  0  0
    3.1236   27.1053   55.1557 O   0  0  0  0  0
    3.8593   28.8699   56.4157 O   0  0  0  0  0
    0.9732   28.5589   57.3449 O   0  0  0  0  0
    1.4528   29.7671   53.9023 O   0  0  0  0  0
    2.6717   31.3814   55.7694 O   0  0  0  0  0
    1.4300   32.0880   58.1025 O   0  0  0  0  0
  1 24  1  0  0  0
  2 24  1  0  0  0
  3  4  1  0  0  0
  5  6  1  0  0  0
  5  8  1  0  0  0
  7  2  1  0  0  0
  9 25  1  0  0  0
 10 25  1  0  0  0
 11 12  1  0  0  0
 12 28  1  0  0  0
 13 14  1  0  0  0
 15 16  1  0  0  0
 15 10  1  0  0  0
 16  8  1  0  0  0
 17 14  1  0  0  0
 17 27  1  0  0  0
 18 28  1  0  0  0
 18 19  1  0  0  0
 18 31  1  0  0  0
 19 20  1  0  0  0
 19 34  1  0  0  0
 20 21  1  0  0  0
 20 33  1  0  0  0
 21 22  1  0  0  0
 21 32  1  0  0  0
 22 23  1  0  0  0
 22 31  1  0  0  0
 23 30  1  0  0  0
  2  3  2  0  0  0
  4  5  2  0  0  0
  6  7  2  0  0  0
  8  9  2  0  0  0
 10 11  2  0  0  0
 12 13  2  0  0  0
 14 15  2  0  0  0
 16 26  2  0  0  0
 23 29  2  0  0  0
M  END
> <rmsd>
0.336887896

$$$$
PubChem-100972780


 26 27  0  0  0  0  0  0  0  0999 V2000
    4.2891   30.5881   65.7213 C   0  0  0  0  0
    4.0267   29.3516   64.8860 C   0  0  0  0  0
    2.6213   28.5543   62.2018 C   0  0  0  0  0
    1.6644   29.7239   62.0528 C   0  0  0  0  0
    1.8183   30.3551   60.6793 C   0  0  0  0  0
    0.6502   30.2969   58.8050 C   0  0  0  0  0
    0.9772   29.9280   57.3641 C   0  0  0  0  0
    2.4130   30.2559   57.0310 C   0  0  0  0  0
    2.7737   29.2016   56.0424 C   0  0  0  0  0
    1.8254   28.0715   56.3804 C   0  0  0  0  0
    0.5691   28.0725   54.2790 C   0  0  0  0  0
    0.1073   27.4434   53.1245 C   0  0  0  0  0
    0.4617   26.1132   52.9106 C   0  0  0  0  0
    1.6911   26.0912   54.9331 C   0  0  0  0  0
    2.7063   28.9346   65.0669 O   0  0  0  0  0
    3.3694   26.6279   63.9785 O   0  0  0  0  0
    1.3527   29.4813   59.6958 O   0  0  0  0  0
    0.7372   28.5595   57.1342 O   0  0  0  0  0
    2.4222   25.4581   55.7435 O   0  0  0  0  0
    0.0198   25.4510   51.7744 O   0  0  0  0  0
    4.0909   28.7917   56.2438 O   0  0  0  0  0
    2.4874   31.5143   56.4321 O   0  0  0  0  0
    0.8267   27.2265   63.9880 O   0  0  0  0  0
    2.4139   27.7948   63.8416 P   0  0  0  0  0
    1.3542   27.3970   55.1692 N   0  0  0  0  0
    1.2427   25.4646   53.8134 N   0  0  0  0  0
  1  2  1  0  0  0
  2 15  1  0  0  0
  3  4  1  0  0  0
  4  5  1  0  0  0
  5 17  1  0  0  0
  6 17  1  0  0  0
  7  6  1  0  0  0
  7  8  1  0  0  0
  7 18  1  0  0  0
  8  9  1  0  0  0
  8 22  1  0  0  0
  9 10  1  0  0  0
  9 21  1  0  0  0
 10 18  1  0  0  0
 10 25  1  0  0  0
 12 13  1  0  0  0
 13 20  1  0  0  0
 14 26  1  0  0  0
 14 25  1  0  0  0
 24 15  1  0  0  0
 24  3  1  0  0  0
 24 23  1  0  0  0
 25 11  1  0  0  0
 11 12  2  0  0  0
 13 26  2  0  0  0
 14 19  2  0  0  0
 24 16  2  0  0  0
M  CHG  1  20  -1
M  END
> <rmsd>
0.613827348

$$$$
PubChem-163025165


 35 37  0  0  0  0  0  0  0  0999 V2000
    0.7913   30.5774   60.6721 C   0  0  0  0  0
    1.6780   28.2921   60.2998 C   0  0  0  0  0
    1.4532   27.9478   61.6429 C   0  0  0  0  0
    1.7727   26.6735   62.1302 C   0  0  0  0  0
    2.3536   25.7418   61.2614 C   0  0  0  0  0
    2.5795   26.0685   59.9242 C   0  0  0  0  0
    2.2397   27.3300   59.4248 C   0  0  0  0  0
    2.0203   28.6972   57.3377 C   0  0  0  0  0
    2.7474   28.7906   55.9928 C   0  0  0  0  0
    2.2449   30.0177   55.2248 C   0  0  0  0  0
    0.7111   30.0367   55.2094 C   0  0  0  0  0
    0.1720   29.8021   56.6331 C   0  0  0  0  0
   -1.3484   29.7884   56.6492 C   0  0  0  0  0
    1.5551   26.3447   63.5968 C   0  0  0  0  0
    2.6537   26.9944   64.3917 C   0  0  0  0  0
    3.3334   28.6719   66.0307 C   0  0  0  0  0
    3.0553   29.6771   66.8639 C   0  0  0  0  0
    1.7229   30.2602   67.1140 C   0  0  0  0  0
    0.5627   29.8052   66.4666 C   0  0  0  0  0
   -0.6761   30.3932   66.7374 C   0  0  0  0  0
   -0.7648   31.4411   67.6574 C   0  0  0  0  0
    0.3851   31.9000   68.3054 C   0  0  0  0  0
    1.6236   31.3107   68.0334 C   0  0  0  0  0
   -0.7400   26.1319   63.4497 C   0  0  0  0  0
    1.3639   29.5765   59.8411 O   0  0  0  0  0
    2.4929   27.5699   58.0655 O   0  0  0  0  0
   -1.8401   31.0935   56.6241 O   0  0  0  0  0
    0.6368   28.5641   57.1143 O   0  0  0  0  0
    0.2538   31.2519   54.6927 O   0  0  0  0  0
    2.7368   31.1896   55.8115 O   0  0  0  0  0
    4.1278   28.8726   56.1889 O   0  0  0  0  0
    3.8464   26.6059   64.2467 O   0  0  0  0  0
    2.3520   28.0327   65.2760 O   0  0  0  0  0
    1.6277   24.9591   63.8164 O   0  0  0  0  0
    0.3095   26.8479   64.0532 O   0  0  0  0  0
  1 25  1  0  0  0
  2 25  1  0  0  0
  3  4  1  0  0  0
  5  6  1  0  0  0
  7 26  1  0  0  0
  7  2  1  0  0  0
  8 26  1  0  0  0
  8  9  1  0  0  0
  8 28  1  0  0  0
  9 10  1  0  0  0
  9 31  1  0  0  0
 10 11  1  0  0  0
 10 30  1  0  0  0
 11 12  1  0  0  0
 11 29  1  0  0  0
 12 13  1  0  0  0
 12 28  1  0  0  0
 13 27  1  0  0  0
 14  4  1  0  0  0
 14 15  1  0  0  0
 14 34  1  0  0  0
 14 35  1  0  0  0
 15 33  1  0  0  0
 16 33  1  0  0  0
 17 18  1  0  0  0
 19 20  1  0  0  0
 21 22  1  0  0  0
 23 18  1  0  0  0
 24 35  1  0  0  0
  2  3  2  0  0  0
  4  5  2  0  0  0
  6  7  2  0  0  0
 15 32  2  0  0  0
 16 17  2  0  0  0
 18 19  2  0  0  0
 20 21  2  0  0  0
 22 23  2  0  0  0
M  END
> <rmsd>
0.373502612

$$$$
PubChem-165024409


 24 25  0  0  0  0  0  0  0  0999 V2000
   -1.2938   28.8786   57.4637 C   0  0  0  0  0
   -0.1199   29.5919   56.8269 C   0  0  0  0  0
    2.4623   31.0240   58.0623 C   0  0  0  0  0
    2.6440   30.2931   59.3794 C   0  0  0  0  0
    1.3010   28.8895   60.9119 C   0  0  0  0  0
    2.3877   28.6744   61.7744 C   0  0  0  0  0
    2.2382   27.8768   62.9115 C   0  0  0  0  0
    0.9839   27.3007   63.2082 C   0  0  0  0  0
   -0.0977   27.5254   62.3521 C   0  0  0  0  0
    0.0614   28.3140   61.2091 C   0  0  0  0  0
    3.3852   27.7303   63.8791 C   0  0  0  0  0
    2.1288   24.2289   65.6915 C   0  0  0  0  0
    4.8331   29.7399   56.3537 C   0  0  0  0  0
    6.1465   28.9871   56.3295 C   0  0  0  0  0
    2.1243   29.7067   54.1589 C   0  0  0  0  0
    1.9826   30.3799   52.8102 C   0  0  0  0  0
    1.0028   28.7634   56.8630 O   0  0  0  0  0
    1.4239   29.6702   59.7605 O   0  0  0  0  0
    0.8093   26.4911   64.3358 O   0  0  0  0  0
    3.5523   26.4032   64.3169 O   0  0  0  0  0
    3.7889   28.8463   56.5962 O   0  0  0  0  0
    2.1897   30.6776   55.1591 O   0  0  0  0  0
    2.3574   29.8047   56.6360 Si  0  0  0  0  0
    2.1858   26.0549   65.3095 Si  0  0  0  0  0
  1  2  1  0  0  0
  2 17  1  0  0  0
  3  4  1  0  0  0
  4 18  1  0  0  0
  5 18  1  0  0  0
  6  7  1  0  0  0
  8  9  1  0  0  0
  8 19  1  0  0  0
 10  5  1  0  0  0
 11 20  1  0  0  0
 11  7  1  0  0  0
 12 24  1  0  0  0
 13 21  1  0  0  0
 13 14  1  0  0  0
 15 22  1  0  0  0
 15 16  1  0  0  0
 23 17  1  0  0  0
 23  3  1  0  0  0
 23 21  1  0  0  0
 23 22  1  0  0  0
 24 19  1  0  0  0
 24 20  1  0  0  0
  5  6  2  0  0  0
  7  8  2  0  0  0
  9 10  2  0  0  0
M  END
> <rmsd>
0.553100228

$$$$
PubChem-140456092


 34 36  0  0  0  0  0  0  0  0999 V2000
    5.9710   32.6109   57.3797 C   0  0  0  0  0
    4.5328   32.7390   57.8433 C   0  0  0  0  0
    3.8065   31.4122   57.6826 C   0  0  0  0  0
    3.4840   31.1114   56.2051 C   0  0  0  0  0
    2.7957   29.7452   56.1068 C   0  0  0  0  0
    1.6779   29.6212   57.1533 C   0  0  0  0  0
    2.1925   30.0824   58.5220 C   0  0  0  0  0
    1.2108   29.1834   60.6517 C   0  0  0  0  0
    2.3638   28.4833   61.1035 C   0  0  0  0  0
    2.2927   27.7113   62.2795 C   0  0  0  0  0
    1.0870   27.6353   63.0063 C   0  0  0  0  0
   -0.0352   28.3365   62.5596 C   0  0  0  0  0
    0.0304   29.0985   61.3955 C   0  0  0  0  0
    1.0408   26.8765   64.1837 C   0  0  0  0  0
    2.1977   26.1609   64.5790 C   0  0  0  0  0
    3.3642   26.2975   63.8003 C   0  0  0  0  0
    2.1921   25.2298   65.7327 C   0  0  0  0  0
   -0.3364   22.7949   64.8516 C   0  0  0  0  0
    3.1490   25.4428   66.8541 C   0  0  0  0  0
   -0.2205   26.8078   66.3441 C   0  0  0  0  0
    0.2270   28.1031   66.9427 C   0  0  0  0  0
   -0.4847   29.2127   66.7662 C   0  0  0  0  0
    3.6737   28.5501   60.3851 C   0  0  0  0  0
    3.3248   32.5652   54.5417 C   0  0  0  0  0
    2.6251   31.4187   58.4458 O   0  0  0  0  0
    1.1603   29.9755   59.4924 O   0  0  0  0  0
    4.4199   25.6861   64.1166 O   0  0  0  0  0
    3.3651   27.0534   62.7086 O   0  0  0  0  0
    0.5129   23.9237   64.7596 O   0  0  0  0  0
   -0.1563   26.8653   64.9222 O   0  0  0  0  0
    1.2203   28.3033   57.2224 O   0  0  0  0  0
    3.7445   28.7332   56.2802 O   0  0  0  0  0
    2.6501   32.1002   55.6714 O   0  0  0  0  0
    1.3964   24.2060   65.7768 N   0  0  0  0  0
  1  2  1  0  0  0
  3  2  1  0  0  0
  3  4  1  0  0  0
  3 25  1  0  0  0
  4  5  1  0  0  0
  4 33  1  0  0  0
  5  6  1  0  0  0
  5 32  1  0  0  0
  6  7  1  0  0  0
  6 31  1  0  0  0
  7 25  1  0  0  0
  7 26  1  0  0  0
  8 26  1  0  0  0
  9 10  1  0  0  0
 10 28  1  0  0  0
 11 12  1  0  0  0
 11 14  1  0  0  0
 13  8  1  0  0  0
 14 30  1  0  0  0
 15 16  1  0  0  0
 15 17  1  0  0  0
 16 28  1  0  0  0
 18 29  1  0  0  0
 19 17  1  0  0  0
 20 30  1  0  0  0
 20 21  1  0  0  0
 23  9  1  0  0  0
 24 33  1  0  0  0
 34 29  1  0  0  0
  8  9  2  0  0  0
 10 11  2  0  0  0
 12 13  2  0  0  0
 14 15  2  0  0  0
 16 27  2  0  0  0
 17 34  2  0  0  0
 21 22  2  0  0  0
M  END
> <rmsd>
0.635159135

$$$$
PubChem-135005542


 34 37  0  0  0  0  0  0  0  0999 V2000
   -0.2775   22.4871   64.1945 C   0  0  0  0  0
    0.8244   21.8302   63.6430 C   0  0  0  0  0
    1.9892   22.5418   63.3475 C   0  0  0  0  0
    2.0571   23.9325   63.6067 C   0  0  0  0  0
    0.9398   24.5903   64.1639 C   0  0  0  0  0
   -0.2205   23.8587   64.4533 C   0  0  0  0  0
    0.9966   26.0408   64.4367 C   0  0  0  0  0
    3.3247   26.0886   63.5690 C   0  0  0  0  0
    3.2407   24.6383   63.3034 C   0  0  0  0  0
    4.3317   23.9542   62.7494 C   0  0  0  0  0
    4.2550   22.5823   62.4971 C   0  0  0  0  0
    3.0868   21.8777   62.7954 C   0  0  0  0  0
    2.2433   28.2174   64.3403 C   0  0  0  0  0
    1.7769   28.9305   63.0840 C   0  0  0  0  0
    3.7795   30.6862   62.9993 C   0  0  0  0  0
    4.0742   30.3924   61.5680 C   0  0  0  0  0
    4.8162   29.3362   61.2459 C   0  0  0  0  0
    5.0912   29.0146   59.8151 C   0  0  0  0  0
    3.6632   29.3736   58.1563 C   0  0  0  0  0
    2.2750   30.0461   58.3125 C   0  0  0  0  0
    1.4431   29.9744   57.0210 C   0  0  0  0  0
    2.3053   30.2344   55.7791 C   0  0  0  0  0
    3.7266   29.6691   55.9292 C   0  0  0  0  0
    4.1862   29.0844   54.6069 C   0  0  0  0  0
   -0.0024   26.6323   64.9312 O   0  0  0  0  0
    4.3829   26.7216   63.3008 O   0  0  0  0  0
    3.9381   28.5022   59.2149 O   0  0  0  0  0
    3.7740   28.6856   56.9336 O   0  0  0  0  0
    5.5339   28.7340   54.6869 O   0  0  0  0  0
    2.3743   31.6054   55.5321 O   0  0  0  0  0
    0.8358   28.7215   56.9032 O   0  0  0  0  0
    1.5542   29.5286   59.3935 O   0  0  0  0  0
    2.1955   26.7741   64.1356 N   0  0  0  0  0
    1.9797   30.7279   63.2726 S   0  0  0  0  0
  2  3  1  0  0  0
  4  5  1  0  0  0
  5  7  1  0  0  0
  6  1  1  0  0  0
  7 33  1  0  0  0
  8  9  1  0  0  0
  9  4  1  0  0  0
 10 11  1  0  0  0
 12  3  1  0  0  0
 13 33  1  0  0  0
 13 14  1  0  0  0
 14 34  1  0  0  0
 15 34  1  0  0  0
 15 16  1  0  0  0
 18 17  1  0  0  0
 18 27  1  0  0  0
 19 27  1  0  0  0
 19 20  1  0  0  0
 19 28  1  0  0  0
 20 21  1  0  0  0
 20 32  1  0  0  0
 21 22  1  0  0  0
 21 31  1  0  0  0
 22 23  1  0  0  0
 22 30  1  0  0  0
 23 28  1  0  0  0
 23 24  1  0  0  0
 24 29  1  0  0  0
 33  8  1  0  0  0
  1  2  2  0  0  0
  3  4  2  0  0  0
  5  6  2  0  0  0
  7 25  2  0  0  0
  8 26  2  0  0  0
  9 10  2  0  0  0
 11 12  2  0  0  0
 16 17  2  0  0  0
M  END
> <rmsd>
0.62342608

$$$$
PubChem-129575258 585270997 ZINC000585270997


 35 38  0  0  0  0  0  0  0  0999 V2000
   -0.4089   26.7154   63.9032 C   0  0  0  0  0
    1.8685   27.4251   63.2411 C   0  0  0  0  0
    1.3719   28.4380   62.4044 C   0  0  0  0  0
    2.2460   29.2597   61.6865 C   0  0  0  0  0
    1.7042   30.3439   60.7942 C   0  0  0  0  0
    0.4248   28.8564   59.4048 C   0  0  0  0  0
   -0.2044   28.7290   58.0188 C   0  0  0  0  0
    1.3484   29.4628   56.6053 C   0  0  0  0  0
    2.7014   29.7137   57.2866 C   0  0  0  0  0
    3.1030   31.1704   57.0919 C   0  0  0  0  0
    4.4911   31.9116   55.1809 C   0  0  0  0  0
    5.6253   32.0908   55.9903 C   0  0  0  0  0
    6.8273   32.5334   55.4303 C   0  0  0  0  0
    6.9034   32.7991   54.0604 C   0  0  0  0  0
    8.1808   33.2696   53.4646 C   0  0  0  0  0
    5.7779   32.6224   53.2505 C   0  0  0  0  0
    4.5756   32.1797   53.8104 C   0  0  0  0  0
    2.6603   29.4147   58.7909 C   0  0  0  0  0
    3.6260   29.0769   61.8084 C   0  0  0  0  0
    4.1281   28.0730   62.6385 C   0  0  0  0  0
    3.2548   27.2419   63.3592 C   0  0  0  0  0
    5.1254   26.0313   64.4685 C   0  0  0  0  0
    5.6535   27.1248   65.3887 C   0  0  0  0  0
    4.9807   26.1601   67.5959 C   0  0  0  0  0
    4.1632   26.5669   68.6379 C   0  0  0  0  0
    4.1185   28.0738   67.1293 C   0  0  0  0  0
    3.7805   29.3292   66.4004 C   0  0  0  0  0
    1.0057   26.5945   63.9643 O   0  0  0  0  0
    0.7482   28.2928   57.0883 O   0  0  0  0  0
    3.6647   28.8903   56.7021 O   0  0  0  0  0
    3.2762   31.4688   55.7102 O   0  0  0  0  0
    3.7405   26.2309   64.1980 O   0  0  0  0  0
    1.4336   29.9168   59.4137 N   0  0  0  0  0
    4.9359   27.1193   66.6566 N   0  0  0  0  0
    3.6225   27.7697   68.3415 N   0  0  0  0  0
  1 28  1  0  0  0
  2 28  1  0  0  0
  3  4  1  0  0  0
  5  4  1  0  0  0
  5 33  1  0  0  0
  6 33  1  0  0  0
  6  7  1  0  0  0
  7 29  1  0  0  0
  8 29  1  0  0  0
  8  9  1  0  0  0
  9 30  1  0  0  0
  9 10  1  0  0  0
  9 18  1  0  0  0
 10 31  1  0  0  0
 11 31  1  0  0  0
 12 13  1  0  0  0
 14 16  1  0  0  0
 15 14  1  0  0  0
 17 11  1  0  0  0
 18 33  1  0  0  0
 19 20  1  0  0  0
 21 32  1  0  0  0
 21  2  1  0  0  0
 22 32  1  0  0  0
 22 23  1  0  0  0
 23 34  1  0  0  0
 25 35  1  0  0  0
 26 34  1  0  0  0
 27 26  1  0  0  0
 34 24  1  0  0  0
  2  3  2  0  0  0
  4 19  2  0  0  0
 11 12  2  0  0  0
 13 14  2  0  0  0
 16 17  2  0  0  0
 20 21  2  0  0  0
 24 25  2  0  0  0
 26 35  2  0  0  0
M  END
> <rmsd>
0.445263565

$$$$
PubChem-129575258 585270997 ZINC000585270997


 35 38  0  0  0  0  0  0  0  0999 V2000
   -0.3831   26.6817   63.9960 C   0  0  0  0  0
    1.9029   27.4163   63.3783 C   0  0  0  0  0
    1.3943   28.3341   62.4435 C   0  0  0  0  0
    2.2518   29.1201   61.6705 C   0  0  0  0  0
    1.6895   30.0977   60.6746 C   0  0  0  0  0
    0.4769   28.4521   59.4041 C   0  0  0  0  0
    0.1830   27.8367   58.0314 C   0  0  0  0  0
    1.7118   28.4480   56.5428 C   0  0  0  0  0
    2.7854   29.2828   57.2543 C   0  0  0  0  0
    2.6113   30.7682   56.9417 C   0  0  0  0  0
    3.7356   31.8519   55.0215 C   0  0  0  0  0
    3.8040   32.0344   53.6361 C   0  0  0  0  0
    4.7798   32.8681   53.0812 C   0  0  0  0  0
    5.6934   33.5242   53.9110 C   0  0  0  0  0
    6.7300   34.4103   53.3208 C   0  0  0  0  0
    5.6319   33.3470   55.2959 C   0  0  0  0  0
    4.6565   32.5136   55.8509 C   0  0  0  0  0
    2.7328   29.0583   58.7700 C   0  0  0  0  0
    3.6329   28.9955   61.8276 C   0  0  0  0  0
    4.1526   28.0917   62.7550 C   0  0  0  0  0
    3.3061   27.3027   63.5421 C   0  0  0  0  0
    3.2328   25.7458   65.5030 C   0  0  0  0  0
    2.9800   26.7002   66.6587 C   0  0  0  0  0
    2.5241   25.0043   68.4383 C   0  0  0  0  0
    1.4650   24.7339   69.2896 C   0  0  0  0  0
    0.9327   26.4030   68.0733 C   0  0  0  0  0
    0.1553   27.5377   67.4993 C   0  0  0  0  0
    1.0309   26.6147   64.1241 O   0  0  0  0  0
    0.4249   28.7578   57.0057 O   0  0  0  0  0
    4.0378   28.8701   56.7992 O   0  0  0  0  0
    2.7503   31.0113   55.5456 O   0  0  0  0  0
    3.9122   26.4241   64.4539 O   0  0  0  0  0
    1.4668   29.5336   59.3362 N   0  0  0  0  0
    2.1673   26.0530   67.6783 N   0  0  0  0  0
    0.4665   25.6148   69.0579 N   0  0  0  0  0
  1 28  1  0  0  0
  2 28  1  0  0  0
  3  4  1  0  0  0
  5  4  1  0  0  0
  5 33  1  0  0  0
  6 33  1  0  0  0
  6  7  1  0  0  0
  7 29  1  0  0  0
  8 29  1  0  0  0
  8  9  1  0  0  0
  9 30  1  0  0  0
  9 10  1  0  0  0
  9 18  1  0  0  0
 10 31  1  0  0  0
 11 31  1  0  0  0
 12 13  1  0  0  0
 14 16  1  0  0  0
 15 14  1  0  0  0
 17 11  1  0  0  0
 18 33  1  0  0  0
 19 20  1  0  0  0
 21 32  1  0  0  0
 21  2  1  0  0  0
 22 32  1  0  0  0
 22 23  1  0  0  0
 23 34  1  0  0  0
 25 35  1  0  0  0
 26 34  1  0  0  0
 27 26  1  0  0  0
 34 24  1  0  0  0
  2  3  2  0  0  0
  4 19  2  0  0  0
 11 12  2  0  0  0
 13 14  2  0  0  0
 16 17  2  0  0  0
 20 21  2  0  0  0
 24 25  2  0  0  0
 26 35  2  0  0  0
M  END
> <rmsd>
0.450412244

$$$$
PubChem-102076720


 33 37  0  0  0  0  0  0  0  0999 V2000
   -1.7695   33.1489   61.6389 C   0  0  0  0  0
   -0.7580   32.0851   61.4096 C   0  0  0  0  0
   -0.2328   29.6802   61.2283 C   0  0  0  0  0
    0.0157   29.5229   59.7565 C   0  0  0  0  0
   -0.7304   28.2436   59.4160 C   0  0  0  0  0
    0.0421   27.5011   58.3364 C   0  0  0  0  0
    1.6637   29.1039   58.1636 C   0  0  0  0  0
    2.0334   30.3999   57.4574 C   0  0  0  0  0
    1.8139   29.3325   54.7661 C   0  0  0  0  0
    0.7985   30.0938   54.1767 C   0  0  0  0  0
   -0.0740   29.5057   53.2562 C   0  0  0  0  0
    0.0653   28.1545   52.9251 C   0  0  0  0  0
    1.0770   27.3910   53.5149 C   0  0  0  0  0
    1.9499   27.9790   54.4351 C   0  0  0  0  0
   -0.8741   28.3680   61.6425 C   0  0  0  0  0
   -0.7254   27.6059   64.0339 C   0  0  0  0  0
    1.2887   26.9452   64.1681 C   0  0  0  0  0
    1.0732   27.3892   62.9121 C   0  0  0  0  0
    3.2672   26.8968   62.2949 C   0  0  0  0  0
    2.5372   26.4548   64.5232 C   0  0  0  0  0
    0.4387   32.4044   61.1753 O   0  0  0  0  0
   -1.1464   30.7449   61.4608 O   0  0  0  0  0
    0.6153   28.4430   57.4686 O   0  0  0  0  0
    1.4008   29.3584   59.5409 O   0  0  0  0  0
    4.0584   29.1560   56.2016 O   0  0  0  0  0
    3.4215   31.3637   55.3689 O   0  0  0  0  0
   -0.8217   27.4576   60.5723 O   0  0  0  0  0
    2.8974   30.0728   55.9318 S   0  0  0  0  0
   -0.1914   27.8130   62.8041 N   0  0  0  0  0
    0.1713   27.0670   64.9089 N   0  0  0  0  0
    2.0328   27.3778   61.9550 N   0  0  0  0  0
    3.5125   26.4422   63.5666 N   0  0  0  0  0
    2.8031   25.9809   65.8384 N   0  0  0  0  0
  1  2  1  0  0  0
  2 22  1  0  0  0
  3 22  1  0  0  0
  3  4  1  0  0  0
  4  5  1  0  0  0
  4 24  1  0  0  0
  5  6  1  0  0  0
  5 27  1  0  0  0
  6 23  1  0  0  0
  7 23  1  0  0  0
  7 24  1  0  0  0
  7  8  1  0  0  0
  8 28  1  0  0  0
 10 11  1  0  0  0
 12 13  1  0  0  0
 14  9  1  0  0  0
 15 27  1  0  0  0
 15 29  1  0  0  0
 15  3  1  0  0  0
 17 30  1  0  0  0
 18 31  1  0  0  0
 18 29  1  0  0  0
 19 32  1  0  0  0
 20 33  1  0  0  0
 20 17  1  0  0  0
 28  9  1  0  0  0
 29 16  1  0  0  0
  2 21  2  0  0  0
  9 10  2  0  0  0
 11 12  2  0  0  0
 13 14  2  0  0  0
 16 30  2  0  0  0
 17 18  2  0  0  0
 19 31  2  0  0  0
 20 32  2  0  0  0
 28 25  2  0  0  0
 28 26  2  0  0  0
M  END
> <rmsd>
0.599658966

$$$$
PubChem-61738554


 20 21  0  0  0  0  0  0  0  0999 V2000
    4.9365   25.9791   64.7735 C   0  0  0  0  0
    3.0727   27.1956   63.6802 C   0  0  0  0  0
    1.6802   27.4277   63.5429 C   0  0  0  0  0
    1.2349   28.3799   62.6185 C   0  0  0  0  0
    2.1395   29.1031   61.8386 C   0  0  0  0  0
    3.5084   28.8704   61.9665 C   0  0  0  0  0
    3.9712   27.9256   62.8824 C   0  0  0  0  0
    1.6410   30.0932   60.8430 C   0  0  0  0  0
    0.0380   29.2411   59.3499 C   0  0  0  0  0
   -0.2729   28.8851   57.8864 C   0  0  0  0  0
    1.5658   29.9561   57.1249 C   0  0  0  0  0
    1.9757   30.3958   58.5426 C   0  0  0  0  0
    2.7611   29.8911   56.2354 C   0  0  0  0  0
    0.9634   25.7565   65.2627 C   0  0  0  0  0
    3.5527   26.2519   64.5958 O   0  0  0  0  0
    0.9109   28.7089   57.1453 O   0  0  0  0  0
    3.6933   29.0789   56.4756 O   0  0  0  0  0
    2.8426   30.7280   55.1309 O   0  0  0  0  0
    0.6997   26.7529   64.2855 O   0  0  0  0  0
    1.4752   29.4550   59.5475 N   0  0  0  0  0
  1 15  1  0  0  0
  2 15  1  0  0  0
  3  4  1  0  0  0
  3 19  1  0  0  0
  5  6  1  0  0  0
  7  2  1  0  0  0
  8  5  1  0  0  0
  8 20  1  0  0  0
  9 20  1  0  0  0
  9 10  1  0  0  0
 10 16  1  0  0  0
 11 16  1  0  0  0
 11 12  1  0  0  0
 11 13  1  0  0  0
 12 20  1  0  0  0
 13 18  1  0  0  0
 14 19  1  0  0  0
  2  3  2  0  0  0
  4  5  2  0  0  0
  6  7  2  0  0  0
 13 17  2  0  0  0
M  END
> <rmsd>
0.512660146

$$$$
PubChem-162793358


 29 31  0  0  0  0  0  0  0  0999 V2000
   -2.8931   24.2755   59.0569 C   0  0  0  0  0
   -3.4451   24.8881   60.3264 C   0  0  0  0  0
   -4.8959   24.4755   60.4889 C   0  0  0  0  0
   -3.3338   26.4031   60.2431 C   0  0  0  0  0
   -3.5458   27.0552   61.6055 C   0  0  0  0  0
   -2.3891   26.8071   62.5167 C   0  0  0  0  0
   -1.1188   27.3306   62.2099 C   0  0  0  0  0
   -0.0756   27.0651   63.0947 C   0  0  0  0  0
   -0.2703   26.3503   64.2516 C   0  0  0  0  0
   -1.5181   25.8287   64.5855 C   0  0  0  0  0
   -2.5850   26.0625   63.6999 C   0  0  0  0  0
    1.7803   26.9470   64.2741 C   0  0  0  0  0
    1.2502   27.4427   63.0924 C   0  0  0  0  0
    1.6529   28.2466   60.7813 C   0  0  0  0  0
    2.2530   29.3275   59.9455 C   0  0  0  0  0
    3.4287   28.7977   59.1590 C   0  0  0  0  0
    3.2980   29.4982   57.8512 C   0  0  0  0  0
    1.8089   29.7993   57.7616 C   0  0  0  0  0
    1.5859   31.1382   57.0698 C   0  0  0  0  0
    3.2013   27.0830   64.6971 C   0  0  0  0  0
    0.8555   26.2596   64.9867 N   0  0  0  0  0
    1.9486   28.2054   62.1471 O   0  0  0  0  0
    0.9633   27.3414   60.2372 O   0  0  0  0  0
    1.2881   29.8692   59.0692 O   0  0  0  0  0
    2.0055   31.0865   55.7385 O   0  0  0  0  0
    1.1325   28.7924   57.0627 O   0  0  0  0  0
    3.7316   28.6712   56.8114 O   0  0  0  0  0
    4.6218   29.1675   59.7787 O   0  0  0  0  0
    3.9440   26.0150   64.1950 O   0  0  0  0  0
  1  2  1  0  0  0
  2  3  1  0  0  0
  2  4  1  0  0  0
  4  5  1  0  0  0
  5  6  1  0  0  0
  7  8  1  0  0  0
  9 10  1  0  0  0
  9 21  1  0  0  0
 11  6  1  0  0  0
 12 21  1  0  0  0
 13 22  1  0  0  0
 13  8  1  0  0  0
 14 22  1  0  0  0
 15 14  1  0  0  0
 15 16  1  0  0  0
 15 24  1  0  0  0
 16 17  1  0  0  0
 16 28  1  0  0  0
 17 18  1  0  0  0
 17 27  1  0  0  0
 18 24  1  0  0  0
 18 19  1  0  0  0
 18 26  1  0  0  0
 19 25  1  0  0  0
 20 12  1  0  0  0
 20 29  1  0  0  0
  6  7  2  0  0  0
  8  9  2  0  0  0
 10 11  2  0  0  0
 12 13  2  0  0  0
 14 23  2  0  0  0
M  CHG  1  21  -1
M  END
> <rmsd>
0.590511084

$$$$
PubChem-164816475


 26 27  0  0  0  0  0  0  0  0999 V2000
    6.2702   28.5288   56.2631 C   0  0  0  0  0
    5.0797   29.4161   56.3135 C   0  0  0  0  0
    2.4824   31.0243   58.0650 C   0  0  0  0  0
    2.6563   30.2918   59.3819 C   0  0  0  0  0
    1.2944   28.9064   60.9147 C   0  0  0  0  0
    2.3800   28.6699   61.7731 C   0  0  0  0  0
    2.2207   27.8700   62.9072 C   0  0  0  0  0
    0.9577   27.3136   63.2054 C   0  0  0  0  0
   -0.1224   27.5595   62.3532 C   0  0  0  0  0
    0.0465   28.3502   61.2130 C   0  0  0  0  0
    3.3684   27.7002   63.8703 C   0  0  0  0  0
    2.0100   30.0534   53.9108 C   0  0  0  0  0
    1.8251   30.8822   52.6917 C   0  0  0  0  0
   -0.3214   29.1829   56.9929 C   0  0  0  0  0
   -1.4063   28.1978   57.2363 C   0  0  0  0  0
    5.2232   30.6554   56.1340 O   0  0  0  0  0
    3.8223   28.8599   56.5575 O   0  0  0  0  0
    1.4268   29.6895   59.7661 O   0  0  0  0  0
    0.7730   26.5021   64.3302 O   0  0  0  0  0
    3.5113   26.3699   64.3068 O   0  0  0  0  0
    2.1364   30.6811   55.1517 O   0  0  0  0  0
    2.0496   28.7979   53.8060 O   0  0  0  0  0
    0.9988   28.7371   56.9016 O   0  0  0  0  0
   -0.6089   30.4045   56.8750 O   0  0  0  0  0
    2.3570   29.8061   56.6465 Si  0  0  0  0  0
    2.1426   26.0488   65.3057 Si  0  0  0  0  0
  1  2  1  0  0  0
  2 17  1  0  0  0
  3  4  1  0  0  0
  4 18  1  0  0  0
  5 18  1  0  0  0
  6  7  1  0  0  0
  8  9  1  0  0  0
  8 19  1  0  0  0
 10  5  1  0  0  0
 11 20  1  0  0  0
 11  7  1  0  0  0
 12 21  1  0  0  0
 13 12  1  0  0  0
 14 23  1  0  0  0
 15 14  1  0  0  0
 25 17  1  0  0  0
 25  3  1  0  0  0
 25 21  1  0  0  0
 25 23  1  0  0  0
 26 19  1  0  0  0
 26 20  1  0  0  0
  2 16  2  0  0  0
  5  6  2  0  0  0
  7  8  2  0  0  0
  9 10  2  0  0  0
 12 22  2  0  0  0
 14 24  2  0  0  0
M  END
> <rmsd>
0.557408571

$$$$
PubChem-117725856 PubChem-57239359


 21 22  0  0  0  0  0  0  0  0999 V2000
    2.8584   27.6124   61.7991 C   0  0  0  0  0
    2.6417   28.3861   60.6559 C   0  0  0  0  0
    1.4492   29.1120   60.5079 C   0  0  0  0  0
    0.4821   29.0557   61.5157 C   0  0  0  0  0
    0.6986   28.2819   62.6594 C   0  0  0  0  0
    1.8886   27.5540   62.8094 C   0  0  0  0  0
    2.1044   29.9825   58.2752 C   0  0  0  0  0
    2.0177   28.7203   57.3990 C   0  0  0  0  0
    2.7795   28.9153   56.0864 C   0  0  0  0  0
    2.3972   30.2713   55.4728 C   0  0  0  0  0
    1.7966   31.2245   57.4300 C   0  0  0  0  0
    3.1047   30.4819   54.1448 C   0  0  0  0  0
    2.1144   26.7588   63.9811 N   0  0  0  0  0
    1.2547   26.7025   64.8850 O   0  0  0  0  0
    3.2836   26.0471   64.1229 O   0  0  0  0  0
    1.2030   29.8971   59.3767 O   0  0  0  0  0
    2.7094   31.3160   56.3633 O   0  0  0  0  0
    1.8971   32.3698   58.2201 O   0  0  0  0  0
    2.6130   31.6297   53.5233 O   0  0  0  0  0
    4.1546   28.8560   56.3296 O   0  0  0  0  0
    0.6840   28.4071   57.1229 O   0  0  0  0  0
  2  3  1  0  0  0
  3 16  1  0  0  0
  4  5  1  0  0  0
  6 13  1  0  0  0
  6  1  1  0  0  0
  7 16  1  0  0  0
  7  8  1  0  0  0
  8  9  1  0  0  0
  8 21  1  0  0  0
  9 10  1  0  0  0
  9 20  1  0  0  0
 10 17  1  0  0  0
 10 12  1  0  0  0
 11 17  1  0  0  0
 11 18  1  0  0  0
 11  7  1  0  0  0
 12 19  1  0  0  0
 13 15  1  0  0  0
  1  2  2  0  0  0
  3  4  2  0  0  0
  5  6  2  0  0  0
 13 14  2  0  0  0
M  CHG  2  13   1  15  -1
M  END
> <rmsd>
0.600755453

$$$$
PubChem-125440213 534635548 ZINC000534635548


 20 22  0  0  0  0  0  0  0  0999 V2000
    4.5134   29.6551   61.0803 C   0  0  0  0  0
    3.5303   28.9057   61.9143 C   0  0  0  0  0
    4.0141   27.9558   62.8331 C   0  0  0  0  0
    3.0832   27.2633   63.6011 C   0  0  0  0  0
    1.7493   27.4789   63.4844 C   0  0  0  0  0
    1.2262   28.4073   62.5899 C   0  0  0  0  0
    2.1316   29.1368   61.7956 C   0  0  0  0  0
    1.5872   30.1209   60.8108 C   0  0  0  0  0
   -0.0050   29.2489   59.3174 C   0  0  0  0  0
   -0.3140   28.9040   57.8509 C   0  0  0  0  0
    1.5162   29.9927   57.0917 C   0  0  0  0  0
    2.7250   29.9271   56.2230 C   0  0  0  0  0
    1.9090   30.4415   58.5109 C   0  0  0  0  0
    2.0400   25.8736   65.0745 C   0  0  0  0  0
    1.4286   29.4870   59.5125 N   0  0  0  0  0
    0.8719   28.7397   57.1104 O   0  0  0  0  0
    2.8105   30.6731   55.2136 O   0  0  0  0  0
    3.7556   29.0429   56.5185 O   0  0  0  0  0
    1.0716   26.6556   64.3611 O   0  0  0  0  0
    3.3105   26.2940   64.5575 O   0  0  0  0  0
  1  2  1  0  0  0
  3  4  1  0  0  0
  4 20  1  0  0  0
  5  6  1  0  0  0
  5 19  1  0  0  0
  7  2  1  0  0  0
  8  7  1  0  0  0
  8 15  1  0  0  0
  9 15  1  0  0  0
  9 10  1  0  0  0
 10 16  1  0  0  0
 11 16  1  0  0  0
 11 12  1  0  0  0
 11 13  1  0  0  0
 12 18  1  0  0  0
 13 15  1  0  0  0
 14 19  1  0  0  0
 14 20  1  0  0  0
  2  3  2  0  0  0
  4  5  2  0  0  0
  6  7  2  0  0  0
 12 17  2  0  0  0
M  END
> <rmsd>
0.581298292

$$$$
PubChem-165024406


 26 27  0  0  0  0  0  0  0  0999 V2000
    6.2702   28.5288   56.2631 C   0  0  0  0  0
    5.0797   29.4161   56.3135 C   0  0  0  0  0
    2.4824   31.0243   58.0650 C   0  0  0  0  0
    2.6563   30.2918   59.3819 C   0  0  0  0  0
    1.2944   28.9064   60.9147 C   0  0  0  0  0
    2.3800   28.6699   61.7731 C   0  0  0  0  0
    2.2207   27.8700   62.9072 C   0  0  0  0  0
    0.9577   27.3136   63.2054 C   0  0  0  0  0
   -0.1224   27.5595   62.3532 C   0  0  0  0  0
    0.0465   28.3502   61.2130 C   0  0  0  0  0
    3.3684   27.7002   63.8703 C   0  0  0  0  0
    2.0100   30.0534   53.9108 C   0  0  0  0  0
    1.8251   30.8822   52.6917 C   0  0  0  0  0
   -0.3214   29.1829   56.9929 C   0  0  0  0  0
   -1.4063   28.1978   57.2363 C   0  0  0  0  0
    5.2232   30.6554   56.1340 O   0  0  0  0  0
    3.8223   28.8599   56.5575 O   0  0  0  0  0
    1.4268   29.6895   59.7661 O   0  0  0  0  0
    0.7730   26.5021   64.3302 O   0  0  0  0  0
    3.5113   26.3699   64.3068 O   0  0  0  0  0
    2.1364   30.6811   55.1517 O   0  0  0  0  0
    2.0496   28.7979   53.8060 O   0  0  0  0  0
    0.9988   28.7371   56.9016 O   0  0  0  0  0
   -0.6089   30.4045   56.8750 O   0  0  0  0  0
    2.3570   29.8061   56.6465 Si  0  0  0  0  0
    2.1426   26.0488   65.3057 Si  0  0  0  0  0
  1  2  1  0  0  0
  2 17  1  0  0  0
  3  4  1  0  0  0
  4 18  1  0  0  0
  5 18  1  0  0  0
  6  7  1  0  0  0
  8  9  1  0  0  0
  8 19  1  0  0  0
 10  5  1  0  0  0
 11 20  1  0  0  0
 11  7  1  0  0  0
 12 21  1  0  0  0
 13 12  1  0  0  0
 14 23  1  0  0  0
 15 14  1  0  0  0
 19 26  1  0  0  0
 25 17  1  0  0  0
 25  3  1  0  0  0
 25 21  1  0  0  0
 25 23  1  0  0  0
 26 20  1  0  0  0
  2 16  2  0  0  0
  5  6  2  0  0  0
  7  8  2  0  0  0
  9 10  2  0  0  0
 12 22  2  0  0  0
 14 24  2  0  0  0
M  END
> <rmsd>
0.557408571

$$$$
PubChem-129576163 585272102 ZINC000585272102


 35 38  0  0  0  0  0  0  0  0999 V2000
    5.4255   26.4212   63.8057 C   0  0  0  0  0
    3.3267   27.5003   63.0511 C   0  0  0  0  0
    4.0218   28.4382   62.2685 C   0  0  0  0  0
    3.3261   29.3894   61.5192 C   0  0  0  0  0
    1.9295   29.4157   61.5486 C   0  0  0  0  0
    1.1815   30.3965   60.7140 C   0  0  0  0  0
   -0.3211   29.7917   59.0101 C   0  0  0  0  0
   -0.5339   29.2357   57.5941 C   0  0  0  0  0
    1.3248   29.5371   56.4023 C   0  0  0  0  0
    2.3791   30.2377   57.2735 C   0  0  0  0  0
    3.4412   29.2495   57.7517 C   0  0  0  0  0
    5.1112   27.6816   56.8278 C   0  0  0  0  0
    5.6334   27.0277   55.7075 C   0  0  0  0  0
    6.6560   26.0843   55.8531 C   0  0  0  0  0
    7.1639   25.7930   57.1221 C   0  0  0  0  0
    6.6515   26.4471   58.2461 C   0  0  0  0  0
    7.1899   26.1402   59.5963 C   0  0  0  0  0
    5.6276   27.3868   58.1007 C   0  0  0  0  0
    1.7211   30.9033   58.4868 C   0  0  0  0  0
    1.2309   28.4811   62.3177 C   0  0  0  0  0
    1.9232   27.5219   63.0752 C   0  0  0  0  0
   -0.1798   26.5216   63.9117 C   0  0  0  0  0
   -0.5995   25.3560   64.7854 C   0  0  0  0  0
   -2.7957   24.2636   64.4121 C   0  0  0  0  0
   -4.1030   24.5959   64.6945 C   0  0  0  0  0
   -5.3032   23.7767   64.3869 C   0  0  0  0  0
   -4.0939   25.8282   65.3191 C   0  0  0  0  0
    4.0081   26.5386   63.8047 O   0  0  0  0  0
    0.6111   28.5718   57.1293 O   0  0  0  0  0
    2.9969   31.2300   56.5105 O   0  0  0  0  0
    4.0834   28.6126   56.6534 O   0  0  0  0  0
    1.2384   26.5781   63.8479 O   0  0  0  0  0
    1.0965   29.9038   59.3501 N   0  0  0  0  0
   -2.0493   25.2877   64.8616 N   0  0  0  0  0
   -2.8083   26.2252   65.4080 N   0  0  0  0  0
  1 28  1  0  0  0
  2 28  1  0  0  0
  3  4  1  0  0  0
  5 20  1  0  0  0
  6  5  1  0  0  0
  6 33  1  0  0  0
  7 33  1  0  0  0
  7  8  1  0  0  0
  8 29  1  0  0  0
  9 29  1  0  0  0
  9 10  1  0  0  0
 10 30  1  0  0  0
 10 11  1  0  0  0
 10 19  1  0  0  0
 11 31  1  0  0  0
 12 31  1  0  0  0
 13 14  1  0  0  0
 15 16  1  0  0  0
 17 16  1  0  0  0
 18 12  1  0  0  0
 19 33  1  0  0  0
 21 32  1  0  0  0
 21  2  1  0  0  0
 22 32  1  0  0  0
 22 23  1  0  0  0
 23 34  1  0  0  0
 25 27  1  0  0  0
 26 25  1  0  0  0
 34 24  1  0  0  0
 34 35  1  0  0  0
  2  3  2  0  0  0
  4  5  2  0  0  0
 12 13  2  0  0  0
 14 15  2  0  0  0
 16 18  2  0  0  0
 20 21  2  0  0  0
 24 25  2  0  0  0
 27 35  2  0  0  0
M  END
> <rmsd>
0.568014681

$$$$
PubChem-159951177 PubChem-160447311 PubChem-59616428 PubChem-91051662


 33 38  0  0  0  0  0  0  0  0999 V2000
    0.4197   28.4229   65.2945 C   0  0  0  0  0
    1.3872   26.9288   63.7837 C   0  0  0  0  0
    2.1292   25.6176   63.7440 C   0  0  0  0  0
    2.1657   24.8343   62.4090 C   0  0  0  0  0
    3.3056   23.8002   62.4715 C   0  0  0  0  0
    3.0836   22.8335   63.6500 C   0  0  0  0  0
    1.7477   22.1010   63.4573 C   0  0  0  0  0
    0.5994   23.1193   63.4029 C   0  0  0  0  0
    0.8359   24.0794   62.2249 C   0  0  0  0  0
    0.5633   23.9144   64.7204 C   0  0  0  0  0
    1.8956   24.6574   64.9315 C   0  0  0  0  0
    3.0367   23.6236   64.9703 C   0  0  0  0  0
    0.6968   27.3431   62.4981 C   0  0  0  0  0
    1.3511   28.1523   61.5569 C   0  0  0  0  0
    0.7106   28.5308   60.3735 C   0  0  0  0  0
   -0.6040   28.1012   60.1335 C   0  0  0  0  0
   -1.2653   27.3015   61.0683 C   0  0  0  0  0
   -0.6174   26.9247   62.2467 C   0  0  0  0  0
    0.8655   29.7060   58.1898 C   0  0  0  0  0
    1.7243   30.8152   57.5562 C   0  0  0  0  0
    2.0851   30.4718   56.1106 C   0  0  0  0  0
    2.6654   29.0526   56.0017 C   0  0  0  0  0
    1.9806   28.1006   56.9898 C   0  0  0  0  0
    1.8694   26.7150   56.3826 C   0  0  0  0  0
    0.5691   27.0643   64.9377 O   0  0  0  0  0
    3.2993   26.3658   63.9206 O   0  0  0  0  0
    2.6447   27.5325   63.9508 O   0  0  0  0  0
    1.4012   29.3299   59.4572 O   0  0  0  0  0
    0.7025   28.5756   57.3491 O   0  0  0  0  0
    1.4185   25.8123   57.3457 O   0  0  0  0  0
    4.0391   29.0592   56.2560 O   0  0  0  0  0
    2.9683   31.4176   55.5846 O   0  0  0  0  0
    1.0278   32.0229   57.5993 O   0  0  0  0  0
  1 25  1  0  0  0
  2 25  1  0  0  0
  2  3  1  0  0  0
  2 13  1  0  0  0
  2 27  1  0  0  0
  3  4  1  0  0  0
  3 26  1  0  0  0
  4  5  1  0  0  0
  6  5  1  0  0  0
  6  7  1  0  0  0
  8  7  1  0  0  0
  8  9  1  0  0  0
  8 10  1  0  0  0
  9  4  1  0  0  0
 11 10  1  0  0  0
 11 12  1  0  0  0
 11  3  1  0  0  0
 12  6  1  0  0  0
 14 15  1  0  0  0
 15 28  1  0  0  0
 16 17  1  0  0  0
 18 13  1  0  0  0
 19 28  1  0  0  0
 19 20  1  0  0  0
 19 29  1  0  0  0
 20 21  1  0  0  0
 20 33  1  0  0  0
 21 22  1  0  0  0
 21 32  1  0  0  0
 22 23  1  0  0  0
 22 31  1  0  0  0
 23 29  1  0  0  0
 23 24  1  0  0  0
 24 30  1  0  0  0
 26 27  1  0  0  0
 13 14  2  0  0  0
 15 16  2  0  0  0
 17 18  2  0  0  0
M  END
> <rmsd>
0.521086693

$$$$
PubChem-3518320 ChemDiv-1481-0030 MCULE-4956062863 MolPort-007-550-264


 28 31  0  0  0  0  0  0  0  0999 V2000
    1.2752   27.6835   62.8540 C   0  0  0  0  0
    0.7999   28.5254   61.8126 C   0  0  0  0  0
   -1.4802   28.9306   62.7938 C   0  0  0  0  0
    1.6388   28.8168   60.7258 C   0  0  0  0  0
    2.9320   28.2850   60.6717 C   0  0  0  0  0
    3.4044   27.4609   61.6863 C   0  0  0  0  0
    2.6046   27.1418   62.7860 C   0  0  0  0  0
    3.0759   26.2957   63.8367 C   0  0  0  0  0
    5.3745   25.8394   62.9235 C   0  0  0  0  0
    2.1918   26.0475   64.8825 C   0  0  0  0  0
    0.9456   26.5798   64.9062 C   0  0  0  0  0
    1.1059   25.4315   66.6782 C   0  0  0  0  0
    2.3356   25.2891   66.0256 C   0  0  0  0  0
    1.9105   29.9589   58.5332 C   0  0  0  0  0
    2.3040   31.5264   56.9540 C   0  0  0  0  0
    1.8999   32.8993   56.4497 C   0  0  0  0  0
    2.3496   30.5232   55.7913 C   0  0  0  0  0
    2.7179   29.1258   56.3130 C   0  0  0  0  0
    1.8983   28.7726   57.5552 C   0  0  0  0  0
   -0.4844   29.0998   61.7950 O   0  0  0  0  0
    4.3493   25.7005   63.8966 O   0  0  0  0  0
    0.3004   26.2111   65.9777 O   0  0  0  0  0
    1.1618   29.6493   59.7045 O   0  0  0  0  0
    1.3693   31.1009   57.9158 O   0  0  0  0  0
    4.0796   29.0611   56.6221 O   0  0  0  0  0
    0.5877   28.4607   57.1858 O   0  0  0  0  0
    3.2671   30.9325   54.8199 O   0  0  0  0  0
    0.4788   27.3823   63.9236 N   0  0  0  0  0
  1 28  1  0  0  0
  2 20  1  0  0  0
  2  4  1  0  0  0
  3 20  1  0  0  0
  4 23  1  0  0  0
  5  6  1  0  0  0
  7  8  1  0  0  0
  7  1  1  0  0  0
  8 21  1  0  0  0
  9 21  1  0  0  0
 10 11  1  0  0  0
 11 22  1  0  0  0
 12 22  1  0  0  0
 13 10  1  0  0  0
 14 23  1  0  0  0
 14 24  1  0  0  0
 15 24  1  0  0  0
 15 16  1  0  0  0
 15 17  1  0  0  0
 17 18  1  0  0  0
 17 27  1  0  0  0
 18 25  1  0  0  0
 18 19  1  0  0  0
 19 26  1  0  0  0
 19 14  1  0  0  0
  1  2  2  0  0  0
  4  5  2  0  0  0
  6  7  2  0  0  0
  8 10  2  0  0  0
 11 28  2  0  0  0
 12 13  2  0  0  0
M  END
> <rmsd>
0.589225769

$$$$
PubChem-20516567


 36 39  0  0  0  0  0  0  0  0999 V2000
    4.5122   32.4036   59.5937 C   0  0  0  0  0
    4.4197   30.9312   59.4292 C   0  0  0  0  0
    4.4761   30.1004   60.5480 C   0  0  0  0  0
    4.3931   28.7146   60.4007 C   0  0  0  0  0
    4.2588   28.1421   59.1101 C   0  0  0  0  0
    4.1566   28.9919   57.9803 C   0  0  0  0  0
    4.2565   30.3815   58.1567 C   0  0  0  0  0
    3.8045   29.2133   55.5104 C   0  0  0  0  0
    2.4085   29.8151   55.3336 C   0  0  0  0  0
    1.2627   28.8640   55.6627 C   0  0  0  0  0
    0.9210   27.6287   57.7875 C   0  0  0  0  0
    0.8576   26.3975   57.1107 C   0  0  0  0  0
    0.7589   25.1968   57.8125 C   0  0  0  0  0
    0.7315   25.2067   59.2063 C   0  0  0  0  0
    0.8003   26.4162   59.9061 C   0  0  0  0  0
    0.8819   27.6450   59.2032 C   0  0  0  0  0
    0.9547   28.8274   59.9642 C   0  0  0  0  0
    0.9585   28.7507   61.3541 C   0  0  0  0  0
    0.8833   27.5024   61.9720 C   0  0  0  0  0
    0.9012   27.4050   63.4373 C   0  0  0  0  0
    0.6717   23.9154   57.0740 C   0  0  0  0  0
    4.2133   26.7354   59.0244 C   0  0  0  0  0
    4.2642   25.9748   60.1900 C   0  0  0  0  0
    4.3639   26.6177   61.4279 C   0  0  0  0  0
    4.3859   25.8362   62.6718 C   0  0  0  0  0
    3.9396   28.4481   56.7055 O   0  0  0  0  0
    1.0186   28.8253   57.0663 O   0  0  0  0  0
    1.0271   29.9590   59.4194 O   0  0  0  0  0
    0.8025   26.3968   61.2348 O   0  0  0  0  0
    0.8162   26.2785   63.9935 O   0  0  0  0  0
    1.0179   28.5476   64.2205 O   0  0  0  0  0
    2.2829   31.0189   56.0274 O   0  0  0  0  0
    4.1280   26.1438   57.9159 O   0  0  0  0  0
    4.4321   27.9443   61.4845 O   0  0  0  0  0
    4.4113   24.5781   62.6361 O   0  0  0  0  0
    4.3679   26.4834   63.9017 O   0  0  0  0  0
  1  2  1  0  0  0
  3  4  1  0  0  0
  4 34  1  0  0  0
  5  6  1  0  0  0
  5 22  1  0  0  0
  6 26  1  0  0  0
  7  2  1  0  0  0
  8 26  1  0  0  0
  8  9  1  0  0  0
  9 10  1  0  0  0
  9 32  1  0  0  0
 10 27  1  0  0  0
 11 27  1  0  0  0
 12 13  1  0  0  0
 14 15  1  0  0  0
 15 29  1  0  0  0
 16 17  1  0  0  0
 16 11  1  0  0  0
 17 18  1  0  0  0
 19 29  1  0  0  0
 19 20  1  0  0  0
 20 31  1  0  0  0
 21 13  1  0  0  0
 22 23  1  0  0  0
 24 34  1  0  0  0
 24 25  1  0  0  0
 25 36  1  0  0  0
  2  3  2  0  0  0
  4  5  2  0  0  0
  6  7  2  0  0  0
 11 12  2  0  0  0
 13 14  2  0  0  0
 15 16  2  0  0  0
 17 28  2  0  0  0
 18 19  2  0  0  0
 20 30  2  0  0  0
 22 33  2  0  0  0
 23 24  2  0  0  0
 25 35  2  0  0  0
M  END
> <rmsd>
0.498816639

$$$$
PubChem-129585713 585282169 ZINC000585282169


 36 39  0  0  0  0  0  0  0  0999 V2000
    3.1370   25.3141   64.9116 C   0  0  0  0  0
    3.2568   27.2727   63.3588 C   0  0  0  0  0
    4.1164   28.1581   62.6974 C   0  0  0  0  0
    3.6139   29.1635   61.8697 C   0  0  0  0  0
    2.2368   29.2979   61.6907 C   0  0  0  0  0
    1.6919   30.3779   60.7951 C   0  0  0  0  0
    0.4034   28.8933   59.4104 C   0  0  0  0  0
   -0.2189   28.7587   58.0224 C   0  0  0  0  0
    1.3507   29.4595   56.6106 C   0  0  0  0  0
    2.7013   29.7043   57.2984 C   0  0  0  0  0
    3.1196   31.1539   57.0901 C   0  0  0  0  0
    4.5217   31.8304   55.1125 C   0  0  0  0  0
    4.5080   31.9661   53.7196 C   0  0  0  0  0
    5.6519   32.3461   53.0216 C   0  0  0  0  0
    5.6103   32.4759   51.5422 C   0  0  0  0  0
    6.8347   32.5990   53.7110 C   0  0  0  0  0
    6.8801   32.4808   55.1007 C   0  0  0  0  0
    8.1749   32.7649   55.7872 C   0  0  0  0  0
    5.7278   32.0960   55.8202 C   0  0  0  0  0
    5.8161   31.9854   57.3103 C   0  0  0  0  0
    2.6477   29.4230   58.8056 C   0  0  0  0  0
    1.3668   28.4260   62.3478 C   0  0  0  0  0
    1.8567   27.4059   63.1801 C   0  0  0  0  0
   -0.4432   26.5651   63.6043 C   0  0  0  0  0
   -0.7771   25.9245   62.2654 C   0  0  0  0  0
   -2.5792   26.9050   60.8595 C   0  0  0  0  0
   -3.9604   26.8837   60.8789 C   0  0  0  0  0
   -3.2537   25.7345   62.5494 C   0  0  0  0  0
    3.8496   26.2927   64.1690 O   0  0  0  0  0
    0.7345   28.3016   57.1028 O   0  0  0  0  0
    3.6608   28.8646   56.7307 O   0  0  0  0  0
    3.3137   31.4310   55.7081 O   0  0  0  0  0
    0.9640   26.5356   63.8209 O   0  0  0  0  0
    1.4227   29.9445   59.4162 N   0  0  0  0  0
   -2.1620   26.1872   61.9125 N   0  0  0  0  0
   -4.3769   26.1527   61.9355 N   0  0  0  0  0
  1 29  1  0  0  0
  2 29  1  0  0  0
  3  4  1  0  0  0
  5 22  1  0  0  0
  6  5  1  0  0  0
  6 34  1  0  0  0
  7 34  1  0  0  0
  7  8  1  0  0  0
  8 30  1  0  0  0
  9 30  1  0  0  0
  9 10  1  0  0  0
 10 31  1  0  0  0
 10 11  1  0  0  0
 10 21  1  0  0  0
 11 32  1  0  0  0
 12 32  1  0  0  0
 13 14  1  0  0  0
 15 14  1  0  0  0
 16 17  1  0  0  0
 18 17  1  0  0  0
 19 12  1  0  0  0
 20 19  1  0  0  0
 21 34  1  0  0  0
 23 33  1  0  0  0
 23  2  1  0  0  0
 24 33  1  0  0  0
 24 25  1  0  0  0
 25 35  1  0  0  0
 27 36  1  0  0  0
 28 35  1  0  0  0
 35 26  1  0  0  0
  2  3  2  0  0  0
  4  5  2  0  0  0
 12 13  2  0  0  0
 14 16  2  0  0  0
 17 19  2  0  0  0
 22 23  2  0  0  0
 26 27  2  0  0  0
 28 36  2  0  0  0
M  END
> <rmsd>
0.459983021

$$$$
PubChem-129578811 585275081 ZINC000585275081


 35 38  0  0  0  0  0  0  0  0999 V2000
   -0.4070   26.6919   63.8722 C   0  0  0  0  0
    1.8700   27.4259   63.2341 C   0  0  0  0  0
    1.3716   28.4391   62.3986 C   0  0  0  0  0
    2.2443   29.2681   61.6873 C   0  0  0  0  0
    1.7007   30.3509   60.7942 C   0  0  0  0  0
    0.4220   28.8634   59.4050 C   0  0  0  0  0
   -0.2052   28.7339   58.0184 C   0  0  0  0  0
    1.3508   29.4623   56.6060 C   0  0  0  0  0
    2.7029   29.7128   57.2887 C   0  0  0  0  0
    3.1077   31.1681   57.0905 C   0  0  0  0  0
    4.4897   31.9021   55.1719 C   0  0  0  0  0
    5.6269   32.0830   55.9766 C   0  0  0  0  0
    6.8280   32.5201   55.4105 C   0  0  0  0  0
    6.9005   32.7784   54.0389 C   0  0  0  0  0
    8.1768   33.2438   53.4370 C   0  0  0  0  0
    5.7716   32.6010   53.2339 C   0  0  0  0  0
    4.5701   32.1638   53.7999 C   0  0  0  0  0
    2.6592   29.4180   58.7937 C   0  0  0  0  0
    3.6248   29.0931   61.8155 C   0  0  0  0  0
    4.1290   28.0892   62.6444 C   0  0  0  0  0
    3.2569   27.2491   63.3566 C   0  0  0  0  0
    5.1341   25.9983   64.3782 C   0  0  0  0  0
    5.3317   24.8521   65.3601 C   0  0  0  0  0
    4.9848   24.3710   67.7650 C   0  0  0  0  0
    4.5549   25.0913   68.8571 C   0  0  0  0  0
    4.4264   24.5848   70.2483 C   0  0  0  0  0
    4.2668   26.3695   68.4245 C   0  0  0  0  0
    1.0084   26.5867   63.9489 O   0  0  0  0  0
    0.7481   28.2942   57.0904 O   0  0  0  0  0
    3.6657   28.8862   56.7079 O   0  0  0  0  0
    3.2757   31.4640   55.7074 O   0  0  0  0  0
    3.7450   26.2367   64.1890 O   0  0  0  0  0
    1.4320   29.9226   59.4136 N   0  0  0  0  0
    4.9443   25.2157   66.7207 N   0  0  0  0  0
    4.5191   26.4119   67.1020 N   0  0  0  0  0
  1 28  1  0  0  0
  2 28  1  0  0  0
  3  4  1  0  0  0
  5  4  1  0  0  0
  5 33  1  0  0  0
  6 33  1  0  0  0
  6  7  1  0  0  0
  7 29  1  0  0  0
  8 29  1  0  0  0
  8  9  1  0  0  0
  9 30  1  0  0  0
  9 10  1  0  0  0
  9 18  1  0  0  0
 10 31  1  0  0  0
 11 31  1  0  0  0
 12 13  1  0  0  0
 14 16  1  0  0  0
 15 14  1  0  0  0
 17 11  1  0  0  0
 18 33  1  0  0  0
 19 20  1  0  0  0
 21 32  1  0  0  0
 21  2  1  0  0  0
 22 32  1  0  0  0
 22 23  1  0  0  0
 23 34  1  0  0  0
 25 27  1  0  0  0
 26 25  1  0  0  0
 34 24  1  0  0  0
 34 35  1  0  0  0
  2  3  2  0  0  0
  4 19  2  0  0  0
 11 12  2  0  0  0
 13 14  2  0  0  0
 16 17  2  0  0  0
 20 21  2  0  0  0
 24 25  2  0  0  0
 27 35  2  0  0  0
M  END
> <rmsd>
0.447162271

$$$$
