PubChem-88447266


 20 19  0  0  0  0  0  0  0  0999 V2000
    1.2955   27.3229   57.0109 C   0  0  0  0  0
    2.1362   29.7924   58.7570 C   0  0  0  0  0
    3.2081   29.3939   59.7116 C   0  0  0  0  0
    2.7435   28.2264   60.5659 C   0  0  0  0  0
    3.8150   27.8477   61.5771 C   0  0  0  0  0
    3.9215   28.8829   62.6916 C   0  0  0  0  0
    2.7330   28.8377   63.5951 C   0  0  0  0  0
    4.0269   28.6387   55.3697 C   0  0  0  0  0
    1.1609   28.5545   56.3671 O   0  0  0  0  0
    2.3601   30.8811   56.3044 O   0  0  0  0  0
    0.0317   30.7378   58.3718 O   0  0  0  0  0
    0.8183   29.8867   64.4335 O   0  0  0  0  0
    2.4416   27.8367   66.0958 O   0  0  0  0  0
    3.6990   26.2743   64.4207 O   0  0  0  0  0
    0.9778   26.6926   64.2544 O   0  0  0  0  0
    3.9126   28.8119   56.7503 O   0  0  0  0  0
    2.3959   29.5358   56.9957 P   0  0  0  0  0
    2.4607   27.4039   64.6477 P   0  0  0  0  0
    1.0500   30.3395   59.2079 N   0  0  0  0  0
    1.9278   29.8533   63.6198 N   0  0  0  0  0
  1  9  1  0  0  0
  3  2  1  0  0  0
  3  4  1  0  0  0
  4  5  1  0  0  0
  5  6  1  0  0  0
  6  7  1  0  0  0
  8 16  1  0  0  0
 17  9  1  0  0  0
 17  2  1  0  0  0
 17 16  1  0  0  0
 18  7  1  0  0  0
 18 14  1  0  0  0
 18 15  1  0  0  0
 19 11  1  0  0  0
 20 12  1  0  0  0
  2 19  2  0  0  0
  7 20  2  0  0  0
 17 10  2  0  0  0
 18 13  2  0  0  0
M  END
> <rmsd>
0.715025783

$$$$
PubChem-134174408


 35 36  0  0  0  0  0  0  0  0999 V2000
    3.5714   32.6148   58.5463 C   0  0  0  0  0
    2.6720   32.0480   57.4519 C   0  0  0  0  0
    3.4221   31.0974   56.5077 C   0  0  0  0  0
    3.6309   29.7315   57.1756 C   0  0  0  0  0
    2.3515   29.2156   57.8351 C   0  0  0  0  0
    1.7915   30.3283   58.7228 C   0  0  0  0  0
    0.9318   30.0967   60.7505 C   0  0  0  0  0
    1.0614   28.7581   61.4600 C   0  0  0  0  0
    1.8201   28.9195   62.7673 C   0  0  0  0  0
    1.7241   27.6271   63.5923 C   0  0  0  0  0
    2.9950   27.3754   64.4118 C   0  0  0  0  0
    3.6696   28.6818   64.8452 C   0  0  0  0  0
    3.7643   29.7171   63.7027 C   0  0  0  0  0
    5.2319   30.0479   63.4296 C   0  0  0  0  0
    6.0048   28.8875   62.8152 C   0  0  0  0  0
    6.9830   29.4268   61.7928 C   0  0  0  0  0
    6.7731   28.1518   63.8959 C   0  0  0  0  0
    0.5204   27.6275   64.4877 C   0  0  0  0  0
   -0.1597   30.9004   61.3763 C   0  0  0  0  0
   -0.3836   32.1496   60.9940 C   0  0  0  0  0
   -1.4516   32.9221   61.6161 C   0  0  0  0  0
   -1.6765   34.1704   61.2309 C   0  0  0  0  0
   -2.7617   34.9792   61.8548 C   0  0  0  0  0
   -2.5921   36.4324   61.4634 C   0  0  0  0  0
   -4.1208   34.4909   61.3867 C   0  0  0  0  0
    1.4784   31.4785   57.9625 O   0  0  0  0  0
    0.6524   29.8820   59.3982 O   0  0  0  0  0
    3.1648   29.2541   62.5032 O   0  0  0  0  0
    3.1412   30.8984   64.1187 O   0  0  0  0  0
    3.8861   26.6018   63.6684 O   0  0  0  0  0
    0.1882   26.5693   65.0835 O   0  0  0  0  0
   -0.2394   28.7785   64.6670 O   0  0  0  0  0
    1.4082   28.8410   56.8723 O   0  0  0  0  0
    2.7039   30.9633   55.3169 O   0  0  0  0  0
    4.1655   28.7593   56.2343 N   0  0  0  0  0
  2  1  1  0  0  0
  2  3  1  0  0  0
  2 26  1  0  0  0
  3  4  1  0  0  0
  3 34  1  0  0  0
  4  5  1  0  0  0
  4 35  1  0  0  0
  5  6  1  0  0  0
  5 33  1  0  0  0
  6 26  1  0  0  0
  6 27  1  0  0  0
  7 27  1  0  0  0
  7  8  1  0  0  0
  7 19  1  0  0  0
  9  8  1  0  0  0
  9 10  1  0  0  0
  9 28  1  0  0  0
 10 11  1  0  0  0
 10 18  1  0  0  0
 11 12  1  0  0  0
 11 30  1  0  0  0
 12 13  1  0  0  0
 13 28  1  0  0  0
 13 14  1  0  0  0
 13 29  1  0  0  0
 14 15  1  0  0  0
 15 16  1  0  0  0
 15 17  1  0  0  0
 18 32  1  0  0  0
 20 21  1  0  0  0
 23 22  1  0  0  0
 23 24  1  0  0  0
 23 25  1  0  0  0
 18 31  2  0  0  0
 19 20  2  0  0  0
 21 22  2  0  0  0
M  END
> <rmsd>
0.666676283

$$$$
PubChem-19010988


 29 30  0  0  0  0  0  0  0  0999 V2000
    0.3205   32.0540   59.6554 C   0  0  0  0  0
    0.7796   31.3608   58.3781 C   0  0  0  0  0
    2.0525   30.5135   58.5707 C   0  0  0  0  0
    3.2002   31.3593   59.1517 C   0  0  0  0  0
    3.5072   32.6151   58.3462 C   0  0  0  0  0
    1.8098   29.3465   59.4996 C   0  0  0  0  0
    2.7628   27.5243   60.8687 C   0  0  0  0  0
    3.1436   28.0620   62.2432 C   0  0  0  0  0
    2.1317   29.1216   62.7086 C   0  0  0  0  0
    0.8831   28.6190   63.3964 C   0  0  0  0  0
    1.1450   27.4581   64.3767 C   0  0  0  0  0
    1.9631   26.3425   63.7418 C   0  0  0  0  0
    3.2274   26.9340   63.2204 C   0  0  0  0  0
   -0.0441   27.1668   66.2192 C   0  0  0  0  0
   -1.1992   27.2800   68.0928 C   0  0  0  0  0
    1.5831   30.5473   64.2957 C   0  0  0  0  0
    1.9363   30.6206   65.7691 C   0  0  0  0  0
    1.2603   31.9482   63.8074 C   0  0  0  0  0
    0.6468   29.0812   59.9151 O   0  0  0  0  0
    2.8886   28.5435   59.8847 O   0  0  0  0  0
    4.3093   26.5389   63.6219 O   0  0  0  0  0
   -0.0674   26.9452   64.8412 O   0  0  0  0  0
   -1.3063   26.9122   66.7526 O   0  0  0  0  0
    0.4449   29.7217   64.1307 O   0  0  0  0  0
    2.6906   30.0454   63.5804 O   0  0  0  0  0
    3.8615   29.1229   57.0480 O   0  0  0  0  0
    1.3552   28.7463   56.4128 O   0  0  0  0  0
    2.6681   31.0896   55.8080 O   0  0  0  0  0
    2.5342   29.8390   56.9394 P   0  0  0  0  0
  1  2  1  0  0  0
  2  3  1  0  0  0
  3  4  1  0  0  0
  3  6  1  0  0  0
  3 29  1  0  0  0
  4  5  1  0  0  0
  6 20  1  0  0  0
  7 20  1  0  0  0
  7  8  1  0  0  0
  8  9  1  0  0  0
  8 13  1  0  0  0
  9 10  1  0  0  0
  9 25  1  0  0  0
 10 11  1  0  0  0
 10 24  1  0  0  0
 11 12  1  0  0  0
 11 22  1  0  0  0
 12 13  1  0  0  0
 14 22  1  0  0  0
 14 23  1  0  0  0
 15 23  1  0  0  0
 16 24  1  0  0  0
 16 25  1  0  0  0
 16 17  1  0  0  0
 16 18  1  0  0  0
 29 27  1  0  0  0
 29 28  1  0  0  0
  6 19  2  0  0  0
 13 21  2  0  0  0
 29 26  2  0  0  0
M  END
> <rmsd>
0.706465364

$$$$
