##########                                Name: HTS1710-01152169-01
##########                    Molecular_Weight:             395.414
##########                DOCK_Rotatable_Bonds:                   8
##########                       Formal_Charge:                  -2
##########                     HBond_Acceptors:                  10
##########                        HBond_Donors:                   0
##########                         Heavy_Atoms:                  26
##########                          Grid_Score:          -77.577911
##########                     Grid_vdw_energy:          -37.652443
##########                      Grid_es_energy:          -39.925465
##########           Internal_energy_repulsive:           17.519201

@<TRIPOS>MOLECULE
HTS1710-01152169-01
 39 40 1 0 0
SMALL
USER_CHARGES


@<TRIPOS>ATOM
      1 N           3.1277   -9.2536  -32.6441 N.am    1  UNL1       -0.2463
      2 C           3.5520  -10.0509  -33.7016 C.2     1  UNL1        0.1211
      3 C           2.0158   -8.4629  -32.9368 C.2     1  UNL1        0.2589
      4 C           1.5429   -8.7478  -34.3140 C.2     1  UNL1        0.0773
      5 S           2.5734   -9.8635  -35.1839 S.3     1  UNL1       -0.0610
      6 C           3.8421   -9.1539  -31.3406 C.3     1  UNL1        0.0765
      7 C           0.4560   -8.1771  -34.9428 C.2     1  UNL1       -0.0321
      8 C           2.8600   -9.1125  -30.1313 C.3     1  UNL1        0.0111
      9 C           4.8620   -7.9908  -31.3739 C.2     1  UNL1        0.0629
     10 C          -0.6300   -7.2147  -34.5702 C.ar    1  UNL1        0.0215
     11 S           4.8886  -11.0627  -33.6977 S.2     1  UNL1       -0.0272
     12 C          -1.0844   -6.2553  -35.5137 C.ar    1  UNL1        0.1686
     13 C           3.3236   -9.9998  -28.9680 C.2     1  UNL1        0.0439
     14 O           1.5520   -7.6327  -32.1742 O.2     1  UNL1       -0.2690
     15 O           4.4794   -6.8958  -31.7514 O.co2   1  UNL1       -0.5479
     16 C          -2.1336   -5.3543  -35.1606 C.ar    1  UNL1        0.1621
     17 O           4.5253  -10.1228  -28.8046 O.co2   1  UNL1       -0.5497
     18 O           5.9979   -8.2453  -31.0113 O.co2   1  UNL1       -0.5479
     19 O           2.4603  -10.4969  -28.2646 O.co2   1  UNL1       -0.5497
     20 O          -0.4372   -6.2329  -36.7459 O.3     1  UNL1       -0.4909
     21 O          -2.5767   -4.3991  -36.0584 O.3     1  UNL1       -0.4914
     22 C          -1.2647   -7.2995  -33.3165 C.ar    1  UNL1       -0.0508
     23 C          -2.2939   -6.4185  -32.9722 C.ar    1  UNL1       -0.0575
     24 C          -2.7218   -5.4466  -33.8801 C.ar    1  UNL1       -0.0163
     25 C          -0.5721   -5.2432  -37.7804 C.3     1  UNL1        0.0790
     26 C          -3.8629   -3.7569  -35.9811 C.3     1  UNL1        0.0790
     27 H           4.4089  -10.0487  -31.1891 H       1  UNL1        0.0570
     28 H           0.3683   -8.4946  -35.9208 H       1  UNL1        0.0637
     29 H           1.8985   -9.4495  -30.4582 H       1  UNL1        0.0347
     30 H           2.8231   -8.1037  -29.7765 H       1  UNL1        0.0347
     31 H          -0.9662   -8.0218  -32.6426 H       1  UNL1        0.0625
     32 H          -2.7393   -6.4862  -32.0437 H       1  UNL1        0.0619
     33 H          -3.4731   -4.7914  -33.6130 H       1  UNL1        0.0655
     34 H           0.0548   -5.5038  -38.6074 H       1  UNL1        0.0660
     35 H          -0.2805   -4.2869  -37.3992 H       1  UNL1        0.0660
     36 H          -1.5911   -5.2025  -38.1042 H       1  UNL1        0.0660
     37 H          -3.9634   -3.0613  -36.7880 H       1  UNL1        0.0660
     38 H          -3.9466   -3.2371  -35.0496 H       1  UNL1        0.0660
     39 H          -4.6348   -4.4949  -36.0483 H       1  UNL1        0.0660
@<TRIPOS>BOND
     1     1     2    1
     2     1     3   am
     3     3     4    1
     4     2     5    1
     5     1     6    1
     6     4     7    2
     7     6     8    1
     8     6     9    1
     9     7    10    1
    10     2    11    2
    11    10    12   ar
    12     8    13    1
    13     3    14    2
    14     9    15   ar
    15    12    16   ar
    16    13    17   ar
    17     9    18   ar
    18    13    19   ar
    19    12    20    1
    20    16    21    1
    21    10    22   ar
    22    22    23   ar
    23    23    24   ar
    24    20    25    1
    25    21    26    1
    26     4     5    1
    27    16    24   ar
    28     6    27    1
    29     7    28    1
    30     8    29    1
    31     8    30    1
    32    22    31    1
    33    23    32    1
    34    24    33    1
    35    25    34    1
    36    25    35    1
    37    25    36    1
    38    26    37    1
    39    26    38    1
    40    26    39    1
@<TRIPOS>SUBSTRUCTURE
     1 UNL1        1 TEMP              0 ****  ****    0 ROOT


