HTS1710-00226846-01
 OpenBabel03232612363D

 42 45  0  0  1  0  0  0  0  0999 V2000
    3.8705  -11.3536  -30.9273 N   0  0  0  0  0  0  0  0  0  0  0  0
    3.7389  -11.5914  -29.5712 C   0  0  0  0  0  0  0  0  0  0  0  0
    3.0766  -12.5187  -31.3306 C   0  0  2  0  0  0  0  0  0  0  0  0
    2.8514  -12.8447  -29.8130 C   0  0  1  0  0  0  0  0  0  0  0  0
    4.5223  -10.4895  -31.8994 C   0  0  0  0  0  0  0  0  0  0  0  0
    1.2344   -9.2892  -36.2482 S   0  0  0  0  0  0  0  0  0  0  0  0
    7.7966  -14.3375  -27.1942 N   0  0  0  0  0  0  0  0  0  0  0  0
    4.2482  -13.5076  -32.3454 S   0  0  0  0  0  0  0  0  0  0  0  0
    6.5411  -14.1647  -27.5291 N   0  0  0  0  0  0  0  0  0  0  0  0
    5.9719  -15.3895  -27.4289 N   0  0  0  0  0  0  0  0  0  0  0  0
    4.6459  -10.9219  -33.2027 C   0  0  0  0  0  0  0  0  0  0  0  0
    2.6630   -9.5329  -35.2900 C   0  0  0  0  0  0  0  0  0  0  0  0
    8.0632  -15.6492  -26.8725 N   0  0  0  0  0  0  0  0  0  0  0  0
    2.6081   -9.1261  -34.0376 N   0  0  0  0  0  0  0  0  0  0  0  0
    1.3796   -8.5585  -33.7533 N   0  0  0  0  0  0  0  0  0  0  0  0
    3.5398  -14.0668  -29.3852 N   0  0  0  0  0  0  0  0  0  0  0  0
    0.5698   -8.5732  -34.8015 C   0  0  0  0  0  0  0  0  0  0  0  0
    6.9260  -16.2845  -27.0240 C   0  0  0  0  0  0  0  0  0  0  0  0
    5.0353   -9.1461  -31.4012 C   0  0  0  0  0  0  0  0  0  0  0  0
    3.8259  -14.3153  -28.0529 C   0  0  0  0  0  0  0  0  0  0  0  0
    4.5461  -15.6168  -27.7080 C   0  0  0  0  0  0  0  0  0  0  0  0
    4.1516  -12.2839  -33.7068 C   0  0  0  0  0  0  0  0  0  0  0  0
    4.2313  -10.9680  -28.6481 O   0  0  0  0  0  0  0  0  0  0  0  0
    4.1176  -10.3665  -35.8142 S   0  0  0  0  0  0  0  0  0  0  0  0
    5.2327  -10.1119  -34.3622 C   0  0  0  0  0  0  0  0  0  0  0  0
    5.8102   -8.5093  -32.0905 O   0  5  0  0  0  0  0  0  0  0  0  0
    3.5339  -13.4952  -27.1982 O   0  0  0  0  0  0  0  0  0  0  0  0
    4.6406   -8.7611  -30.3158 O   0  0  0  0  0  0  0  0  0  0  0  0
   -0.8303   -8.0237  -34.7559 C   0  0  0  0  0  0  0  0  0  0  0  0
    2.1872  -12.5607  -31.9241 H   0  0  0  0  0  0  0  0  0  0  0  0
    1.8811  -12.9926  -29.3866 H   0  0  0  0  0  0  0  0  0  0  0  0
    3.8061  -14.7288  -30.0635 H   0  0  0  0  0  0  0  0  0  0  0  0
    6.7750  -17.2928  -26.8645 H   0  0  0  0  0  0  0  0  0  0  0  0
    4.0875  -16.0485  -26.8430 H   0  0  0  0  0  0  0  0  0  0  0  0
    4.4706  -16.2739  -28.5491 H   0  0  0  0  0  0  0  0  0  0  0  0
    4.7650  -12.6072  -34.5217 H   0  0  0  0  0  0  0  0  0  0  0  0
    3.1378  -12.1964  -34.0379 H   0  0  0  0  0  0  0  0  0  0  0  0
    5.2698   -9.0742  -34.1042 H   0  0  0  0  0  0  0  0  0  0  0  0
    6.2299  -10.4295  -34.5850 H   0  0  0  0  0  0  0  0  0  0  0  0
   -1.2918   -8.1437  -35.7137 H   0  0  0  0  0  0  0  0  0  0  0  0
   -0.7976   -6.9844  -34.5034 H   0  0  0  0  0  0  0  0  0  0  0  0
   -1.3970   -8.5524  -34.0182 H   0  0  0  0  0  0  0  0  0  0  0  0
  1  2  1  0  0  0  0
  1  3  1  0  0  0  0
  1  5  1  0  0  0  0
  2 23  2  0  0  0  0
  2  4  1  0  0  0  0
  3  4  1  0  0  0  0
  3  8  1  0  0  0  0
  3 30  1  6  0  0  0
  4 16  1  0  0  0  0
  4 31  1  1  0  0  0
  5 11  2  0  0  0  0
  5 19  1  0  0  0  0
  6 12  1  0  0  0  0
  6 17  1  0  0  0  0
  7  9  2  0  0  0  0
  7 13  1  0  0  0  0
  8 22  1  0  0  0  0
  9 10  1  0  0  0  0
 10 21  1  0  0  0  0
 10 18  1  0  0  0  0
 11 22  1  0  0  0  0
 11 25  1  0  0  0  0
 12 24  1  0  0  0  0
 12 14  2  0  0  0  0
 13 18  2  0  0  0  0
 14 15  1  0  0  0  0
 15 17  2  0  0  0  0
 16 20  1  0  0  0  0
 16 32  1  0  0  0  0
 17 29  1  0  0  0  0
 18 33  1  0  0  0  0
 19 26  1  0  0  0  0
 19 28  2  0  0  0  0
 20 21  1  0  0  0  0
 20 27  2  0  0  0  0
 21 34  1  0  0  0  0
 21 35  1  0  0  0  0
 22 36  1  0  0  0  0
 22 37  1  0  0  0  0
 24 25  1  0  0  0  0
 25 38  1  0  0  0  0
 25 39  1  0  0  0  0
 29 40  1  0  0  0  0
 29 41  1  0  0  0  0
 29 42  1  0  0  0  0
M  CHG  1  26  -1
M  END
$$$$
