HTS1710-00617429-01
 OpenBabel03232612343D

 46 48  0  0  1  0  0  0  0  0999 V2000
    4.3986  -11.7001  -31.2564 C   0  0  2  0  0  0  0  0  0  0  0  0
    3.9891  -11.0913  -29.9115 C   0  0  0  0  0  0  0  0  0  0  0  0
    4.8579  -10.5083  -32.0118 N   0  0  0  0  0  0  0  0  0  0  0  0
    3.2408  -12.4309  -31.9329 C   0  0  0  0  0  0  0  0  0  0  0  0
    3.4984  -11.9781  -28.8073 C   0  0  0  0  0  0  0  0  0  0  0  0
    4.1830   -9.7561  -29.9789 C   0  0  0  0  0  0  0  0  0  0  0  0
    4.7222   -9.3424  -31.2816 C   0  0  0  0  0  0  0  0  0  0  0  0
    5.3651  -10.6168  -33.3890 C   0  0  0  0  0  0  0  0  0  0  0  0
    2.3223  -11.7150  -32.7225 C   0  0  0  0  0  0  0  0  0  0  0  0
    3.0960  -13.8246  -31.7924 C   0  0  0  0  0  0  0  0  0  0  0  0
    4.3763  -13.0885  -28.3154 C   0  0  0  0  0  0  0  0  0  0  0  0
    2.4064  -11.8003  -28.2949 O   0  0  0  0  0  0  0  0  0  0  0  0
    3.9820   -8.8434  -29.0004 O   0  5  0  0  0  0  0  0  0  0  0  0
    5.0043   -8.2154  -31.6509 O   0  0  0  0  0  0  0  0  0  0  0  0
    4.5703   -9.7266  -34.3695 C   0  0  0  0  0  0  0  0  0  0  0  0
    1.2610  -12.3860  -33.3704 C   0  0  0  0  0  0  0  0  0  0  0  0
    2.0395  -14.4938  -32.4256 C   0  0  0  0  0  0  0  0  0  0  0  0
    3.9875  -14.4325  -28.4757 C   0  0  0  0  0  0  0  0  0  0  0  0
    5.6262  -12.7937  -27.7391 C   0  0  0  0  0  0  0  0  0  0  0  0
    5.4654   -8.6651  -35.0160 C   0  0  0  0  0  0  0  0  0  0  0  0
    1.1236  -13.7788  -33.2128 C   0  0  0  0  0  0  0  0  0  0  0  0
    0.3487  -11.7163  -34.1655 O   0  0  0  0  0  0  0  0  0  0  0  0
    4.8271  -15.4685  -28.0366 C   0  0  0  0  0  0  0  0  0  0  0  0
    6.4651  -13.8304  -27.2999 C   0  0  0  0  0  0  0  0  0  0  0  0
    6.1424   -7.9786  -34.2700 O   0  5  0  0  0  0  0  0  0  0  0  0
    5.4532   -8.5896  -36.2319 O   0  0  0  0  0  0  0  0  0  0  0  0
    0.1015  -14.4424  -33.8306 O   0  0  0  0  0  0  0  0  0  0  0  0
    0.4413  -10.3104  -34.4552 C   0  0  0  0  0  0  0  0  0  0  0  0
    6.0644  -15.1687  -27.4461 C   0  0  0  0  0  0  0  0  0  0  0  0
    5.1500  -12.4579  -31.1785 H   0  0  0  0  0  0  0  0  0  0  0  0
    5.2872  -11.6356  -33.7066 H   0  0  0  0  0  0  0  0  0  0  0  0
    6.3829  -10.2871  -33.3936 H   0  0  0  0  0  0  0  0  0  0  0  0
    2.4243  -10.6936  -32.8290 H   0  0  0  0  0  0  0  0  0  0  0  0
    3.7710  -14.3559  -31.2206 H   0  0  0  0  0  0  0  0  0  0  0  0
    3.7824   -9.2383  -33.8350 H   0  0  0  0  0  0  0  0  0  0  0  0
    4.1757  -10.3500  -35.1443 H   0  0  0  0  0  0  0  0  0  0  0  0
    1.9349  -15.5143  -32.3128 H   0  0  0  0  0  0  0  0  0  0  0  0
    3.0821  -14.6566  -28.9175 H   0  0  0  0  0  0  0  0  0  0  0  0
    5.9272  -11.8116  -27.6390 H   0  0  0  0  0  0  0  0  0  0  0  0
    4.5340  -16.4518  -28.1482 H   0  0  0  0  0  0  0  0  0  0  0  0
    7.3765  -13.6090  -26.8695 H   0  0  0  0  0  0  0  0  0  0  0  0
   -0.4933  -13.9756  -34.3840 H   0  0  0  0  0  0  0  0  0  0  0  0
   -0.3728  -10.0221  -35.0870 H   0  0  0  0  0  0  0  0  0  0  0  0
    1.3672  -10.1088  -34.9521 H   0  0  0  0  0  0  0  0  0  0  0  0
    0.3982   -9.7544  -33.5419 H   0  0  0  0  0  0  0  0  0  0  0  0
    6.6792  -15.9306  -27.1196 H   0  0  0  0  0  0  0  0  0  0  0  0
  1  2  1  0  0  0  0
  1  3  1  0  0  0  0
  1  4  1  0  0  0  0
  1 30  1  1  0  0  0
  2  5  1  0  0  0  0
  2  6  2  0  0  0  0
  3  7  1  0  0  0  0
  3  8  1  0  0  0  0
  4  9  2  0  0  0  0
  4 10  1  0  0  0  0
  5 11  1  0  0  0  0
  5 12  2  0  0  0  0
  6 13  1  0  0  0  0
  6  7  1  0  0  0  0
  7 14  2  0  0  0  0
  8 15  1  0  0  0  0
  8 31  1  0  0  0  0
  8 32  1  0  0  0  0
  9 16  1  0  0  0  0
  9 33  1  0  0  0  0
 10 17  2  0  0  0  0
 10 34  1  0  0  0  0
 11 18  2  0  0  0  0
 11 19  1  0  0  0  0
 15 20  1  0  0  0  0
 15 35  1  0  0  0  0
 15 36  1  0  0  0  0
 16 21  2  0  0  0  0
 16 22  1  0  0  0  0
 17 21  1  0  0  0  0
 17 37  1  0  0  0  0
 18 23  1  0  0  0  0
 18 38  1  0  0  0  0
 19 24  2  0  0  0  0
 19 39  1  0  0  0  0
 20 25  1  0  0  0  0
 20 26  2  0  0  0  0
 21 27  1  0  0  0  0
 22 28  1  0  0  0  0
 23 29  2  0  0  0  0
 23 40  1  0  0  0  0
 24 29  1  0  0  0  0
 24 41  1  0  0  0  0
 27 42  1  0  0  0  0
 28 43  1  0  0  0  0
 28 44  1  0  0  0  0
 28 45  1  0  0  0  0
 29 46  1  0  0  0  0
M  CHG  2  13  -1  25  -1
M  END
$$$$
