##########                                Name: HTS1710-00660233-01
##########                    Molecular_Weight:             314.338
##########                DOCK_Rotatable_Bonds:                  15
##########                       Formal_Charge:                  -2
##########                     HBond_Acceptors:                   8
##########                        HBond_Donors:                   2
##########                         Heavy_Atoms:                  22
##########                          Grid_Score:          -78.378128
##########                     Grid_vdw_energy:          -40.255203
##########                      Grid_es_energy:          -38.122929
##########           Internal_energy_repulsive:            6.509565

@<TRIPOS>MOLECULE
HTS1710-00660233-01
 44 43 1 0 0
SMALL
USER_CHARGES


@<TRIPOS>ATOM
      1 C           0.2788   -7.9585  -35.0917 C.2     1  UNL1        0.2134
      2 C          -0.6081   -7.0106  -35.9073 C.3     1  UNL1        0.0290
      3 N           0.7609   -9.1047  -35.7110 N.am    1  UNL1       -0.3153
      4 O           0.5636   -7.7219  -33.9296 O.2     1  UNL1       -0.2758
      5 C          -1.6509   -6.2646  -35.0382 C.3     1  UNL1       -0.0050
      6 C           1.6184  -10.0867  -35.0327 C.3     1  UNL1        0.0116
      7 C          -2.8098   -7.1679  -34.6010 C.2     1  UNL1        0.0422
      8 C           0.7720  -11.1296  -34.2619 C.3     1  UNL1       -0.0374
      9 O          -3.7123   -7.3435  -35.4007 O.co2   1  UNL1       -0.5498
     10 O          -2.7445   -7.6592  -33.4878 O.co2   1  UNL1       -0.5498
     11 C           1.6201  -12.2878  -33.6723 C.3     1  UNL1       -0.0516
     12 C           0.7858  -13.3266  -32.8801 C.3     1  UNL1       -0.0516
     13 C           1.6305  -14.4943  -32.3096 C.3     1  UNL1       -0.0374
     14 C           1.8352  -14.3631  -30.7859 C.3     1  UNL1        0.0116
     15 N           2.7101  -13.2223  -30.5005 N.am    1  UNL1       -0.3153
     16 C           2.8143  -12.6667  -29.2331 C.2     1  UNL1        0.2134
     17 C           3.7579  -11.4744  -29.0374 C.3     1  UNL1        0.0290
     18 O           2.1694  -13.1341  -28.3086 O.2     1  UNL1       -0.2758
     19 C           3.8800  -10.5922  -30.3037 C.3     1  UNL1       -0.0050
     20 C           4.2983   -9.1539  -29.9750 C.2     1  UNL1        0.0422
     21 O           3.4519   -8.4222  -29.4916 O.co2   1  UNL1       -0.5498
     22 O           5.4412   -8.8314  -30.2475 O.co2   1  UNL1       -0.5498
     23 H          -1.1271   -7.5816  -36.6485 H       1  UNL1        0.0362
     24 H           0.0298   -6.2731  -36.3477 H       1  UNL1        0.0362
     25 H           0.5161   -9.2671  -36.6506 H       1  UNL1        0.1487
     26 H          -2.0477   -5.4482  -35.6047 H       1  UNL1        0.0329
     27 H          -1.1526   -5.9263  -34.1537 H       1  UNL1        0.0329
     28 H           2.2562   -9.5754  -34.3421 H       1  UNL1        0.0462
     29 H           2.1978  -10.5993  -35.7719 H       1  UNL1        0.0462
     30 H           0.0493  -11.5445  -34.9332 H       1  UNL1        0.0280
     31 H           0.3114  -10.6217  -33.4405 H       1  UNL1        0.0280
     32 H           2.3527  -11.8696  -33.0142 H       1  UNL1        0.0266
     33 H           2.0626  -12.8046  -34.4980 H       1  UNL1        0.0266
     34 H           0.0433  -13.7339  -33.5340 H       1  UNL1        0.0266
     35 H           0.3553  -12.8134  -32.0457 H       1  UNL1        0.0266
     36 H           2.5872  -14.4960  -32.7887 H       1  UNL1        0.0280
     37 H           1.1048  -15.4073  -32.4969 H       1  UNL1        0.0280
     38 H           2.2839  -15.2583  -30.4091 H       1  UNL1        0.0462
     39 H           0.8875  -14.2092  -30.3136 H       1  UNL1        0.0462
     40 H           3.2424  -12.8367  -31.2334 H       1  UNL1        0.1487
     41 H           4.7291  -11.8451  -28.7840 H       1  UNL1        0.0362
     42 H           3.3501  -10.8651  -28.2581 H       1  UNL1        0.0362
     43 H           2.9321  -10.5697  -30.7997 H       1  UNL1        0.0329
     44 H           4.6381  -11.0186  -30.9270 H       1  UNL1        0.0329
@<TRIPOS>BOND
     1     1     2    1
     2     1     3   am
     3     1     4    2
     4     2     5    1
     5     3     6    1
     6     5     7    1
     7     6     8    1
     8     7     9   ar
     9     7    10   ar
    10     8    11    1
    11    11    12    1
    12    12    13    1
    13    13    14    1
    14    14    15    1
    15    15    16   am
    16    16    17    1
    17    16    18    2
    18    17    19    1
    19    19    20    1
    20    20    21   ar
    21    20    22   ar
    22     2    23    1
    23     2    24    1
    24     3    25    1
    25     5    26    1
    26     5    27    1
    27     6    28    1
    28     6    29    1
    29     8    30    1
    30     8    31    1
    31    11    32    1
    32    11    33    1
    33    12    34    1
    34    12    35    1
    35    13    36    1
    36    13    37    1
    37    14    38    1
    38    14    39    1
    39    15    40    1
    40    17    41    1
    41    17    42    1
    42    19    43    1
    43    19    44    1
@<TRIPOS>SUBSTRUCTURE
     1 UNL1        1 TEMP              0 ****  ****    0 ROOT


