HTS1710-00564397-01
 OpenBabel03232612363D

 36 37  0  0  0  0  0  0  0  0999 V2000
    2.9780  -11.8225  -30.4738 N   0  0  0  0  0  0  0  0  0  0  0  0
    2.4779  -11.2133  -31.6211 C   0  0  0  0  0  0  0  0  0  0  0  0
    3.3354  -13.1506  -30.6405 C   0  0  0  0  0  0  0  0  0  0  0  0
    3.1150  -11.1098  -29.1872 C   0  0  0  0  0  0  0  0  0  0  0  0
    2.4651  -12.1809  -32.7445 C   0  0  0  0  0  0  0  0  0  0  0  0
    2.1074  -10.0519  -31.6765 O   0  0  0  0  0  0  0  0  0  0  0  0
    3.0632  -13.7683  -32.2955 S   0  0  0  0  0  0  0  0  0  0  0  0
    3.9750  -14.1257  -29.4362 S   0  0  0  0  0  0  0  0  0  0  0  0
    3.9588   -9.8442  -29.3675 C   0  0  0  0  0  0  0  0  0  0  0  0
    2.0227  -11.8147  -34.0000 C   0  0  0  0  0  0  0  0  0  0  0  0
    4.9402   -9.9268  -30.0858 O   0  5  0  0  0  0  0  0  0  0  0  0
    3.5925   -8.8409  -28.7809 O   0  0  0  0  0  0  0  0  0  0  0  0
    1.4800  -10.5727  -34.6340 C   0  0  0  0  0  0  0  0  0  0  0  0
    2.0604  -10.1392  -35.8430 C   0  0  0  0  0  0  0  0  0  0  0  0
    0.4296   -9.8119  -34.0824 C   0  0  0  0  0  0  0  0  0  0  0  0
    1.6073   -8.9709  -36.4931 C   0  0  0  0  0  0  0  0  0  0  0  0
   -0.0241   -8.6476  -34.7189 C   0  0  0  0  0  0  0  0  0  0  0  0
    0.5636   -8.2174  -35.9259 C   0  0  0  0  0  0  0  0  0  0  0  0
    2.1704   -8.5325  -37.6797 O   0  0  0  0  0  0  0  0  0  0  0  0
    0.1461   -7.0674  -36.5762 O   0  0  0  0  0  0  0  0  0  0  0  0
    3.2827   -9.1866  -38.3142 C   0  0  0  0  0  0  0  0  0  0  0  0
   -1.0093   -6.2978  -36.1764 C   0  0  0  0  0  0  0  0  0  0  0  0
   -1.1849   -5.0370  -37.0394 C   0  0  0  0  0  0  0  0  0  0  0  0
   -0.8492   -5.0916  -38.2099 O   0  5  0  0  0  0  0  0  0  0  0  0
   -1.6069   -4.0441  -36.4741 O   0  0  0  0  0  0  0  0  0  0  0  0
    3.5907  -11.7528  -28.4764 H   0  0  0  0  0  0  0  0  0  0  0  0
    2.1424  -10.8327  -28.8377 H   0  0  0  0  0  0  0  0  0  0  0  0
    2.0812  -12.5959  -34.6717 H   0  0  0  0  0  0  0  0  0  0  0  0
    2.8300  -10.6856  -36.2604 H   0  0  0  0  0  0  0  0  0  0  0  0
   -0.0107  -10.1152  -33.1996 H   0  0  0  0  0  0  0  0  0  0  0  0
   -0.7938   -8.1018  -34.3008 H   0  0  0  0  0  0  0  0  0  0  0  0
    3.5370   -8.6657  -39.2135 H   0  0  0  0  0  0  0  0  0  0  0  0
    3.0160  -10.1957  -38.5498 H   0  0  0  0  0  0  0  0  0  0  0  0
    4.1227   -9.1851  -37.6514 H   0  0  0  0  0  0  0  0  0  0  0  0
   -0.8924   -6.0039  -35.1541 H   0  0  0  0  0  0  0  0  0  0  0  0
   -1.8768   -6.9110  -36.3045 H   0  0  0  0  0  0  0  0  0  0  0  0
  1  2  1  0  0  0  0
  1  3  1  0  0  0  0
  1  4  1  0  0  0  0
  2  5  1  0  0  0  0
  2  6  2  0  0  0  0
  3  7  1  0  0  0  0
  3  8  2  0  0  0  0
  4  9  1  0  0  0  0
  4 26  1  0  0  0  0
  4 27  1  0  0  0  0
  5 10  2  0  0  0  0
  5  7  1  0  0  0  0
  9 11  1  0  0  0  0
  9 12  2  0  0  0  0
 10 13  1  0  0  0  0
 10 28  1  0  0  0  0
 13 14  2  0  0  0  0
 13 15  1  0  0  0  0
 14 16  1  0  0  0  0
 14 29  1  0  0  0  0
 15 17  2  0  0  0  0
 15 30  1  0  0  0  0
 16 18  2  0  0  0  0
 16 19  1  0  0  0  0
 17 18  1  0  0  0  0
 17 31  1  0  0  0  0
 18 20  1  0  0  0  0
 19 21  1  0  0  0  0
 20 22  1  0  0  0  0
 21 32  1  0  0  0  0
 21 33  1  0  0  0  0
 21 34  1  0  0  0  0
 22 23  1  0  0  0  0
 22 35  1  0  0  0  0
 22 36  1  0  0  0  0
 23 24  1  0  0  0  0
 23 25  2  0  0  0  0
M  CHG  2  11  -1  24  -1
M  END
$$$$
