##########                                Name: HTS1710-00480767-01
##########                    Molecular_Weight:             365.387
##########                DOCK_Rotatable_Bonds:                   7
##########                       Formal_Charge:                  -2
##########                     HBond_Acceptors:                   9
##########                        HBond_Donors:                   0
##########                         Heavy_Atoms:                  24
##########                          Grid_Score:          -76.100021
##########                     Grid_vdw_energy:          -39.342316
##########                      Grid_es_energy:          -36.757702
##########           Internal_energy_repulsive:           12.314389

@<TRIPOS>MOLECULE
HTS1710-00480767-01
 35 36 1 0 0
SMALL
USER_CHARGES


@<TRIPOS>ATOM
      1 N           2.5704   -9.7530  -31.6676 N.am    1  UNL1       -0.2463
      2 C           3.4233   -8.9981  -30.7079 C.3     1  UNL1        0.0765
      3 C           1.7619   -9.1044  -32.5995 C.2     1  UNL1        0.2589
      4 C           2.5515  -11.1404  -31.7694 C.2     1  UNL1        0.1211
      5 C           4.9402   -9.1587  -31.0221 C.3     1  UNL1        0.0111
      6 C           3.0283   -9.3340  -29.2514 C.2     1  UNL1        0.0629
      7 C           1.0792  -10.0944  -33.4630 C.2     1  UNL1        0.0772
      8 O           1.6423   -7.8927  -32.6842 O.2     1  UNL1       -0.2690
      9 S           1.4826  -11.7520  -33.0646 S.3     1  UNL1       -0.0610
     10 S           3.4540  -12.2074  -30.8420 S.2     1  UNL1       -0.0272
     11 C           5.4751   -8.0172  -31.8975 C.2     1  UNL1        0.0439
     12 O           1.9056   -9.7780  -29.0754 O.co2   1  UNL1       -0.5479
     13 O           3.8456   -9.1333  -28.3686 O.co2   1  UNL1       -0.5479
     14 C           0.2197   -9.6981  -34.4675 C.2     1  UNL1       -0.0357
     15 O           5.6720   -6.9439  -31.3538 O.co2   1  UNL1       -0.5497
     16 O           5.6859   -8.2632  -33.0726 O.co2   1  UNL1       -0.5497
     17 C          -0.2862   -8.3966  -35.0057 C.ar    1  UNL1       -0.0236
     18 C           0.2180   -7.9504  -36.2436 C.ar    1  UNL1       -0.0511
     19 C          -1.2408   -7.5960  -34.3424 C.ar    1  UNL1       -0.0511
     20 C          -0.2148   -6.7399  -36.8055 C.ar    1  UNL1       -0.0194
     21 C          -1.6772   -6.3836  -34.9038 C.ar    1  UNL1       -0.0194
     22 C          -1.1634   -5.9491  -36.1416 C.ar    1  UNL1        0.1201
     23 O          -1.5602   -4.7647  -36.7342 O.3     1  UNL1       -0.4951
     24 C          -1.0150   -4.2930  -37.9787 C.3     1  UNL1        0.0788
     25 H           3.2387   -7.9511  -30.8294 H       1  UNL1        0.0570
     26 H           5.0895  -10.0856  -31.5354 H       1  UNL1        0.0347
     27 H           5.4719   -9.1376  -30.0938 H       1  UNL1        0.0347
     28 H          -0.1743  -10.5044  -34.9771 H       1  UNL1        0.0636
     29 H           0.9159   -8.5225  -36.7443 H       1  UNL1        0.0625
     30 H          -1.6227   -7.9044  -33.4346 H       1  UNL1        0.0625
     31 H           0.1673   -6.4298  -37.7127 H       1  UNL1        0.0654
     32 H          -2.3766   -5.8095  -34.4075 H       1  UNL1        0.0654
     33 H          -1.4719   -3.3608  -38.2377 H       1  UNL1        0.0660
     34 H          -1.2087   -5.0110  -38.7479 H       1  UNL1        0.0660
     35 H           0.0413   -4.1561  -37.8763 H       1  UNL1        0.0660
@<TRIPOS>BOND
     1     1     2    1
     2     1     3   am
     3     1     4    1
     4     2     5    1
     5     2     6    1
     6     3     7    1
     7     3     8    2
     8     4     9    1
     9     4    10    2
    10     5    11    1
    11     6    12   ar
    12     6    13   ar
    13     7    14    2
    14    11    15   ar
    15    11    16   ar
    16    14    17    1
    17    17    18   ar
    18    17    19   ar
    19    18    20   ar
    20    19    21   ar
    21    20    22   ar
    22    22    23    1
    23    23    24    1
    24     7     9    1
    25    21    22   ar
    26     2    25    1
    27     5    26    1
    28     5    27    1
    29    14    28    1
    30    18    29    1
    31    19    30    1
    32    20    31    1
    33    21    32    1
    34    24    33    1
    35    24    34    1
    36    24    35    1
@<TRIPOS>SUBSTRUCTURE
     1 UNL1        1 TEMP              0 ****  ****    0 ROOT


