HTS1710-04399831-01
 OpenBabel03232612353D

 35 36  0  0  0  0  0  0  0  0999 V2000
    3.5974  -11.6334  -35.3661 S   0  0  0  0  0  0  0  0  0  0  0  0
    4.4191  -10.3558  -34.4277 C   0  0  0  0  0  0  0  0  0  0  0  0
    4.4242  -10.1741  -33.0273 C   0  0  0  0  0  0  0  0  0  0  0  0
    5.1799   -9.0766  -32.7147 C   0  0  0  0  0  0  0  0  0  0  0  0
    5.6554   -8.5641  -33.9295 N   0  0  0  0  0  0  0  0  0  0  0  0
    5.1826   -9.3557  -34.9758 C   0  0  0  0  0  0  0  0  0  0  0  0
    2.5731  -10.7472  -36.3926 N   0  0  0  0  0  0  0  0  0  0  0  0
    5.4354   -8.5498  -31.3482 C   0  0  0  0  0  0  0  0  0  0  0  0
    4.5902  -12.2577  -36.2467 O   0  0  0  0  0  0  0  0  0  0  0  0
    2.7073  -12.3716  -34.4651 O   0  0  0  0  0  0  0  0  0  0  0  0
   -2.6894   -7.2987  -34.9205 C   0  0  0  0  0  0  0  0  0  0  0  0
    5.9973   -7.4749  -31.2277 O   0  5  0  0  0  0  0  0  0  0  0  0
   -3.5090   -7.3379  -35.8222 O   0  5  0  0  0  0  0  0  0  0  0  0
    1.6294   -9.7844  -36.0939 C   0  0  0  0  0  0  0  0  0  0  0  0
   -1.3168   -6.6992  -35.2470 C   0  0  0  0  0  0  0  0  0  0  0  0
    5.0605   -9.2362  -30.4131 O   0  0  0  0  0  0  0  0  0  0  0  0
   -0.2848   -7.7818  -35.5412 C   0  0  0  0  0  0  0  0  0  0  0  0
    6.5165   -7.3867  -34.1175 C   0  0  0  0  0  0  0  0  0  0  0  0
   -2.8668   -7.7014  -33.7844 O   0  0  0  0  0  0  0  0  0  0  0  0
    0.7500   -9.9237  -35.0014 C   0  0  0  0  0  0  0  0  0  0  0  0
    1.5462   -8.6383  -36.9044 C   0  0  0  0  0  0  0  0  0  0  0  0
    0.5960   -7.6429  -36.6290 C   0  0  0  0  0  0  0  0  0  0  0  0
   -0.2003   -8.9265  -34.7292 C   0  0  0  0  0  0  0  0  0  0  0  0
    3.9346  -10.7750  -32.3459 H   0  0  0  0  0  0  0  0  0  0  0  0
    5.3724   -9.2149  -35.9804 H   0  0  0  0  0  0  0  0  0  0  0  0
    2.6673  -10.9526  -37.3509 H   0  0  0  0  0  0  0  0  0  0  0  0
   -0.9834   -6.1203  -34.4112 H   0  0  0  0  0  0  0  0  0  0  0  0
   -1.4183   -6.0889  -36.1199 H   0  0  0  0  0  0  0  0  0  0  0  0
    6.7085   -7.2483  -35.1609 H   0  0  0  0  0  0  0  0  0  0  0  0
    7.4418   -7.5355  -33.6012 H   0  0  0  0  0  0  0  0  0  0  0  0
    6.0256   -6.5199  -33.7270 H   0  0  0  0  0  0  0  0  0  0  0  0
    0.8047  -10.7605  -34.4000 H   0  0  0  0  0  0  0  0  0  0  0  0
    2.1871   -8.5285  -37.7059 H   0  0  0  0  0  0  0  0  0  0  0  0
    0.5432   -6.8042  -37.2280 H   0  0  0  0  0  0  0  0  0  0  0  0
   -0.8413   -9.0345  -33.9276 H   0  0  0  0  0  0  0  0  0  0  0  0
  1  2  1  0  0  0  0
  1  7  1  0  0  0  0
  1  9  2  0  0  0  0
  1 10  2  0  0  0  0
  2  3  1  0  0  0  0
  2  6  2  0  0  0  0
  3  4  2  0  0  0  0
  3 24  1  0  0  0  0
  4  8  1  0  0  0  0
  4  5  1  0  0  0  0
  5  6  1  0  0  0  0
  5 18  1  0  0  0  0
  6 25  1  0  0  0  0
  7 14  1  0  0  0  0
  7 26  1  0  0  0  0
  8 12  1  0  0  0  0
  8 16  2  0  0  0  0
 11 15  1  0  0  0  0
 11 13  1  0  0  0  0
 11 19  2  0  0  0  0
 14 20  2  0  0  0  0
 14 21  1  0  0  0  0
 15 17  1  0  0  0  0
 15 27  1  0  0  0  0
 15 28  1  0  0  0  0
 17 22  1  0  0  0  0
 17 23  2  0  0  0  0
 18 29  1  0  0  0  0
 18 30  1  0  0  0  0
 18 31  1  0  0  0  0
 20 23  1  0  0  0  0
 20 32  1  0  0  0  0
 21 22  2  0  0  0  0
 21 33  1  0  0  0  0
 22 34  1  0  0  0  0
 23 35  1  0  0  0  0
M  CHG  2  12  -1  13  -1
M  END
$$$$
