##########                                Name: HTS1710-05221343-01
##########                    Molecular_Weight:             391.358
##########                DOCK_Rotatable_Bonds:                   9
##########                       Formal_Charge:                  -2
##########                     HBond_Acceptors:                  10
##########                        HBond_Donors:                   2
##########                         Heavy_Atoms:                  27
##########                          Grid_Score:          -77.955223
##########                     Grid_vdw_energy:          -43.912075
##########                      Grid_es_energy:          -34.043148
##########           Internal_energy_repulsive:           18.327394

@<TRIPOS>MOLECULE
HTS1710-05221343-01
 40 41 1 0 0
SMALL
USER_CHARGES


@<TRIPOS>ATOM
      1 C           2.2624  -15.1506  -28.8217 C.3     1  UNL1        0.0789
      2 O           1.7925  -13.7920  -28.8604 O.3     1  UNL1       -0.4931
      3 C           2.5264  -12.7479  -29.3960 C.ar    1  UNL1        0.1466
      4 C           3.2387  -11.8518  -28.5726 C.ar    1  UNL1       -0.0174
      5 C           3.9675  -10.7957  -29.1404 C.ar    1  UNL1       -0.0510
      6 C           4.0024  -10.6126  -30.5340 C.ar    1  UNL1       -0.0229
      7 C           4.7694   -9.4669  -31.0969 C.2     1  UNL1       -0.0529
      8 C           5.0818   -9.2004  -32.3908 C.2     1  UNL1       -0.0388
      9 C           5.8572   -8.0297  -32.8939 C.2     1  UNL1        0.0646
     10 O           5.9934   -7.9362  -34.1012 O.co2   1  UNL1       -0.5452
     11 O           6.3028   -7.2470  -32.0729 O.co2   1  UNL1       -0.5452
     12 C           3.3001  -11.5159  -31.3566 C.ar    1  UNL1       -0.0243
     13 C           2.5653  -12.5809  -30.7981 C.ar    1  UNL1        0.1504
     14 S           1.6530  -13.6923  -31.8961 S.O2    1  UNL1        0.0759
     15 O           0.4817  -14.2146  -31.1862 O.2     1  UNL1       -0.1499
     16 O           2.6302  -14.5448  -32.5805 O.2     1  UNL1       -0.1499
     17 N           1.0525  -12.6837  -33.1282 N.pl3   1  UNL1       -0.2160
     18 C           1.7444  -11.9312  -34.0543 C.ar    1  UNL1        0.0515
     19 C           1.2516  -10.6703  -34.4161 C.ar    1  UNL1       -0.0385
     20 C           1.9384   -9.8814  -35.3504 C.ar    1  UNL1       -0.0476
     21 C           3.1370  -10.3293  -35.9561 C.ar    1  UNL1        0.0388
     22 C           3.8319   -9.4181  -36.9653 C.2     1  UNL1        0.0752
     23 O           3.3180   -9.3138  -38.0657 O.co2   1  UNL1       -0.5445
     24 O           4.8541   -8.8437  -36.6330 O.co2   1  UNL1       -0.5445
     25 C           3.6274  -11.6147  -35.5833 C.ar    1  UNL1        0.1275
     26 O           4.7743  -12.1398  -36.1128 O.3     1  UNL1       -0.5061
     27 C           2.9334  -12.3960  -34.6431 C.ar    1  UNL1        0.0028
     28 H           1.5214  -15.7713  -28.3626 H       1  UNL1        0.0660
     29 H           3.1688  -15.1985  -28.2551 H       1  UNL1        0.0660
     30 H           2.4464  -15.4929  -29.8186 H       1  UNL1        0.0660
     31 H           3.2239  -11.9733  -27.5479 H       1  UNL1        0.0655
     32 H           4.4842  -10.1455  -28.5277 H       1  UNL1        0.0625
     33 H           5.1110   -8.7795  -30.4070 H       1  UNL1        0.0624
     34 H           4.7496   -9.8755  -33.0972 H       1  UNL1        0.0635
     35 H           3.3242  -11.3959  -32.3813 H       1  UNL1        0.0644
     36 H           0.0713  -12.6295  -33.1887 H       1  UNL1        0.1737
     37 H           0.3781  -10.3201  -33.9925 H       1  UNL1        0.0637
     38 H           1.5618   -8.9541  -35.6019 H       1  UNL1        0.0626
     39 H           4.7720  -12.4884  -36.9825 H       1  UNL1        0.2922
     40 H           3.3019  -13.3238  -34.3814 H       1  UNL1        0.0673
@<TRIPOS>BOND
     1     1     2    1
     2     2     3    1
     3     3     4   ar
     4     4     5   ar
     5     5     6   ar
     6     6     7    1
     7     7     8    2
     8     8     9    1
     9     9    10   ar
    10     9    11   ar
    11     6    12   ar
    12    12    13   ar
    13     3    13   ar
    14    13    14    1
    15    14    15    2
    16    14    16    2
    17    14    17    1
    18    17    18    1
    19    18    19   ar
    20    19    20   ar
    21    20    21   ar
    22    21    22    1
    23    22    23   ar
    24    22    24   ar
    25    21    25   ar
    26    25    26    1
    27    25    27   ar
    28    18    27   ar
    29     1    28    1
    30     1    29    1
    31     1    30    1
    32     4    31    1
    33     5    32    1
    34     7    33    1
    35     8    34    1
    36    12    35    1
    37    17    36    1
    38    19    37    1
    39    20    38    1
    40    26    39    1
    41    27    40    1
@<TRIPOS>SUBSTRUCTURE
     1 UNL1        1 TEMP              0 ****  ****    0 ROOT


