HTS1710-01263438-01
 OpenBabel03232612353D

 46 49  0  0  1  0  0  0  0  0999 V2000
    3.7360   -7.4339  -31.4852 C   0  0  0  0  0  0  0  0  0  0  0  0
    2.8452   -9.7051  -30.7442 C   0  0  0  0  0  0  0  0  0  0  0  0
    2.5136   -8.2691  -31.1388 C   0  0  2  0  0  0  0  0  0  0  0  0
    4.7989   -7.9937  -32.1762 C   0  0  0  0  0  0  0  0  0  0  0  0
    3.4483  -10.0401  -29.5342 C   0  0  0  0  0  0  0  0  0  0  0  0
    3.7400  -11.4395  -29.1809 C   0  0  0  0  0  0  0  0  0  0  0  0
    5.9796   -7.2000  -32.5488 C   0  0  0  0  0  0  0  0  0  0  0  0
    2.4886  -10.6449  -31.6932 O   0  0  0  0  0  0  0  0  0  0  0  0
    3.6992   -6.1101  -31.0885 O   0  0  0  0  0  0  0  0  0  0  0  0
    1.4154   -8.1733  -32.2056 C   0  0  0  0  0  0  0  0  0  0  0  0
    3.3319  -12.3832  -30.2181 C   0  0  0  0  0  0  0  0  0  0  0  0
    5.8768   -5.8035  -32.1271 C   0  0  0  0  0  0  0  0  0  0  0  0
    4.7773   -5.3287  -31.4454 C   0  0  0  0  0  0  0  0  0  0  0  0
    2.7481  -11.9653  -31.3925 C   0  0  0  0  0  0  0  0  0  0  0  0
    0.1372   -7.6363  -31.9079 C   0  0  0  0  0  0  0  0  0  0  0  0
   -0.8147   -7.6019  -32.9311 C   0  0  0  0  0  0  0  0  0  0  0  0
   -0.5465   -8.0632  -34.1882 C   0  0  0  0  0  0  0  0  0  0  0  0
   -2.0911   -7.1378  -32.8527 O   0  0  0  0  0  0  0  0  0  0  0  0
   -1.6342   -7.9230  -34.9945 O   0  0  0  0  0  0  0  0  0  0  0  0
   -2.6799   -7.3251  -34.1742 C   0  0  0  0  0  0  0  0  0  0  0  0
    1.6811   -8.6529  -33.5174 C   0  0  0  0  0  0  0  0  0  0  0  0
    4.2665  -11.7907  -28.1378 O   0  0  0  0  0  0  0  0  0  0  0  0
    6.9445   -7.6438  -33.1495 O   0  0  0  0  0  0  0  0  0  0  0  0
    3.8303   -9.1591  -28.5814 O   0  0  0  0  0  0  0  0  0  0  0  0
    4.8560   -9.2845  -32.5761 O   0  0  0  0  0  0  0  0  0  0  0  0
    0.6968   -8.5997  -34.5259 C   0  0  0  0  0  0  0  0  0  0  0  0
    4.7113   -3.8783  -31.0466 C   0  0  0  0  0  0  0  0  0  0  0  0
    2.3409  -12.9806  -32.4307 C   0  0  0  0  0  0  0  0  0  0  0  0
    4.0564   -3.7235  -29.7918 O   0  0  0  0  0  0  0  0  0  0  0  0
    0.9218  -13.0703  -32.5379 O   0  0  0  0  0  0  0  0  0  0  0  0
    2.1063   -7.8296  -30.2524 H   0  0  0  0  0  0  0  0  0  0  0  0
    3.4857  -13.3923  -30.0662 H   0  0  0  0  0  0  0  0  0  0  0  0
    6.6494   -5.1554  -32.3461 H   0  0  0  0  0  0  0  0  0  0  0  0
   -0.0836   -7.2815  -30.9643 H   0  0  0  0  0  0  0  0  0  0  0  0
   -2.9825   -6.3841  -34.5840 H   0  0  0  0  0  0  0  0  0  0  0  0
   -3.5506   -7.9457  -34.1327 H   0  0  0  0  0  0  0  0  0  0  0  0
    2.6099   -9.0465  -33.7352 H   0  0  0  0  0  0  0  0  0  0  0  0
    4.1357   -9.4695  -27.7517 H   0  0  0  0  0  0  0  0  0  0  0  0
    4.1400   -9.8622  -32.3981 H   0  0  0  0  0  0  0  0  0  0  0  0
    0.8888   -8.9450  -35.4793 H   0  0  0  0  0  0  0  0  0  0  0  0
    4.1707   -3.3345  -31.7929 H   0  0  0  0  0  0  0  0  0  0  0  0
    5.7095   -3.5030  -30.9588 H   0  0  0  0  0  0  0  0  0  0  0  0
    2.7309  -13.9378  -32.1541 H   0  0  0  0  0  0  0  0  0  0  0  0
    2.7326  -12.6718  -33.3773 H   0  0  0  0  0  0  0  0  0  0  0  0
    4.0197   -2.7824  -29.5601 H   0  0  0  0  0  0  0  0  0  0  0  0
    0.5410  -13.2345  -31.6610 H   0  0  0  0  0  0  0  0  0  0  0  0
  1  3  1  0  0  0  0
  1  4  2  0  0  0  0
  1  9  1  0  0  0  0
  2  3  1  0  0  0  0
  2  5  2  0  0  0  0
  2  8  1  0  0  0  0
  3 10  1  0  0  0  0
  3 31  1  1  0  0  0
  4  7  1  0  0  0  0
  4 25  1  0  0  0  0
  5  6  1  0  0  0  0
  5 24  1  0  0  0  0
  6 22  2  0  0  0  0
  6 11  1  0  0  0  0
  7 23  2  0  0  0  0
  7 12  1  0  0  0  0
  8 14  1  0  0  0  0
  9 13  1  0  0  0  0
 10 15  2  0  0  0  0
 10 21  1  0  0  0  0
 11 14  2  0  0  0  0
 11 32  1  0  0  0  0
 12 13  2  0  0  0  0
 12 33  1  0  0  0  0
 13 27  1  0  0  0  0
 14 28  1  0  0  0  0
 15 16  1  0  0  0  0
 15 34  1  0  0  0  0
 16 18  1  0  0  0  0
 16 17  2  0  0  0  0
 17 26  1  0  0  0  0
 17 19  1  0  0  0  0
 18 20  1  0  0  0  0
 19 20  1  0  0  0  0
 20 35  1  0  0  0  0
 20 36  1  0  0  0  0
 21 26  2  0  0  0  0
 21 37  1  0  0  0  0
 24 38  1  0  0  0  0
 25 39  1  0  0  0  0
 26 40  1  0  0  0  0
 27 29  1  0  0  0  0
 27 41  1  0  0  0  0
 27 42  1  0  0  0  0
 28 30  1  0  0  0  0
 28 43  1  0  0  0  0
 28 44  1  0  0  0  0
 29 45  1  0  0  0  0
 30 46  1  0  0  0  0
M  END
$$$$
