##########                                Name: HTS1710-00862656-01
##########                    Molecular_Weight:             393.398
##########                DOCK_Rotatable_Bonds:                   8
##########                       Formal_Charge:                  -2
##########                     HBond_Acceptors:                  10
##########                        HBond_Donors:                   0
##########                         Heavy_Atoms:                  26
##########                          Grid_Score:          -76.003799
##########                     Grid_vdw_energy:          -35.062138
##########                      Grid_es_energy:          -40.941662
##########           Internal_energy_repulsive:           17.760014

@<TRIPOS>MOLECULE
HTS1710-00862656-01
 37 38 1 0 0
SMALL
USER_CHARGES


@<TRIPOS>ATOM
      1 N           2.9966  -10.5696  -32.5926 N.am    1  UNL1       -0.2463
      2 C           3.2238  -11.8222  -33.1519 C.2     1  UNL1        0.1211
      3 C           2.1764   -9.7458  -33.3627 C.2     1  UNL1        0.2589
      4 C           1.7335  -10.4591  -34.5838 C.2     1  UNL1        0.0772
      5 S           2.3782  -12.0819  -34.7052 S.3     1  UNL1       -0.0610
      6 C           3.5855  -10.1107  -31.3039 C.3     1  UNL1        0.0765
      7 C           2.4877   -9.7195  -30.2690 C.3     1  UNL1        0.0111
      8 C           0.8877   -9.8639  -35.4985 C.2     1  UNL1       -0.0357
      9 C           4.6682   -9.0387  -31.5714 C.2     1  UNL1        0.0629
     10 S           4.2465  -13.0025  -32.5415 S.2     1  UNL1       -0.0272
     11 C          -1.8734   -4.7161  -35.8834 C.2     1  UNL1        0.3389
     12 C           3.0269   -8.8133  -29.1523 C.2     1  UNL1        0.0439
     13 O           1.8684   -8.6034  -33.0639 O.2     1  UNL1       -0.2690
     14 C          -1.1551   -6.0406  -35.7818 C.ar    1  UNL1        0.0590
     15 O           4.7009   -8.4973  -32.6638 O.co2   1  UNL1       -0.5479
     16 O          -2.8667   -4.5581  -36.5759 O.2     1  UNL1       -0.2450
     17 O           3.9383   -9.2548  -28.4731 O.co2   1  UNL1       -0.5497
     18 C           0.2106   -8.5370  -35.6353 C.ar    1  UNL1       -0.0238
     19 C          -0.2638   -6.4366  -36.7972 C.ar    1  UNL1       -0.0472
     20 C          -1.3530   -6.9057  -34.6864 C.ar    1  UNL1       -0.0472
     21 O           5.4281   -8.7946  -30.6499 O.co2   1  UNL1       -0.5479
     22 O          -1.3077   -3.7241  -35.1294 O.3     1  UNL1       -0.4645
     23 O           2.4886   -7.7312  -28.9934 O.co2   1  UNL1       -0.5497
     24 C          -0.6766   -8.1346  -34.6179 C.ar    1  UNL1       -0.0538
     25 C           0.4094   -7.6667  -36.7270 C.ar    1  UNL1       -0.0538
     26 C          -1.5947   -3.6562  -33.7201 C.3     1  UNL1        0.0820
     27 H           4.0952  -10.9214  -30.8268 H       1  UNL1        0.0570
     28 H           2.0985  -10.6131  -29.8276 H       1  UNL1        0.0347
     29 H           1.7288   -9.1750  -30.7909 H       1  UNL1        0.0347
     30 H           0.6670  -10.4928  -36.2864 H       1  UNL1        0.0636
     31 H          -0.1032   -5.8140  -37.6044 H       1  UNL1        0.0626
     32 H          -1.9996   -6.6340  -33.9294 H       1  UNL1        0.0626
     33 H          -0.8325   -8.7541  -33.8074 H       1  UNL1        0.0624
     34 H           1.0575   -7.9371  -37.4833 H       1  UNL1        0.0624
     35 H          -1.0737   -2.8268  -33.2896 H       1  UNL1        0.0661
     36 H          -1.2763   -4.5617  -33.2473 H       1  UNL1        0.0661
     37 H          -2.6473   -3.5297  -33.5762 H       1  UNL1        0.0661
@<TRIPOS>BOND
     1     1     2    1
     2     1     3   am
     3     3     4    1
     4     2     5    1
     5     1     6    1
     6     6     7    1
     7     4     8    2
     8     6     9    1
     9     2    10    2
    10    11    14    1
    11     7    12    1
    12     3    13    2
    13    14    19   ar
    14     9    15   ar
    15    11    16    2
    16    12    17   ar
    17     8    18    1
    18    19    25   ar
    19    20    24   ar
    20     9    21   ar
    21    11    22    1
    22    12    23   ar
    23    18    24   ar
    24    18    25   ar
    25    22    26    1
    26     4     5    1
    27    14    20   ar
    28     6    27    1
    29     7    28    1
    30     7    29    1
    31     8    30    1
    32    19    31    1
    33    20    32    1
    34    24    33    1
    35    25    34    1
    36    26    35    1
    37    26    36    1
    38    26    37    1
@<TRIPOS>SUBSTRUCTURE
     1 UNL1        1 TEMP              0 ****  ****    0 ROOT


