HTS1710-02004789-01
 OpenBabel03232612343D

 44 46  0  0  1  0  0  0  0  0999 V2000
    3.8265  -11.6673  -29.6855 C   0  0  0  0  0  0  0  0  0  0  0  0
    4.5402  -11.0222  -31.8289 N   0  0  0  0  0  0  0  0  0  0  0  0
    4.0230  -10.3319  -29.7287 C   0  0  0  0  0  0  0  0  0  0  0  0
    4.4735   -9.8811  -31.0529 C   0  0  0  0  0  0  0  0  0  0  0  0
    4.1250  -12.2338  -31.0803 C   0  0  2  0  0  0  0  0  0  0  0  0
    3.3897  -12.5788  -28.5771 C   0  0  0  0  0  0  0  0  0  0  0  0
    4.9581  -11.0963  -33.2394 C   0  0  0  0  0  0  0  0  0  0  0  0
    4.0771  -10.2098  -34.1547 C   0  0  0  0  0  0  0  0  0  0  0  0
    2.9295  -12.9353  -31.7211 C   0  0  0  0  0  0  0  0  0  0  0  0
    4.8682   -9.2271  -35.0343 C   0  0  0  0  0  0  0  0  0  0  0  0
    4.7393   -8.7444  -31.4050 O   0  0  0  0  0  0  0  0  0  0  0  0
    4.3706  -13.5560  -28.0019 C   0  0  0  0  0  0  0  0  0  0  0  0
    2.3412  -12.2957  -32.7550 N   0  0  0  0  0  0  0  0  0  0  0  0
    2.2475  -12.5536  -28.1514 O   0  0  0  0  0  0  0  0  0  0  0  0
    3.8323   -9.4370  -28.7316 O   0  5  0  0  0  0  0  0  0  0  0  0
    5.7804   -8.5989  -34.5255 O   0  5  0  0  0  0  0  0  0  0  0  0
    3.9354  -14.8031  -27.5159 C   0  0  0  0  0  0  0  0  0  0  0  0
    5.7298  -13.2087  -27.8945 C   0  0  0  0  0  0  0  0  0  0  0  0
    6.2151  -15.3649  -26.8617 C   0  0  0  0  0  0  0  0  0  0  0  0
    4.5209   -9.1420  -36.1996 O   0  0  0  0  0  0  0  0  0  0  0  0
    6.6519  -14.1075  -27.3329 C   0  0  0  0  0  0  0  0  0  0  0  0
    4.8549  -15.7036  -26.9553 C   0  0  0  0  0  0  0  0  0  0  0  0
    7.0795  -16.2839  -26.2999 O   0  0  0  0  0  0  0  0  0  0  0  0
    1.2736  -12.8716  -33.3424 C   0  0  0  0  0  0  0  0  0  0  0  0
    2.4659  -14.1767  -31.2375 C   0  0  0  0  0  0  0  0  0  0  0  0
    6.6469  -17.5598  -25.7963 C   0  0  0  0  0  0  0  0  0  0  0  0
    0.7469  -14.1070  -32.9279 C   0  0  0  0  0  0  0  0  0  0  0  0
    1.3556  -14.7731  -31.8541 C   0  0  0  0  0  0  0  0  0  0  0  0
    4.8659  -13.0056  -31.0640 H   0  0  0  0  0  0  0  0  0  0  0  0
    4.8848  -12.1118  -33.5683 H   0  0  0  0  0  0  0  0  0  0  0  0
    5.9646  -10.7392  -33.3043 H   0  0  0  0  0  0  0  0  0  0  0  0
    3.4123   -9.6449  -33.5352 H   0  0  0  0  0  0  0  0  0  0  0  0
    3.5630  -10.8717  -34.8200 H   0  0  0  0  0  0  0  0  0  0  0  0
    2.9366  -15.0565  -27.5718 H   0  0  0  0  0  0  0  0  0  0  0  0
    6.0515  -12.2875  -28.2306 H   0  0  0  0  0  0  0  0  0  0  0  0
    7.6486  -13.8488  -27.2648 H   0  0  0  0  0  0  0  0  0  0  0  0
    4.5296  -16.6200  -26.6098 H   0  0  0  0  0  0  0  0  0  0  0  0
    0.8227  -12.3835  -34.1320 H   0  0  0  0  0  0  0  0  0  0  0  0
    2.9358  -14.6387  -30.4432 H   0  0  0  0  0  0  0  0  0  0  0  0
    7.4894  -18.0956  -25.4114 H   0  0  0  0  0  0  0  0  0  0  0  0
    6.1980  -18.1223  -26.5882 H   0  0  0  0  0  0  0  0  0  0  0  0
    5.9316  -17.4109  -25.0147 H   0  0  0  0  0  0  0  0  0  0  0  0
   -0.0720  -14.5161  -33.4045 H   0  0  0  0  0  0  0  0  0  0  0  0
    0.9947  -15.6821  -31.5248 H   0  0  0  0  0  0  0  0  0  0  0  0
  1  3  2  0  0  0  0
  1  5  1  0  0  0  0
  1  6  1  0  0  0  0
  2  4  1  0  0  0  0
  2  5  1  0  0  0  0
  2  7  1  0  0  0  0
  3  4  1  0  0  0  0
  3 15  1  0  0  0  0
  4 11  2  0  0  0  0
  5  9  1  0  0  0  0
  5 29  1  1  0  0  0
  6 12  1  0  0  0  0
  6 14  2  0  0  0  0
  7  8  1  0  0  0  0
  7 30  1  0  0  0  0
  7 31  1  0  0  0  0
  8 10  1  0  0  0  0
  8 32  1  0  0  0  0
  8 33  1  0  0  0  0
  9 13  2  0  0  0  0
  9 25  1  0  0  0  0
 10 16  1  0  0  0  0
 10 20  2  0  0  0  0
 12 17  2  0  0  0  0
 12 18  1  0  0  0  0
 13 24  1  0  0  0  0
 17 22  1  0  0  0  0
 17 34  1  0  0  0  0
 18 21  2  0  0  0  0
 18 35  1  0  0  0  0
 19 21  1  0  0  0  0
 19 22  2  0  0  0  0
 19 23  1  0  0  0  0
 21 36  1  0  0  0  0
 22 37  1  0  0  0  0
 23 26  1  0  0  0  0
 24 27  2  0  0  0  0
 24 38  1  0  0  0  0
 25 28  2  0  0  0  0
 25 39  1  0  0  0  0
 26 40  1  0  0  0  0
 26 41  1  0  0  0  0
 26 42  1  0  0  0  0
 27 28  1  0  0  0  0
 27 43  1  0  0  0  0
 28 44  1  0  0  0  0
M  CHG  2  15  -1  16  -1
M  END
$$$$
