HTS1710-04716268-01
 OpenBabel03232612353D

 45 48  0  0  1  0  0  0  0  0999 V2000
   -1.1841   -7.8772  -35.0735 O   0  0  0  0  0  0  0  0  0  0  0  0
   -0.5864   -7.3343  -35.9875 C   0  0  0  0  0  0  0  0  0  0  0  0
    0.5408   -7.9223  -36.5561 N   0  0  0  0  0  0  0  0  0  0  0  0
    1.1105   -9.1369  -36.1862 C   0  0  0  0  0  0  0  0  0  0  0  0
    2.3564   -9.5863  -36.6832 C   0  0  0  0  0  0  0  0  0  0  0  0
    2.6670  -10.7549  -36.1491 N   0  0  0  0  0  0  0  0  0  0  0  0
    1.6146  -11.0557  -35.3128 N   0  0  0  0  0  0  0  0  0  0  0  0
    1.6520  -12.2607  -34.4697 C   0  0  0  0  0  0  0  0  0  0  0  0
    1.4551  -11.9538  -32.9590 C   0  0  1  0  0  0  0  0  0  0  0  0
    1.1042  -13.2335  -32.1550 C   0  0  0  0  0  0  0  0  0  0  0  0
    2.3274  -14.1508  -31.9405 C   0  0  0  0  0  0  0  0  0  0  0  0
    3.4940  -13.3576  -31.3203 C   0  0  0  0  0  0  0  0  0  0  0  0
    3.8321  -12.0905  -32.1398 C   0  0  0  0  0  0  0  0  0  0  0  0
    2.6430  -11.2407  -32.4095 N   0  0  0  0  0  0  0  0  0  0  0  0
    2.6110   -9.8429  -32.2708 C   0  0  0  0  0  0  0  0  0  0  0  0
    1.6107   -9.1997  -32.5457 O   0  0  0  0  0  0  0  0  0  0  0  0
    3.8565   -9.1563  -31.8208 C   0  0  0  0  0  0  0  0  0  0  0  0
    4.3060   -8.9710  -30.5426 C   0  0  0  0  0  0  0  0  0  0  0  0
    5.5347   -8.3692  -30.5337 O   0  0  0  0  0  0  0  0  0  0  0  0
    5.7486   -8.2438  -31.8878 C   0  0  0  0  0  0  0  0  0  0  0  0
    4.8006   -8.7013  -32.6833 N   0  0  0  0  0  0  0  0  0  0  0  0
    0.6336  -10.0785  -35.3201 C   0  0  0  0  0  0  0  0  0  0  0  0
   -1.0289   -6.0344  -36.5302 C   0  0  0  0  0  0  0  0  0  0  0  0
   -2.0702   -5.3023  -36.0468 C   0  0  0  0  0  0  0  0  0  0  0  0
   -2.2264   -4.1484  -36.7642 O   0  0  0  0  0  0  0  0  0  0  0  0
   -1.2005   -4.2924  -37.6763 C   0  0  0  0  0  0  0  0  0  0  0  0
   -0.4658   -5.3875  -37.5805 N   0  0  0  0  0  0  0  0  0  0  0  0
    0.9763   -7.4316  -37.2902 H   0  0  0  0  0  0  0  0  0  0  0  0
    2.9390   -9.0753  -37.3647 H   0  0  0  0  0  0  0  0  0  0  0  0
    2.6008  -12.7379  -34.5995 H   0  0  0  0  0  0  0  0  0  0  0  0
    0.8423  -12.8897  -34.7758 H   0  0  0  0  0  0  0  0  0  0  0  0
    0.6151  -11.2989  -32.8564 H   0  0  0  0  0  0  0  0  0  0  0  0
    0.3551  -13.7797  -32.6891 H   0  0  0  0  0  0  0  0  0  0  0  0
    0.7551  -12.9265  -31.1912 H   0  0  0  0  0  0  0  0  0  0  0  0
    2.6361  -14.5523  -32.8830 H   0  0  0  0  0  0  0  0  0  0  0  0
    2.0541  -14.9424  -31.2745 H   0  0  0  0  0  0  0  0  0  0  0  0
    4.3589  -13.9866  -31.2839 H   0  0  0  0  0  0  0  0  0  0  0  0
    3.1994  -13.0484  -30.3392 H   0  0  0  0  0  0  0  0  0  0  0  0
    4.2553  -12.3919  -33.0750 H   0  0  0  0  0  0  0  0  0  0  0  0
    4.5180  -11.5078  -31.5610 H   0  0  0  0  0  0  0  0  0  0  0  0
    3.7864   -9.2487  -29.6954 H   0  0  0  0  0  0  0  0  0  0  0  0
    6.6084   -7.8132  -32.2624 H   0  0  0  0  0  0  0  0  0  0  0  0
   -0.2533  -10.0650  -34.7926 H   0  0  0  0  0  0  0  0  0  0  0  0
   -2.6612   -5.5803  -35.2478 H   0  0  0  0  0  0  0  0  0  0  0  0
   -1.0156   -3.5791  -38.3987 H   0  0  0  0  0  0  0  0  0  0  0  0
  1  2  2  0  0  0  0
  2  3  1  0  0  0  0
  2 23  1  0  0  0  0
  3  4  1  0  0  0  0
  3 28  1  0  0  0  0
  4  5  1  0  0  0  0
  4 22  2  0  0  0  0
  5  6  2  0  0  0  0
  5 29  1  0  0  0  0
  6  7  1  0  0  0  0
  7  8  1  0  0  0  0
  7 22  1  0  0  0  0
  8  9  1  0  0  0  0
  8 30  1  0  0  0  0
  8 31  1  0  0  0  0
  9 10  1  0  0  0  0
  9 14  1  0  0  0  0
  9 32  1  1  0  0  0
 10 11  1  0  0  0  0
 10 33  1  0  0  0  0
 10 34  1  0  0  0  0
 11 12  1  0  0  0  0
 11 35  1  0  0  0  0
 11 36  1  0  0  0  0
 12 13  1  0  0  0  0
 12 37  1  0  0  0  0
 12 38  1  0  0  0  0
 13 14  1  0  0  0  0
 13 39  1  0  0  0  0
 13 40  1  0  0  0  0
 14 15  1  0  0  0  0
 15 16  2  0  0  0  0
 15 17  1  0  0  0  0
 17 18  2  0  0  0  0
 17 21  1  0  0  0  0
 18 19  1  0  0  0  0
 18 41  1  0  0  0  0
 19 20  1  0  0  0  0
 20 21  2  0  0  0  0
 20 42  1  0  0  0  0
 22 43  1  0  0  0  0
 23 24  2  0  0  0  0
 23 27  1  0  0  0  0
 24 25  1  0  0  0  0
 24 44  1  0  0  0  0
 25 26  1  0  0  0  0
 26 27  2  0  0  0  0
 26 45  1  0  0  0  0
M  END
$$$$
