##########                                Name: HTS1710-04762220-01
##########                    Molecular_Weight:             311.338
##########                DOCK_Rotatable_Bonds:                   6
##########                       Formal_Charge:                  -2
##########                     HBond_Acceptors:                   8
##########                        HBond_Donors:                   0
##########                         Heavy_Atoms:                  21
##########                          Grid_Score:          -74.854630
##########                     Grid_vdw_energy:          -36.540466
##########                      Grid_es_energy:          -38.314163
##########           Internal_energy_repulsive:           12.805070

@<TRIPOS>MOLECULE
HTS1710-04762220-01
 36 37 1 0 0
SMALL
USER_CHARGES


@<TRIPOS>ATOM
      1 C           3.5080  -11.9830  -31.2599 C.3     1  UNL1        0.0035
      2 N           3.9395  -12.1248  -29.8536 N.am    1  UNL1       -0.3000
      3 C           3.8527  -10.8964  -29.0374 C.3     1  UNL1        0.0266
      4 C           4.0322   -9.6596  -29.8748 C.2     1  UNL1       -0.0998
      5 C           3.0655   -8.7063  -30.0528 C.2     1  UNL1       -0.0630
      6 C           3.6716   -7.7254  -30.8820 C.2     1  UNL1       -0.0144
      7 C           3.0336   -6.4771  -31.3659 C.2     1  UNL1        0.0708
      8 O           3.6393   -5.4277  -31.2405 O.co2   1  UNL1       -0.5447
      9 O           1.9261   -6.5796  -31.8644 O.co2   1  UNL1       -0.5447
     10 C           4.9436   -8.2177  -31.1013 C.2     1  UNL1       -0.1120
     11 C           6.0145   -7.5480  -31.9247 C.3     1  UNL1       -0.0524
     12 O           5.2242   -9.4174  -30.4988 O.co2   1  UNL1       -0.7845
     13 C           4.4487  -13.3163  -29.3272 C.2     1  UNL1        0.2330
     14 O           4.5310  -14.3372  -29.9925 O.2     1  UNL1       -0.2739
     15 C           4.9096  -13.2671  -27.8545 C.3     1  UNL1        0.0920
     16 N           5.4611  -14.5647  -27.4170 N.am    1  UNL1       -0.2827
     17 C           4.5259  -15.6811  -27.2422 C.3     1  UNL1        0.0619
     18 S           5.4770  -16.9658  -26.3453 S.3     1  UNL1       -0.1323
     19 C           7.1058  -16.2201  -26.7407 C.3     1  UNL1        0.0719
     20 C           6.8063  -14.7815  -27.1537 C.2     1  UNL1        0.2265
     21 O           7.6657  -13.9209  -27.2425 O.2     1  UNL1       -0.2747
     22 H           3.1574  -10.9858  -31.4265 H       1  UNL1        0.0429
     23 H           2.7192  -12.6769  -31.4626 H       1  UNL1        0.0429
     24 H           4.3349  -12.1835  -31.9087 H       1  UNL1        0.0429
     25 H           4.6169  -10.9225  -28.2889 H       1  UNL1        0.0502
     26 H           2.8809  -10.8596  -28.5914 H       1  UNL1        0.0502
     27 H           2.1075   -8.7016  -29.6690 H       1  UNL1        0.0615
     28 H           5.6368   -6.6290  -32.3216 H       1  UNL1        0.0266
     29 H           6.3015   -8.1927  -32.7290 H       1  UNL1        0.0266
     30 H           6.8653   -7.3471  -31.3077 H       1  UNL1        0.0266
     31 H           4.0724  -13.0188  -27.2362 H       1  UNL1        0.0560
     32 H           5.6791  -12.5286  -27.7678 H       1  UNL1        0.0560
     33 H           4.1997  -16.0500  -28.1921 H       1  UNL1        0.0580
     34 H           3.6468  -15.3873  -26.7078 H       1  UNL1        0.0580
     35 H           7.5746  -16.7498  -27.5435 H       1  UNL1        0.0471
     36 H           7.7748  -16.2625  -25.9067 H       1  UNL1        0.0471
@<TRIPOS>BOND
     1     1     2    1
     2     2     3    1
     3     3     4    1
     4     4     5    2
     5     5     6    1
     6     6     7    1
     7     7     8   ar
     8     7     9   ar
     9     6    10    2
    10    10    11    1
    11    10    12    1
    12     4    12    1
    13     2    13   am
    14    13    14    2
    15    13    15    1
    16    15    16    1
    17    16    17    1
    18    17    18    1
    19    18    19    1
    20    19    20    1
    21    16    20   am
    22    20    21    2
    23     1    22    1
    24     1    23    1
    25     1    24    1
    26     3    25    1
    27     3    26    1
    28     5    27    1
    29    11    28    1
    30    11    29    1
    31    11    30    1
    32    15    31    1
    33    15    32    1
    34    17    33    1
    35    17    34    1
    36    19    35    1
    37    19    36    1
@<TRIPOS>SUBSTRUCTURE
     1 UNL1        1 TEMP              0 ****  ****    0 ROOT


