##########                                Name: HTS1710-00207099-01
##########                    Molecular_Weight:             222.177
##########                DOCK_Rotatable_Bonds:                   2
##########                       Formal_Charge:                  -3
##########                     HBond_Acceptors:                   6
##########                        HBond_Donors:                   0
##########                         Heavy_Atoms:                  16
##########                          Grid_Score:          -80.852264
##########                     Grid_vdw_energy:          -22.611036
##########                      Grid_es_energy:          -58.241226
##########           Internal_energy_repulsive:            2.654625

@<TRIPOS>MOLECULE
HTS1710-00207099-01
 24 25 1 0 0
SMALL
USER_CHARGES


@<TRIPOS>ATOM
      1 CA          4.5002   -8.6230  -31.0585 C.2     1  UNL1        0.0645
      2 N           4.6467   -9.8931  -30.5935 N.2     1  UNL1       -0.2586
      3 C           3.7589   -9.9334  -29.6173 C.2     1  UNL1        0.0456
      4 C           3.5283   -7.9891  -30.3231 C.2     1  UNL1       -0.1474
      5 O           3.0056   -8.8106  -29.3582 O.co2   1  UNL1       -0.7739
      6 C           5.2872   -8.0543  -32.1831 C.2     1  UNL1        0.0881
      7 C           3.6214  -11.1548  -28.8720 C.ar    1  UNL1        0.1394
      8 O           2.8749  -11.2518  -27.7256 O.2     1  UNL1       -0.4626
      9 C           4.2438  -12.3039  -29.2791 C.ar    1  UNL1       -0.0155
     10 O           5.9381   -8.8136  -32.8794 O.co2   1  UNL1       -0.5431
     11 C           3.0663  -12.5757  -27.4172 C.ar    1  UNL1        0.0926
     12 C           3.8693  -13.2573  -28.3004 C.ar    1  UNL1       -0.0233
     13 O           3.1239   -6.6945  -30.5081 O.co2   1  UNL1       -0.8105
     14 OXT         5.2364   -6.8466  -32.3461 O.co2   1  UNL1       -0.5431
     15 C           2.1074   -6.1430  -29.6544 C.3     1  UNL1       -0.1039
     16 C           1.8693   -4.6784  -30.0659 C.3     1  UNL1       -0.0753
     17 H           4.8453  -12.4433  -30.1061 H       1  UNL1        0.0655
     18 H           2.6419  -13.0229  -26.5897 H       1  UNL1        0.1029
     19 H           4.1416  -14.2518  -28.2593 H       1  UNL1        0.0649
     20 H           2.4301   -6.1841  -28.6351 H       1  UNL1        0.0136
     21 H           1.2015   -6.7040  -29.7515 H       1  UNL1        0.0136
     22 H           2.7806   -4.1269  -29.9650 H       1  UNL1        0.0221
     23 H           1.1202   -4.2479  -29.4347 H       1  UNL1        0.0221
     24 H           1.5415   -4.6426  -31.0838 H       1  UNL1        0.0221
@<TRIPOS>BOND
     1     1     2    1
     2     2     3    2
     3     1     4    2
     4     4     5    1
     5     1     6    1
     6     3     7    1
     7     7     8   ar
     8     7     9   ar
     9     6    10   ar
    10     8    11   ar
    11     9    12   ar
    12     4    13    1
    13     6    14   ar
    14    13    15    1
    15    15    16    1
    16     3     5    1
    17    11    12   ar
    18     9    17    1
    19    11    18    1
    20    12    19    1
    21    15    20    1
    22    15    21    1
    23    16    22    1
    24    16    23    1
    25    16    24    1
@<TRIPOS>SUBSTRUCTURE
     1 UNL1        1 TEMP              0 ****  ****    0 ROOT


