##########                                Name: HTS1710-01644744-01
##########                    Molecular_Weight:             343.359
##########                DOCK_Rotatable_Bonds:                   5
##########                       Formal_Charge:                  -2
##########                     HBond_Acceptors:                   7
##########                        HBond_Donors:                   0
##########                         Heavy_Atoms:                  25
##########                          Grid_Score:          -77.175766
##########                     Grid_vdw_energy:          -41.752930
##########                      Grid_es_energy:          -35.422840
##########           Internal_energy_repulsive:            7.495094

@<TRIPOS>MOLECULE
HTS1710-01644744-01
 44 46 1 0 0
SMALL
USER_CHARGES


@<TRIPOS>ATOM
      1 C          -1.3390   -4.0258  -38.2151 C.3     1  UNL1        0.0788
      2 O          -1.5214   -4.6076  -36.9127 O.3     1  UNL1       -0.4951
      3 C          -0.8590   -5.7484  -36.5005 C.ar    1  UNL1        0.1201
      4 C          -1.0127   -6.1625  -35.1679 C.ar    1  UNL1       -0.0194
      5 C          -0.3576   -7.3118  -34.7000 C.ar    1  UNL1       -0.0502
      6 C           0.4631   -8.0713  -35.5592 C.ar    1  UNL1       -0.0131
      7 C           0.6122   -7.6520  -36.8986 C.ar    1  UNL1       -0.0502
      8 C          -0.0407   -6.5013  -37.3677 C.ar    1  UNL1       -0.0194
      9 C           1.1503   -9.2742  -35.0615 C.2     1  UNL1        0.0100
     10 N           0.6834  -10.0995  -34.1381 N.2     1  UNL1       -0.2574
     11 C           1.6675  -11.0280  -34.0121 C.2     1  UNL1        0.1141
     12 C           1.6308  -12.2319  -33.1251 C.2     1  UNL1        0.2640
     13 O           0.8185  -13.1297  -33.2810 O.2     1  UNL1       -0.2683
     14 N           2.5474  -12.2487  -32.0626 N.am    1  UNL1       -0.2957
     15 C           2.5943  -13.4022  -31.1187 C.3     1  UNL1        0.0151
     16 C           3.9256  -13.5011  -30.3423 C.3     1  UNL1       -0.0365
     17 C           4.2543  -12.1776  -29.6252 C.3     1  UNL1       -0.0422
     18 C           4.2382  -11.0025  -30.6264 C.3     1  UNL1        0.0144
     19 C           2.8986  -10.9580  -31.4170 C.3     1  UNL1        0.0229
     20 C           4.5500   -9.6738  -29.9108 C.2     1  UNL1        0.0463
     21 O           3.9347   -9.4143  -28.8911 O.co2   1  UNL1       -0.5495
     22 O           5.3698   -8.9446  -30.4406 O.co2   1  UNL1       -0.5495
     23 C           2.6630  -10.7102  -34.8965 C.2     1  UNL1       -0.0888
     24 C           3.9555  -11.4505  -35.1296 C.3     1  UNL1       -0.0508
     25 O           2.3857   -9.5713  -35.5982 O.co2   1  UNL1       -0.7687
     26 H          -1.9524   -3.1538  -38.3054 H       1  UNL1        0.0660
     27 H          -1.6168   -4.7365  -38.9652 H       1  UNL1        0.0660
     28 H          -0.3120   -3.7544  -38.3438 H       1  UNL1        0.0660
     29 H          -1.6116   -5.6178  -34.5279 H       1  UNL1        0.0654
     30 H          -0.4777   -7.6040  -33.7176 H       1  UNL1        0.0625
     31 H           1.2081   -8.1978  -37.5405 H       1  UNL1        0.0625
     32 H           0.0785   -6.2057  -38.3493 H       1  UNL1        0.0654
     33 H           2.4592  -14.3045  -31.6777 H       1  UNL1        0.0465
     34 H           1.8170  -13.2546  -30.3983 H       1  UNL1        0.0465
     35 H           4.7135  -13.7306  -31.0289 H       1  UNL1        0.0281
     36 H           3.8305  -14.2705  -29.6049 H       1  UNL1        0.0281
     37 H           5.2253  -12.2491  -29.1815 H       1  UNL1        0.0272
     38 H           3.5165  -12.0000  -28.8708 H       1  UNL1        0.0272
     39 H           5.0124  -11.1575  -31.3486 H       1  UNL1        0.0376
     40 H           2.9793  -10.2098  -32.1777 H       1  UNL1        0.0471
     41 H           2.1246  -10.7384  -30.7117 H       1  UNL1        0.0471
     42 H           3.9938  -12.3103  -34.4938 H       1  UNL1        0.0267
     43 H           4.7806  -10.8061  -34.9082 H       1  UNL1        0.0267
     44 H           4.0095  -11.7605  -36.1523 H       1  UNL1        0.0267
@<TRIPOS>BOND
     1     1     2    1
     2     2     3    1
     3     3     4   ar
     4     4     5   ar
     5     5     6   ar
     6     6     7   ar
     7     7     8   ar
     8     3     8   ar
     9     6     9    1
    10     9    10    2
    11    10    11    1
    12    11    12    1
    13    12    13    2
    14    12    14   am
    15    14    15    1
    16    15    16    1
    17    16    17    1
    18    17    18    1
    19    18    19    1
    20    14    19    1
    21    18    20    1
    22    20    21   ar
    23    20    22   ar
    24    11    23    2
    25    23    24    1
    26    23    25    1
    27     9    25    1
    28     1    26    1
    29     1    27    1
    30     1    28    1
    31     4    29    1
    32     5    30    1
    33     7    31    1
    34     8    32    1
    35    15    33    1
    36    15    34    1
    37    16    35    1
    38    16    36    1
    39    17    37    1
    40    17    38    1
    41    18    39    1
    42    19    40    1
    43    19    41    1
    44    24    42    1
    45    24    43    1
    46    24    44    1
@<TRIPOS>SUBSTRUCTURE
     1 UNL1        1 TEMP              0 ****  ****    0 ROOT


