##########                                Name: HTS1710-01997841-01
##########                    Molecular_Weight:             394.384
##########                DOCK_Rotatable_Bonds:                   8
##########                       Formal_Charge:                  -2
##########                     HBond_Acceptors:                   8
##########                        HBond_Donors:                   0
##########                         Heavy_Atoms:                  29
##########                          Grid_Score:          -81.349380
##########                     Grid_vdw_energy:          -46.706978
##########                      Grid_es_energy:          -34.642406
##########           Internal_energy_repulsive:           15.223406

@<TRIPOS>MOLECULE
HTS1710-01997841-01
 47 49 1 0 0
SMALL
USER_CHARGES


@<TRIPOS>ATOM
      1 C           3.5782  -11.7401  -29.3036 C.2     1  UNL1        0.0233
      2 N           4.2169  -10.8215  -31.3701 N.am    1  UNL1       -0.2858
      3 C           3.6247  -10.3933  -29.2196 C.2     1  UNL1       -0.0354
      4 C           4.0050   -9.7732  -30.4961 C.2     1  UNL1        0.2329
      5 C           3.9076  -12.1355  -30.7486 C.3     1  UNL1        0.0968
      6 C           3.2578  -12.8006  -28.2922 C.2     1  UNL1        0.1909
      7 C           2.7582  -12.8653  -31.4436 C.ar    1  UNL1        0.0662
      8 O           4.1159   -8.5844  -30.7451 O.2     1  UNL1       -0.2712
      9 C           4.3468  -13.7063  -27.8014 C.ar    1  UNL1        0.0222
     10 C           4.7677   -9.6431  -35.8945 C.2     1  UNL1        0.0418
     11 N           1.9688  -12.1305  -32.2600 N.ar    1  UNL1       -0.2577
     12 O           2.1216  -12.9499  -27.8746 O.2     1  UNL1       -0.2869
     13 O           3.3470   -9.6209  -28.1455 O.co2   1  UNL1       -0.8701
     14 O           5.8495   -9.8604  -35.3766 O.co2   1  UNL1       -0.5498
     15 C           4.5080  -10.7047  -32.8103 C.3     1  UNL1        0.0163
     16 C           5.6425  -13.1977  -27.6031 C.ar    1  UNL1       -0.0475
     17 C           4.0737  -15.0477  -27.4776 C.ar    1  UNL1       -0.0475
     18 C           6.3934  -15.3766  -26.8069 C.ar    1  UNL1        0.1201
     19 O           4.5930   -9.3788  -37.0713 O.co2   1  UNL1       -0.5498
     20 C           6.6652  -14.0261  -27.1136 C.ar    1  UNL1       -0.0193
     21 C           5.0949  -15.8794  -26.9901 C.ar    1  UNL1       -0.0193
     22 O           7.3632  -16.2325  -26.3201 O.3     1  UNL1       -0.4951
     23 C           3.7877   -9.5084  -33.4829 C.3     1  UNL1       -0.0320
     24 C           3.5150   -9.6830  -35.0025 C.3     1  UNL1       -0.0118
     25 C           0.9521  -12.7479  -32.8940 C.ar    1  UNL1        0.0279
     26 C           2.5536  -14.2434  -31.2355 C.ar    1  UNL1       -0.0382
     27 C           7.0579  -17.5244  -25.7660 C.3     1  UNL1        0.0788
     28 C           0.6774  -14.1181  -32.7452 C.ar    1  UNL1       -0.0436
     29 C           1.4956  -14.8815  -31.8982 C.ar    1  UNL1       -0.0586
     30 H           4.7105  -12.8390  -30.8218 H       1  UNL1        0.0617
     31 H           4.1955  -11.6061  -33.2948 H       1  UNL1        0.0465
     32 H           5.5605  -10.5394  -32.9100 H       1  UNL1        0.0465
     33 H           5.8433  -12.2087  -27.8189 H       1  UNL1        0.0626
     34 H           3.1196  -15.4220  -27.5987 H       1  UNL1        0.0626
     35 H           7.6156  -13.6473  -26.9780 H       1  UNL1        0.0654
     36 H           4.8901  -16.8655  -26.7651 H       1  UNL1        0.0654
     37 H           4.3952   -8.6374  -33.3517 H       1  UNL1        0.0284
     38 H           2.8300   -9.4299  -33.0120 H       1  UNL1        0.0284
     39 H           3.0339  -10.6277  -35.1475 H       1  UNL1        0.0325
     40 H           2.9108   -8.8503  -35.2964 H       1  UNL1        0.0325
     41 H           0.3480  -12.1892  -33.5168 H       1  UNL1        0.0829
     42 H           3.1732  -14.7755  -30.6047 H       1  UNL1        0.0636
     43 H           7.9636  -18.0029  -25.4567 H       1  UNL1        0.0660
     44 H           6.5724  -18.1246  -26.5069 H       1  UNL1        0.0660
     45 H           6.4106  -17.4067  -24.9221 H       1  UNL1        0.0660
     46 H          -0.1105  -14.5544  -33.2489 H       1  UNL1        0.0633
     47 H           1.3223  -15.8903  -31.7661 H       1  UNL1        0.0619
@<TRIPOS>BOND
     1     1     3    2
     2     1     5    1
     3     1     6    1
     4     2     4   am
     5     2     5    1
     6     2    15    1
     7     3     4    1
     8     3    13    1
     9     4     8    2
    10     5     7    1
    11     6     9    1
    12     6    12    2
    13     7    11   ar
    14     7    26   ar
    15     9    16   ar
    16     9    17   ar
    17    10    14   ar
    18    10    19   ar
    19    10    24    1
    20    11    25   ar
    21    15    23    1
    22    16    20   ar
    23    17    21   ar
    24    18    20   ar
    25    18    21   ar
    26    18    22    1
    27    22    27    1
    28    23    24    1
    29    25    28   ar
    30    26    29   ar
    31    28    29   ar
    32     5    30    1
    33    15    31    1
    34    15    32    1
    35    16    33    1
    36    17    34    1
    37    20    35    1
    38    21    36    1
    39    23    37    1
    40    23    38    1
    41    24    39    1
    42    24    40    1
    43    25    41    1
    44    26    42    1
    45    27    43    1
    46    27    44    1
    47    27    45    1
    48    28    46    1
    49    29    47    1
@<TRIPOS>SUBSTRUCTURE
     1 UNL1        1 TEMP              0 ****  ****    0 ROOT


