##########                                Name: HTS1710-00617671-01
##########                    Molecular_Weight:             365.387
##########                DOCK_Rotatable_Bonds:                   7
##########                       Formal_Charge:                  -2
##########                     HBond_Acceptors:                   9
##########                        HBond_Donors:                   0
##########                         Heavy_Atoms:                  24
##########                          Grid_Score:          -77.181793
##########                     Grid_vdw_energy:          -35.385441
##########                      Grid_es_energy:          -41.796349
##########           Internal_energy_repulsive:            9.585471

@<TRIPOS>MOLECULE
HTS1710-00617671-01
 35 36 1 0 0
SMALL
USER_CHARGES


@<TRIPOS>ATOM
      1 N           3.1973  -10.5508  -32.6961 N.am    1  UNL1       -0.2463
      2 C           3.9582  -10.2092  -31.4628 C.3     1  UNL1        0.0765
      3 C           2.4025   -9.6113  -33.3554 C.2     1  UNL1        0.2589
      4 C           3.2757  -11.7821  -33.3404 C.2     1  UNL1        0.1211
      5 C           3.0289  -10.0517  -30.2214 C.3     1  UNL1        0.0111
      6 C           4.8866   -8.9988  -31.7196 C.2     1  UNL1        0.0629
      7 C           1.7923  -10.2232  -34.5623 C.2     1  UNL1        0.0772
      8 O           2.2866   -8.4528  -32.9988 O.2     1  UNL1       -0.2690
      9 S           2.3338  -11.8625  -34.8545 S.3     1  UNL1       -0.0610
     10 S           4.2246  -13.0815  -32.8678 S.2     1  UNL1       -0.0272
     11 C           3.8179   -9.8426  -28.9213 C.2     1  UNL1        0.0439
     12 O           5.7439   -9.1360  -32.5761 O.co2   1  UNL1       -0.5479
     13 O           4.7177   -7.9870  -31.0589 O.co2   1  UNL1       -0.5479
     14 C           0.9347   -9.6179  -35.4572 C.2     1  UNL1       -0.0357
     15 O           4.7814  -10.5656  -28.7284 O.co2   1  UNL1       -0.5497
     16 O           3.4105   -8.9892  -28.1530 O.co2   1  UNL1       -0.5497
     17 C           0.2473   -8.3002  -35.6068 C.ar    1  UNL1       -0.0236
     18 C          -0.5385   -7.7131  -34.5931 C.ar    1  UNL1       -0.0511
     19 C           0.3327   -7.6435  -36.8508 C.ar    1  UNL1       -0.0511
     20 C          -1.1695   -6.4759  -34.8018 C.ar    1  UNL1       -0.0194
     21 C          -0.2947   -6.4058  -37.0632 C.ar    1  UNL1       -0.0194
     22 C          -1.0440   -5.8094  -36.0295 C.ar    1  UNL1        0.1201
     23 O          -1.6829   -4.5936  -36.1861 O.3     1  UNL1       -0.4951
     24 C          -1.5175   -3.7690  -37.3528 C.3     1  UNL1        0.0788
     25 H           4.5958  -11.0317  -31.2140 H       1  UNL1        0.0570
     26 H           2.4338  -10.9355  -30.1236 H       1  UNL1        0.0347
     27 H           2.4216   -9.1847  -30.3770 H       1  UNL1        0.0347
     28 H           0.7043  -10.2501  -36.2396 H       1  UNL1        0.0636
     29 H          -0.6509   -8.1976  -33.6889 H       1  UNL1        0.0625
     30 H           0.8657   -8.0801  -37.6191 H       1  UNL1        0.0625
     31 H          -1.7302   -6.0536  -34.0453 H       1  UNL1        0.0654
     32 H          -0.2072   -5.9328  -37.9762 H       1  UNL1        0.0654
     33 H          -2.1067   -2.8820  -37.2491 H       1  UNL1        0.0660
     34 H          -1.8360   -4.3094  -38.2196 H       1  UNL1        0.0660
     35 H          -0.4866   -3.5021  -37.4577 H       1  UNL1        0.0660
@<TRIPOS>BOND
     1     1     2    1
     2     1     3   am
     3     1     4    1
     4     2     5    1
     5     2     6    1
     6     3     7    1
     7     3     8    2
     8     4     9    1
     9     4    10    2
    10     5    11    1
    11     6    12   ar
    12     6    13   ar
    13     7    14    2
    14    11    15   ar
    15    11    16   ar
    16    14    17    1
    17    17    18   ar
    18    17    19   ar
    19    18    20   ar
    20    19    21   ar
    21    20    22   ar
    22    22    23    1
    23    23    24    1
    24     7     9    1
    25    21    22   ar
    26     2    25    1
    27     5    26    1
    28     5    27    1
    29    14    28    1
    30    18    29    1
    31    19    30    1
    32    20    31    1
    33    21    32    1
    34    24    33    1
    35    24    34    1
    36    24    35    1
@<TRIPOS>SUBSTRUCTURE
     1 UNL1        1 TEMP              0 ****  ****    0 ROOT


