##########                                Name: HTS1710-00489587-01
##########                    Molecular_Weight:             370.192
##########                DOCK_Rotatable_Bonds:                   7
##########                       Formal_Charge:                  -2
##########                     HBond_Acceptors:                   8
##########                        HBond_Donors:                   0
##########                         Heavy_Atoms:                  24
##########                          Grid_Score:          -77.960342
##########                     Grid_vdw_energy:          -42.891830
##########                      Grid_es_energy:          -35.068508
##########           Internal_energy_repulsive:            5.971386

@<TRIPOS>MOLECULE
HTS1710-00489587-01
 36 37 1 0 0
SMALL
USER_CHARGES


@<TRIPOS>ATOM
      1 C           2.8781  -11.5782  -29.3423 C.ar    1  UNL1        0.0538
      2 C           2.4673  -12.3501  -30.4544 C.ar    1  UNL1        0.1310
      3 C           2.8834  -12.1553  -28.0591 C.ar    1  UNL1       -0.0479
      4 P           3.4296   -9.8424  -29.5308 P.3     1  UNL1        0.1418
      5 O           2.4295  -11.7664  -31.7090 O.3     1  UNL1       -0.4879
      6 C           2.0872  -13.6986  -30.2603 C.ar    1  UNL1       -0.0192
      7 C           2.4948  -13.4905  -27.8749 C.ar    1  UNL1       -0.0609
      8 O           2.4829   -8.9954  -30.3074 O.co2   1  UNL1       -0.3541
      9 O           4.7289   -9.7462  -30.2478 O.co2   1  UNL1       -0.3541
     10 O           3.6772   -9.1552  -28.2336 O.2     1  UNL1       -0.4556
     11 C           1.4624  -12.1248  -32.7138 C.3     1  UNL1        0.1235
     12 C           2.1016  -14.2611  -28.9760 C.ar    1  UNL1       -0.0583
     13 C           1.8900  -11.5005  -34.0647 C.3     1  UNL1        0.1235
     14 O           1.9540  -10.0628  -33.9347 O.3     1  UNL1       -0.4879
     15 C           1.1518   -9.1759  -34.6387 C.ar    1  UNL1        0.1310
     16 C           1.4855   -8.8532  -35.9753 C.ar    1  UNL1        0.0538
     17 C           0.0059   -8.5897  -34.0521 C.ar    1  UNL1       -0.0192
     18 C           0.6889   -7.9412  -36.6932 C.ar    1  UNL1       -0.0479
     19 P           2.9386   -9.5965  -36.8012 P.3     1  UNL1        0.1418
     20 C          -0.7804   -7.6842  -34.7793 C.ar    1  UNL1       -0.0583
     21 C          -0.4369   -7.3567  -36.0979 C.ar    1  UNL1       -0.0609
     22 O           3.2677   -8.9213  -38.0848 O.co2   1  UNL1       -0.3541
     23 O           2.7827  -11.0444  -37.1122 O.co2   1  UNL1       -0.3541
     24 O           4.1838   -9.4625  -35.9970 O.2     1  UNL1       -0.4556
     25 H           3.1759  -11.5912  -27.2460 H       1  UNL1        0.0626
     26 H           1.7977  -14.2715  -31.0684 H       1  UNL1        0.0654
     27 H           2.4988  -13.9042  -26.9295 H       1  UNL1        0.0618
     28 H           0.4990  -11.7522  -32.4347 H       1  UNL1        0.0731
     29 H           1.4118  -13.1896  -32.8058 H       1  UNL1        0.0731
     30 H           1.8217  -15.2454  -28.8419 H       1  UNL1        0.0619
     31 H           1.1756  -11.7586  -34.8184 H       1  UNL1        0.0731
     32 H           2.8531  -11.8759  -34.3410 H       1  UNL1        0.0731
     33 H          -0.2533   -8.8300  -33.0825 H       1  UNL1        0.0654
     34 H           0.9362   -7.7012  -37.6660 H       1  UNL1        0.0626
     35 H          -1.6130   -7.2584  -34.3428 H       1  UNL1        0.0619
     36 H          -1.0125   -6.6856  -36.6300 H       1  UNL1        0.0618
@<TRIPOS>BOND
     1     1     2   ar
     2     1     3   ar
     3     1     4    1
     4     2     5    1
     5     2     6   ar
     6     3     7   ar
     7     4     8    1
     8     4     9    1
     9     4    10    2
    10     5    11    1
    11     6    12   ar
    12    11    13    1
    13    13    14    1
    14    14    15    1
    15    15    16   ar
    16    15    17   ar
    17    16    18   ar
    18    16    19    1
    19    17    20   ar
    20    18    21   ar
    21    19    22    1
    22    19    23    1
    23    19    24    2
    24     7    12   ar
    25    20    21   ar
    26     3    25    1
    27     6    26    1
    28     7    27    1
    29    11    28    1
    30    11    29    1
    31    12    30    1
    32    13    31    1
    33    13    32    1
    34    17    33    1
    35    18    34    1
    36    20    35    1
    37    21    36    1
@<TRIPOS>SUBSTRUCTURE
     1 UNL1        1 TEMP              0 ****  ****    0 ROOT


