HTS1710-02226355-01
 OpenBabel03232612343D

 46 47  0  0  1  0  0  0  0  0999 V2000
    3.4112  -11.5650  -28.6369 S   0  0  0  0  0  0  0  0  0  0  0  0
    2.7178  -12.9281  -29.6104 C   0  0  0  0  0  0  0  0  0  0  0  0
    3.3793  -10.2496  -29.7240 N   0  0  0  0  0  0  0  0  0  0  0  0
    0.9700   -9.1434  -35.8234 C   0  0  0  0  0  0  0  0  0  0  0  0
    2.1032  -12.6366  -30.8443 C   0  0  0  0  0  0  0  0  0  0  0  0
    3.4643   -9.4416  -36.3961 C   0  0  0  0  0  0  0  0  0  0  0  0
    2.4256  -11.2609  -27.5945 O   0  0  0  0  0  0  0  0  0  0  0  0
    4.8142  -11.8406  -28.3111 O   0  0  0  0  0  0  0  0  0  0  0  0
    2.2235  -10.0529  -35.7208 C   0  0  2  0  0  0  0  0  0  0  0  0
    2.7585  -14.2681  -29.1606 C   0  0  0  0  0  0  0  0  0  0  0  0
    0.8411   -8.1513  -34.6581 C   0  0  0  0  0  0  0  0  0  0  0  0
    1.6159  -12.8054  -33.9497 C   0  0  0  0  0  0  0  0  0  0  0  0
    1.8666  -11.7023  -36.4788 S   0  0  0  0  0  0  0  0  0  0  0  0
    0.9357  -13.2808  -32.8328 N   0  0  0  0  0  0  0  0  0  0  0  0
    1.5156  -13.6502  -31.6213 C   0  0  0  0  0  0  0  0  0  0  0  0
    4.4434   -9.2334  -35.6994 O   0  5  0  0  0  0  0  0  0  0  0  0
    1.4923   -8.3785  -33.6522 O   0  5  0  0  0  0  0  0  0  0  0  0
    2.8324  -12.7142  -33.9573 O   0  0  0  0  0  0  0  0  0  0  0  0
    3.9488   -7.7762  -30.9765 O   0  0  0  0  0  0  0  0  0  0  0  0
    2.2005  -15.2868  -29.9484 C   0  0  0  0  0  0  0  0  0  0  0  0
    0.7883  -12.4551  -35.1846 C   0  0  0  0  0  0  0  0  0  0  0  0
    4.5587  -10.0903  -30.6086 C   0  0  0  0  0  0  0  0  0  0  0  0
    2.9107   -8.9694  -29.1464 C   0  0  0  0  0  0  0  0  0  0  0  0
    3.3763   -9.1820  -37.5832 O   0  0  0  0  0  0  0  0  0  0  0  0
    1.5869  -14.9851  -31.1728 C   0  0  0  0  0  0  0  0  0  0  0  0
    3.4846  -14.7163  -27.6237 Cl  0  0  0  0  0  0  0  0  0  0  0  0
    0.0862   -7.2059  -34.8112 O   0  0  0  0  0  0  0  0  0  0  0  0
    4.3232   -8.9843  -31.6648 C   0  0  0  0  0  0  0  0  0  0  0  0
    2.7154   -7.8960  -30.2427 C   0  0  0  0  0  0  0  0  0  0  0  0
    0.0995   -9.7656  -35.8374 H   0  0  0  0  0  0  0  0  0  0  0  0
    1.0691   -8.5677  -36.7198 H   0  0  0  0  0  0  0  0  0  0  0  0
    2.0840  -11.6621  -31.1834 H   0  0  0  0  0  0  0  0  0  0  0  0
    2.4451  -10.1572  -34.6792 H   0  0  0  0  0  0  0  0  0  0  0  0
   -0.0426  -13.3634  -32.9052 H   0  0  0  0  0  0  0  0  0  0  0  0
    2.2421  -16.2657  -29.6241 H   0  0  0  0  0  0  0  0  0  0  0  0
    0.0236  -11.7580  -34.9118 H   0  0  0  0  0  0  0  0  0  0  0  0
    0.3455  -13.3480  -35.5739 H   0  0  0  0  0  0  0  0  0  0  0  0
    4.7462  -11.0168  -31.1098 H   0  0  0  0  0  0  0  0  0  0  0  0
    5.3974   -9.8095  -30.0065 H   0  0  0  0  0  0  0  0  0  0  0  0
    3.6352   -8.6194  -28.4411 H   0  0  0  0  0  0  0  0  0  0  0  0
    1.9685   -9.1394  -28.6687 H   0  0  0  0  0  0  0  0  0  0  0  0
    1.1861  -15.7427  -31.7475 H   0  0  0  0  0  0  0  0  0  0  0  0
    5.2210   -8.8196  -32.2230 H   0  0  0  0  0  0  0  0  0  0  0  0
    3.5484   -9.2790  -32.3415 H   0  0  0  0  0  0  0  0  0  0  0  0
    1.9275   -8.1917  -30.9036 H   0  0  0  0  0  0  0  0  0  0  0  0
    2.4547   -6.9573  -29.8001 H   0  0  0  0  0  0  0  0  0  0  0  0
  1  2  1  0  0  0  0
  1  3  1  0  0  0  0
  1  7  2  0  0  0  0
  1  8  2  0  0  0  0
  2  5  2  0  0  0  0
  2 10  1  0  0  0  0
  3 22  1  0  0  0  0
  3 23  1  0  0  0  0
  4  9  1  0  0  0  0
  4 11  1  0  0  0  0
  4 30  1  0  0  0  0
  4 31  1  0  0  0  0
  5 15  1  0  0  0  0
  5 32  1  0  0  0  0
  6  9  1  0  0  0  0
  6 16  1  0  0  0  0
  6 24  2  0  0  0  0
  9 13  1  0  0  0  0
  9 33  1  1  0  0  0
 10 20  2  0  0  0  0
 10 26  1  0  0  0  0
 11 17  1  0  0  0  0
 11 27  2  0  0  0  0
 12 14  1  0  0  0  0
 12 18  2  0  0  0  0
 12 21  1  0  0  0  0
 13 21  1  0  0  0  0
 14 15  1  0  0  0  0
 14 34  1  0  0  0  0
 15 25  2  0  0  0  0
 19 28  1  0  0  0  0
 19 29  1  0  0  0  0
 20 25  1  0  0  0  0
 20 35  1  0  0  0  0
 21 36  1  0  0  0  0
 21 37  1  0  0  0  0
 22 28  1  0  0  0  0
 22 38  1  0  0  0  0
 22 39  1  0  0  0  0
 23 29  1  0  0  0  0
 23 40  1  0  0  0  0
 23 41  1  0  0  0  0
 25 42  1  0  0  0  0
 28 43  1  0  0  0  0
 28 44  1  0  0  0  0
 29 45  1  0  0  0  0
 29 46  1  0  0  0  0
M  CHG  2  16  -1  17  -1
M  END
$$$$
