HTS1710-01276619-01
 OpenBabel03232612353D

 50 51  0  0  1  0  0  0  0  0999 V2000
    3.7998  -10.9041  -31.8148 C   0  0  0  0  0  0  0  0  0  0  0  0
    3.0868  -12.0878  -32.3768 C   0  0  0  0  0  0  0  0  0  0  0  0
    2.8870  -13.1374  -31.4744 N   0  0  0  0  0  0  0  0  0  0  0  0
    4.2048  -10.8174  -30.4877 C   0  0  0  0  0  0  0  0  0  0  0  0
    4.0684   -9.7335  -32.7705 C   0  0  2  0  0  0  0  0  0  0  0  0
    3.9421  -11.9393  -29.6326 C   0  0  0  0  0  0  0  0  0  0  0  0
    3.3100  -13.0573  -30.1404 C   0  0  0  0  0  0  0  0  0  0  0  0
    2.7803   -9.2033  -33.4267 C   0  0  0  0  0  0  0  0  0  0  0  0
    2.1937  -14.3603  -31.9729 C   0  0  0  0  0  0  0  0  0  0  0  0
    1.8456   -8.3924  -32.7467 C   0  0  0  0  0  0  0  0  0  0  0  0
    2.7032  -12.1407  -33.5342 O   0  0  0  0  0  0  0  0  0  0  0  0
    5.2383  -10.0752  -33.7418 C   0  0  0  0  0  0  0  0  0  0  0  0
    0.6756   -7.9406  -33.3959 C   0  0  0  0  0  0  0  0  0  0  0  0
    0.6955  -14.0949  -32.1770 C   0  0  0  0  0  0  0  0  0  0  0  0
    5.7066   -8.8718  -34.5709 C   0  0  0  0  0  0  0  0  0  0  0  0
    0.4410   -8.2906  -34.7406 C   0  0  0  0  0  0  0  0  0  0  0  0
    2.5327   -9.5424  -34.7687 C   0  0  0  0  0  0  0  0  0  0  0  0
    0.0156  -13.9417  -31.1779 O   0  5  0  0  0  0  0  0  0  0  0  0
    5.5548   -8.7822  -35.7786 O   0  0  0  0  0  0  0  0  0  0  0  0
    4.8209   -9.7431  -29.9520 O   0  5  0  0  0  0  0  0  0  0  0  0
    1.3770   -9.0927  -35.4248 C   0  0  0  0  0  0  0  0  0  0  0  0
    0.2852  -14.0503  -33.3238 O   0  0  0  0  0  0  0  0  0  0  0  0
   -0.2585   -7.1535  -32.7458 O   0  0  0  0  0  0  0  0  0  0  0  0
    6.3226   -7.9303  -33.7931 O   0  0  0  0  0  0  0  0  0  0  0  0
    3.0745  -14.2064  -29.1755 C   0  0  0  0  0  0  0  0  0  0  0  0
   -0.7109   -7.8300  -35.3534 O   0  0  0  0  0  0  0  0  0  0  0  0
    0.0715   -6.2838  -31.6476 C   0  0  0  0  0  0  0  0  0  0  0  0
    6.8274   -6.7324  -34.4085 C   0  0  0  0  0  0  0  0  0  0  0  0
   -0.7669   -6.5978  -36.0935 C   0  0  0  0  0  0  0  0  0  0  0  0
    4.4129   -8.8917  -32.2071 H   0  0  0  0  0  0  0  0  0  0  0  0
    4.2248  -11.9108  -28.6405 H   0  0  0  0  0  0  0  0  0  0  0  0
    2.3161  -15.1480  -31.2592 H   0  0  0  0  0  0  0  0  0  0  0  0
    2.6232  -14.6379  -32.9128 H   0  0  0  0  0  0  0  0  0  0  0  0
    2.0192   -8.1270  -31.7646 H   0  0  0  0  0  0  0  0  0  0  0  0
    4.9112  -10.8429  -34.4116 H   0  0  0  0  0  0  0  0  0  0  0  0
    6.0671  -10.3905  -33.1429 H   0  0  0  0  0  0  0  0  0  0  0  0
    3.2107  -10.1303  -35.2783 H   0  0  0  0  0  0  0  0  0  0  0  0
    1.2118   -9.3495  -36.4106 H   0  0  0  0  0  0  0  0  0  0  0  0
    3.4680  -13.9510  -28.2138 H   0  0  0  0  0  0  0  0  0  0  0  0
    3.5653  -15.0845  -29.5400 H   0  0  0  0  0  0  0  0  0  0  0  0
    2.0242  -14.3931  -29.0929 H   0  0  0  0  0  0  0  0  0  0  0  0
   -0.8118   -5.7813  -31.3127 H   0  0  0  0  0  0  0  0  0  0  0  0
    0.7926   -5.5615  -31.9688 H   0  0  0  0  0  0  0  0  0  0  0  0
    0.4790   -6.8619  -30.8448 H   0  0  0  0  0  0  0  0  0  0  0  0
    7.2752   -6.1096  -33.6624 H   0  0  0  0  0  0  0  0  0  0  0  0
    6.0225   -6.2055  -34.8768 H   0  0  0  0  0  0  0  0  0  0  0  0
    7.5603   -6.9908  -35.1440 H   0  0  0  0  0  0  0  0  0  0  0  0
   -1.7572   -6.4541  -36.4723 H   0  0  0  0  0  0  0  0  0  0  0  0
   -0.0757   -6.6398  -36.9091 H   0  0  0  0  0  0  0  0  0  0  0  0
   -0.5096   -5.7830  -35.4494 H   0  0  0  0  0  0  0  0  0  0  0  0
  1  2  1  0  0  0  0
  1  4  2  0  0  0  0
  1  5  1  0  0  0  0
  2  3  1  0  0  0  0
  2 11  2  0  0  0  0
  3  9  1  0  0  0  0
  3  7  1  0  0  0  0
  4  6  1  0  0  0  0
  4 20  1  0  0  0  0
  5  8  1  0  0  0  0
  5 12  1  0  0  0  0
  5 30  1  1  0  0  0
  6  7  2  0  0  0  0
  6 31  1  0  0  0  0
  7 25  1  0  0  0  0
  8 10  2  0  0  0  0
  8 17  1  0  0  0  0
  9 14  1  0  0  0  0
  9 32  1  0  0  0  0
  9 33  1  0  0  0  0
 10 13  1  0  0  0  0
 10 34  1  0  0  0  0
 12 15  1  0  0  0  0
 12 35  1  0  0  0  0
 12 36  1  0  0  0  0
 13 23  1  0  0  0  0
 13 16  2  0  0  0  0
 14 18  1  0  0  0  0
 14 22  2  0  0  0  0
 15 19  2  0  0  0  0
 15 24  1  0  0  0  0
 16 21  1  0  0  0  0
 16 26  1  0  0  0  0
 17 21  2  0  0  0  0
 17 37  1  0  0  0  0
 21 38  1  0  0  0  0
 23 27  1  0  0  0  0
 24 28  1  0  0  0  0
 25 39  1  0  0  0  0
 25 40  1  0  0  0  0
 25 41  1  0  0  0  0
 26 29  1  0  0  0  0
 27 42  1  0  0  0  0
 27 43  1  0  0  0  0
 27 44  1  0  0  0  0
 28 45  1  0  0  0  0
 28 46  1  0  0  0  0
 28 47  1  0  0  0  0
 29 48  1  0  0  0  0
 29 49  1  0  0  0  0
 29 50  1  0  0  0  0
M  CHG  2  18  -1  20  -1
M  END
$$$$
