##########                                Name: HTS1710-00618280-01
##########                    Molecular_Weight:             390.322
##########                DOCK_Rotatable_Bonds:                   9
##########                       Formal_Charge:                  -2
##########                     HBond_Acceptors:                   9
##########                        HBond_Donors:                   4
##########                         Heavy_Atoms:                  28
##########                          Grid_Score:          -75.029671
##########                     Grid_vdw_energy:          -39.546036
##########                      Grid_es_energy:          -35.483635
##########           Internal_energy_repulsive:           10.564813

@<TRIPOS>MOLECULE
HTS1710-00618280-01
 43 45 1 0 0
SMALL
USER_CHARGES


@<TRIPOS>ATOM
      1 C           2.7873   -8.3902  -31.4460 C.3     1  UNL1        0.0152
      2 C           3.9583   -7.4647  -31.7457 C.2     1  UNL1       -0.0603
      3 C           1.8040   -8.4421  -32.6088 C.2     1  UNL1       -0.0603
      4 C           3.2345   -9.7697  -30.9388 C.ar    1  UNL1       -0.0374
      5 O           3.7902   -6.1652  -31.3045 O.co2   1  UNL1       -0.7814
      6 C           5.0987   -7.9013  -32.4112 C.2     1  UNL1        0.1535
      7 O           2.3189   -8.8802  -33.8145 O.co2   1  UNL1       -0.7814
      8 C           0.4735   -8.0901  -32.4343 C.2     1  UNL1        0.1535
      9 C           3.1516  -10.9316  -31.7405 C.ar    1  UNL1       -0.0550
     10 C           3.7508   -9.8772  -29.6319 C.ar    1  UNL1       -0.0550
     11 C           4.8246   -5.2870  -31.5475 C.2     1  UNL1       -0.0884
     12 C           6.2219   -6.9919  -32.6906 C.2     1  UNL1        0.2184
     13 O           5.2916   -9.1593  -32.8694 O.2     1  UNL1       -0.5038
     14 C           1.4408   -8.9591  -34.8732 C.2     1  UNL1       -0.0884
     15 C          -0.4914   -8.1495  -33.5425 C.2     1  UNL1        0.2184
     16 O          -0.0643   -7.6753  -31.2648 O.2     1  UNL1       -0.5038
     17 C           3.5814  -12.1709  -31.2405 C.ar    1  UNL1       -0.0262
     18 C           4.1813  -11.1169  -29.1326 C.ar    1  UNL1       -0.0262
     19 C           5.9877   -5.6348  -32.2008 C.2     1  UNL1       -0.0198
     20 C           4.6262   -3.8718  -31.0668 C.3     1  UNL1        0.0566
     21 O           7.2452   -7.3182  -33.2683 O.2     1  UNL1       -0.2841
     22 C           0.1075   -8.6196  -34.7899 C.2     1  UNL1       -0.0198
     23 C           2.0104   -9.4494  -36.1781 C.3     1  UNL1        0.0566
     24 O          -1.6694   -7.8458  -33.4449 O.2     1  UNL1       -0.2841
     25 C           4.0958  -12.2612  -29.9387 C.ar    1  UNL1        0.1234
     26 O           3.8097   -3.8295  -29.9002 O.3     1  UNL1       -0.3915
     27 O           3.4084   -9.6926  -36.0653 O.3     1  UNL1       -0.3915
     28 F           4.5094  -13.4533  -29.4606 F       1  UNL1       -0.2055
     29 H           2.2465   -7.9678  -30.6250 H       1  UNL1        0.0425
     30 H           2.7729  -10.8681  -32.6984 H       1  UNL1        0.0621
     31 H           3.8131   -9.0368  -29.0362 H       1  UNL1        0.0621
     32 H           4.6365   -9.8145  -32.7294 H       1  UNL1        0.2923
     33 H          -0.8569   -7.1754  -31.2647 H       1  UNL1        0.2923
     34 H           3.5190  -13.0152  -31.8305 H       1  UNL1        0.0646
     35 H           4.5597  -11.1857  -28.1749 H       1  UNL1        0.0646
     36 H           6.7137   -4.9164  -32.3483 H       1  UNL1        0.0649
     37 H           4.1558   -3.3035  -31.8419 H       1  UNL1        0.0596
     38 H           5.5838   -3.4612  -30.8231 H       1  UNL1        0.0596
     39 H          -0.4842   -8.6995  -35.6317 H       1  UNL1        0.0649
     40 H           1.8439   -8.7093  -36.9326 H       1  UNL1        0.0596
     41 H           1.5248  -10.3665  -36.4389 H       1  UNL1        0.0596
     42 H           3.6692   -2.9066  -29.6371 H       1  UNL1        0.2098
     43 H           3.7442  -10.0441  -36.9046 H       1  UNL1        0.2098
@<TRIPOS>BOND
     1     1     2    1
     2     1     3    1
     3     1     4    1
     4     2     5    1
     5     2     6    2
     6     3     7    1
     7     3     8    2
     8     4     9   ar
     9     4    10   ar
    10     5    11    1
    11     6    12    1
    12     6    13    1
    13     7    14    1
    14     8    15    1
    15     8    16    1
    16     9    17   ar
    17    10    18   ar
    18    11    19    2
    19    11    20    1
    20    12    21    2
    21    14    22    2
    22    14    23    1
    23    15    24    2
    24    17    25   ar
    25    20    26    1
    26    23    27    1
    27    25    28    1
    28    12    19    1
    29    15    22    1
    30    18    25   ar
    31     1    29    1
    32     9    30    1
    33    10    31    1
    34    13    32    1
    35    16    33    1
    36    17    34    1
    37    18    35    1
    38    19    36    1
    39    20    37    1
    40    20    38    1
    41    22    39    1
    42    23    40    1
    43    23    41    1
    44    26    42    1
    45    27    43    1
@<TRIPOS>SUBSTRUCTURE
     1 UNL1        1 TEMP              0 ****  ****    0 ROOT


