##########                                Name: HTS1710-00499127-01
##########                    Molecular_Weight:             395.414
##########                DOCK_Rotatable_Bonds:                   9
##########                       Formal_Charge:                  -2
##########                     HBond_Acceptors:                  10
##########                        HBond_Donors:                   1
##########                         Heavy_Atoms:                  26
##########                          Grid_Score:          -78.091064
##########                     Grid_vdw_energy:          -40.460617
##########                      Grid_es_energy:          -37.630444
##########           Internal_energy_repulsive:           11.576963

@<TRIPOS>MOLECULE
HTS1710-00499127-01
 39 40 1 0 0
SMALL
USER_CHARGES


@<TRIPOS>ATOM
      1 N           3.3879   -9.3288  -33.1522 N.am    1  UNL1       -0.2463
      2 C           2.1999   -8.7995  -33.6544 C.2     1  UNL1        0.2589
      3 C           3.8206   -9.0939  -31.7466 C.3     1  UNL1        0.0765
      4 C           4.1311  -10.0393  -34.0882 C.2     1  UNL1        0.1211
      5 C           2.0409   -9.1595  -35.0826 C.2     1  UNL1        0.0772
      6 O           1.4099   -8.1359  -33.0013 O.2     1  UNL1       -0.2690
      7 C           2.7790   -9.6259  -30.7183 C.3     1  UNL1        0.0111
      8 C           4.2221   -7.6145  -31.5431 C.2     1  UNL1        0.0629
      9 S           3.3662  -10.1225  -35.7007 S.3     1  UNL1       -0.0610
     10 S           5.6465  -10.7123  -33.8372 S.2     1  UNL1       -0.0272
     11 C           0.9439   -8.7443  -35.8106 C.2     1  UNL1       -0.0356
     12 C           3.2882   -9.5225  -29.2732 C.2     1  UNL1        0.0439
     13 O           5.4114   -7.3551  -31.6097 O.co2   1  UNL1       -0.5479
     14 O           3.3413   -6.7989  -31.3241 O.co2   1  UNL1       -0.5479
     15 C          -0.2901   -7.9415  -35.5399 C.ar    1  UNL1       -0.0201
     16 O           3.8901  -10.4830  -28.8258 O.co2   1  UNL1       -0.5497
     17 O           3.0752   -8.4810  -28.6771 O.co2   1  UNL1       -0.5497
     18 C          -0.5088   -6.7813  -36.3128 C.ar    1  UNL1       -0.0091
     19 C          -1.2393   -8.2834  -34.5548 C.ar    1  UNL1       -0.0509
     20 C          -1.6534   -5.9786  -36.1142 C.ar    1  UNL1        0.1622
     21 C          -2.3771   -7.4877  -34.3510 C.ar    1  UNL1       -0.0160
     22 C          -2.5869   -6.3393  -35.1269 C.ar    1  UNL1        0.1585
     23 O          -1.8914   -4.8401  -36.8645 O.3     1  UNL1       -0.4886
     24 O          -3.6998   -5.5747  -34.9176 O.3     1  UNL1       -0.5033
     25 C          -1.1288   -4.4938  -38.0345 C.3     1  UNL1        0.0870
     26 C          -1.5213   -3.0649  -38.4548 C.3     1  UNL1       -0.0307
     27 H           4.7018   -9.6699  -31.5553 H       1  UNL1        0.0570
     28 H           2.5706  -10.6522  -30.9380 H       1  UNL1        0.0347
     29 H           1.8981   -9.0243  -30.8008 H       1  UNL1        0.0347
     30 H           0.9851   -9.0697  -36.7891 H       1  UNL1        0.0636
     31 H           0.1789   -6.5151  -37.0347 H       1  UNL1        0.0661
     32 H          -1.0960   -9.1271  -33.9780 H       1  UNL1        0.0625
     33 H          -3.0631   -7.7495  -33.6258 H       1  UNL1        0.0655
     34 H          -3.8456   -4.8078  -35.4357 H       1  UNL1        0.2923
     35 H          -1.3489   -5.1784  -38.8269 H       1  UNL1        0.0694
     36 H          -0.0811   -4.5437  -37.8228 H       1  UNL1        0.0694
     37 H          -2.5702   -3.0298  -38.6633 H       1  UNL1        0.0262
     38 H          -0.9739   -2.7880  -39.3316 H       1  UNL1        0.0262
     39 H          -1.2922   -2.3842  -37.6616 H       1  UNL1        0.0262
@<TRIPOS>BOND
     1     1     2   am
     2     1     3    1
     3     1     4    1
     4     2     5    1
     5     2     6    2
     6     3     7    1
     7     3     8    1
     8     4     9    1
     9     4    10    2
    10     5    11    2
    11     7    12    1
    12     8    13   ar
    13     8    14   ar
    14    11    15    1
    15    12    16   ar
    16    12    17   ar
    17    15    18   ar
    18    15    19   ar
    19    18    20   ar
    20    19    21   ar
    21    20    22   ar
    22    20    23    1
    23    22    24    1
    24    23    25    1
    25    25    26    1
    26     5     9    1
    27    21    22   ar
    28     3    27    1
    29     7    28    1
    30     7    29    1
    31    11    30    1
    32    18    31    1
    33    19    32    1
    34    21    33    1
    35    24    34    1
    36    25    35    1
    37    25    36    1
    38    26    37    1
    39    26    38    1
    40    26    39    1
@<TRIPOS>SUBSTRUCTURE
     1 UNL1        1 TEMP              0 ****  ****    0 ROOT


