##########                                Name: HTS1710-05377662-01
##########                    Molecular_Weight:             347.323
##########                DOCK_Rotatable_Bonds:                   6
##########                       Formal_Charge:                  -2
##########                     HBond_Acceptors:                   8
##########                        HBond_Donors:                   0
##########                         Heavy_Atoms:                  25
##########                          Grid_Score:          -76.197388
##########                     Grid_vdw_energy:          -39.588860
##########                      Grid_es_energy:          -36.608528
##########           Internal_energy_repulsive:           15.836079

@<TRIPOS>MOLECULE
HTS1710-05377662-01
 41 43 1 0 0
SMALL
USER_CHARGES


@<TRIPOS>ATOM
      1 C           0.9929  -13.3455  -33.1248 C.3     1  UNL1        0.0365
      2 O           1.0111  -11.9160  -33.2513 O.3     1  UNL1       -0.3805
      3 C           1.1964  -11.4567  -34.6045 C.3     1  UNL1        0.0740
      4 C           1.5080   -9.9227  -34.6074 C.3     1  UNL1        0.1001
      5 C           0.1820   -9.1344  -34.3961 C.3     1  UNL1       -0.0225
      6 C           0.5338   -7.9720  -33.4654 C.3     1  UNL1       -0.0347
      7 C           1.7810   -8.4408  -32.7044 C.3     1  UNL1        0.0161
      8 N           2.4009   -9.5393  -33.4734 N.am    1  UNL1       -0.2832
      9 C           3.7169  -10.0269  -33.3306 C.2     1  UNL1        0.2651
     10 O           4.1114  -10.9713  -33.9935 O.2     1  UNL1       -0.2683
     11 C           4.5956   -9.3788  -32.2980 C.2     1  UNL1        0.1182
     12 N           5.3975   -8.2988  -32.5133 N.2     1  UNL1       -0.2654
     13 C           5.8167   -7.9513  -31.3084 C.2     1  UNL1       -0.0363
     14 O           5.3536   -8.6976  -30.2491 O.co2   1  UNL1       -0.7709
     15 C           4.6117   -9.6099  -30.9413 C.2     1  UNL1       -0.0550
     16 C           4.0402  -10.7763  -30.2376 C.ar    1  UNL1       -0.0294
     17 C           3.3312  -10.5567  -29.0361 C.ar    1  UNL1       -0.0524
     18 C           2.7823  -11.6302  -28.3173 C.ar    1  UNL1       -0.0259
     19 C           2.9617  -12.9417  -28.7757 C.ar    1  UNL1        0.1234
     20 F           2.4367  -13.9743  -28.0845 F       1  UNL1       -0.2055
     21 C           3.7055  -13.1840  -29.9388 C.ar    1  UNL1       -0.0259
     22 C           4.2531  -12.1089  -30.6569 C.ar    1  UNL1       -0.0524
     23 C           2.1632   -9.4621  -35.9425 C.2     1  UNL1        0.0675
     24 O           1.4169   -9.1694  -36.8623 O.co2   1  UNL1       -0.5475
     25 O           3.3799   -9.4011  -35.9918 O.co2   1  UNL1       -0.5475
     26 H           0.8522  -13.6109  -32.0978 H       1  UNL1        0.0524
     27 H           1.9220  -13.7463  -33.4727 H       1  UNL1        0.0524
     28 H           0.1908  -13.7452  -33.7094 H       1  UNL1        0.0524
     29 H           0.3043  -11.6387  -35.1665 H       1  UNL1        0.0585
     30 H           2.0158  -11.9838  -35.0467 H       1  UNL1        0.0585
     31 H          -0.5574   -9.7626  -33.9451 H       1  UNL1        0.0291
     32 H          -0.2231   -8.7882  -35.3240 H       1  UNL1        0.0291
     33 H          -0.2701   -7.7762  -32.7869 H       1  UNL1        0.0281
     34 H           0.7071   -7.0632  -34.0030 H       1  UNL1        0.0281
     35 H           1.5028   -8.7904  -31.7322 H       1  UNL1        0.0465
     36 H           2.4720   -7.6318  -32.5903 H       1  UNL1        0.0465
     37 H           6.4612   -7.1574  -31.1690 H       1  UNL1        0.0668
     38 H           3.2152   -9.5943  -28.6819 H       1  UNL1        0.0624
     39 H           2.2475  -11.4535  -27.4526 H       1  UNL1        0.0646
     40 H           3.8504  -14.1517  -30.2670 H       1  UNL1        0.0646
     41 H           4.8177  -12.2941  -31.5008 H       1  UNL1        0.0624
@<TRIPOS>BOND
     1     1     2    1
     2     2     3    1
     3     3     4    1
     4     4     5    1
     5     5     6    1
     6     6     7    1
     7     7     8    1
     8     4     8    1
     9     8     9   am
    10     9    10    2
    11     9    11    1
    12    11    12    1
    13    12    13    2
    14    13    14    1
    15    14    15    1
    16    11    15    2
    17    15    16    1
    18    16    17   ar
    19    17    18   ar
    20    18    19   ar
    21    19    20    1
    22    19    21   ar
    23    21    22   ar
    24    16    22   ar
    25     4    23    1
    26    23    24   ar
    27    23    25   ar
    28     1    26    1
    29     1    27    1
    30     1    28    1
    31     3    29    1
    32     3    30    1
    33     5    31    1
    34     5    32    1
    35     6    33    1
    36     6    34    1
    37     7    35    1
    38     7    36    1
    39    13    37    1
    40    17    38    1
    41    18    39    1
    42    21    40    1
    43    22    41    1
@<TRIPOS>SUBSTRUCTURE
     1 UNL1        1 TEMP              0 ****  ****    0 ROOT


