HTS1710-05435998-01
 OpenBabel03232612363D

 40 43  0  0  1  0  0  0  0  0999 V2000
    2.9079   -9.5812  -32.8023 C   0  0  0  0  0  0  0  0  0  0  0  0
    1.7509  -10.2371  -33.4540 C   0  0  0  0  0  0  0  0  0  0  0  0
    2.9089  -10.1280  -30.3252 C   0  0  0  0  0  0  0  0  0  0  0  0
    4.1442   -9.4402  -33.4024 C   0  0  0  0  0  0  0  0  0  0  0  0
    2.7352   -9.0517  -31.3909 C   0  0  1  0  0  0  0  0  0  0  0  0
    2.0072  -10.7015  -34.7499 N   0  0  0  0  0  0  0  0  0  0  0  0
    3.7540  -11.2947  -30.6444 C   0  0  0  0  0  0  0  0  0  0  0  0
    4.3329   -9.9488  -34.7287 C   0  0  0  0  0  0  0  0  0  0  0  0
    3.2616  -10.5503  -35.3631 C   0  0  0  0  0  0  0  0  0  0  0  0
    2.2761  -10.0062  -29.1028 C   0  0  0  0  0  0  0  0  0  0  0  0
    5.2187   -8.8759  -32.7630 O   0  0  0  0  0  0  0  0  0  0  0  0
    3.8758  -12.2894  -29.5329 C   0  0  0  0  0  0  0  0  0  0  0  0
    5.1389   -8.2156  -31.5657 C   0  0  0  0  0  0  0  0  0  0  0  0
    2.4027  -10.9540  -28.1171 O   0  0  0  0  0  0  0  0  0  0  0  0
    3.7020   -7.8705  -31.1546 C   0  0  0  0  0  0  0  0  0  0  0  0
    3.1919  -12.0701  -28.3193 C   0  0  0  0  0  0  0  0  0  0  0  0
    0.6695  -10.3646  -32.9006 O   0  0  0  0  0  0  0  0  0  0  0  0
    4.3111  -11.4538  -31.7177 O   0  0  0  0  0  0  0  0  0  0  0  0
    6.1155   -7.9216  -30.9011 O   0  0  0  0  0  0  0  0  0  0  0  0
    0.9174  -11.3731  -35.5019 C   0  0  0  0  0  0  0  0  0  0  0  0
    3.4905  -11.0652  -36.7729 C   0  0  0  0  0  0  0  0  0  0  0  0
    4.6697  -13.4449  -29.6835 C   0  0  0  0  0  0  0  0  0  0  0  0
    3.3056  -13.0018  -27.2726 C   0  0  0  0  0  0  0  0  0  0  0  0
    4.7807  -14.3700  -28.6343 C   0  0  0  0  0  0  0  0  0  0  0  0
    4.0985  -14.1487  -27.4284 C   0  0  0  0  0  0  0  0  0  0  0  0
    1.7259   -8.7087  -31.2984 H   0  0  0  0  0  0  0  0  0  0  0  0
    5.2476   -9.8681  -35.1997 H   0  0  0  0  0  0  0  0  0  0  0  0
    1.6894   -9.1761  -28.9249 H   0  0  0  0  0  0  0  0  0  0  0  0
    3.3698   -7.0315  -31.7296 H   0  0  0  0  0  0  0  0  0  0  0  0
    3.7015   -7.6462  -30.1084 H   0  0  0  0  0  0  0  0  0  0  0  0
    0.0351  -11.4067  -34.8975 H   0  0  0  0  0  0  0  0  0  0  0  0
    1.2174  -12.3696  -35.7508 H   0  0  0  0  0  0  0  0  0  0  0  0
    0.7143  -10.8271  -36.3994 H   0  0  0  0  0  0  0  0  0  0  0  0
    4.4986  -10.8610  -37.0678 H   0  0  0  0  0  0  0  0  0  0  0  0
    2.8163  -10.5765  -37.4448 H   0  0  0  0  0  0  0  0  0  0  0  0
    3.3180  -12.1208  -36.7994 H   0  0  0  0  0  0  0  0  0  0  0  0
    5.1716  -13.6111  -30.5698 H   0  0  0  0  0  0  0  0  0  0  0  0
    2.8035  -12.8414  -26.3854 H   0  0  0  0  0  0  0  0  0  0  0  0
    5.3643  -15.2133  -28.7496 H   0  0  0  0  0  0  0  0  0  0  0  0
    4.1799  -14.8290  -26.6567 H   0  0  0  0  0  0  0  0  0  0  0  0
  1  2  1  0  0  0  0
  1  4  2  0  0  0  0
  1  5  1  0  0  0  0
  2  6  1  0  0  0  0
  2 17  2  0  0  0  0
  3  5  1  0  0  0  0
  3  7  1  0  0  0  0
  3 10  2  0  0  0  0
  4  8  1  0  0  0  0
  4 11  1  0  0  0  0
  5 15  1  0  0  0  0
  5 26  1  1  0  0  0
  6 20  1  0  0  0  0
  6  9  1  0  0  0  0
  7 12  1  0  0  0  0
  7 18  2  0  0  0  0
  8  9  2  0  0  0  0
  8 27  1  0  0  0  0
  9 21  1  0  0  0  0
 10 14  1  0  0  0  0
 10 28  1  0  0  0  0
 11 13  1  0  0  0  0
 12 22  2  0  0  0  0
 12 16  1  0  0  0  0
 13 15  1  0  0  0  0
 13 19  2  0  0  0  0
 14 16  1  0  0  0  0
 15 29  1  0  0  0  0
 15 30  1  0  0  0  0
 16 23  2  0  0  0  0
 20 31  1  0  0  0  0
 20 32  1  0  0  0  0
 20 33  1  0  0  0  0
 21 34  1  0  0  0  0
 21 35  1  0  0  0  0
 21 36  1  0  0  0  0
 22 24  1  0  0  0  0
 22 37  1  0  0  0  0
 23 25  1  0  0  0  0
 23 38  1  0  0  0  0
 24 25  2  0  0  0  0
 24 39  1  0  0  0  0
 25 40  1  0  0  0  0
M  END
$$$$
