##########                                Name: HTS1710-01225926-01
##########                    Molecular_Weight:             368.384
##########                DOCK_Rotatable_Bonds:                   9
##########                       Formal_Charge:                  -2
##########                     HBond_Acceptors:                   8
##########                        HBond_Donors:                   0
##########                         Heavy_Atoms:                  26
##########                          Grid_Score:          -77.853271
##########                     Grid_vdw_energy:          -43.170033
##########                      Grid_es_energy:          -34.683243
##########           Internal_energy_repulsive:           12.908214

@<TRIPOS>MOLECULE
HTS1710-01225926-01
 50 51 1 0 0
SMALL
USER_CHARGES


@<TRIPOS>ATOM
      1 C          -2.0457   -6.7122  -35.4316 C.3     1  UNL1        0.0115
      2 C           4.1660  -10.9675  -30.1590 C.3     1  UNL1        0.0115
      3 C          -1.4263   -7.7904  -34.4663 C.3     1  UNL1        0.0643
      4 C           3.1625  -11.4685  -31.2518 C.3     1  UNL1        0.0643
      5 C           4.1377   -9.4360  -29.9777 C.2     1  UNL1        0.0456
      6 C          -3.5492   -6.4373  -35.1814 C.2     1  UNL1        0.0456
      7 C          -0.1623   -8.4555  -35.0587 C.2     1  UNL1        0.3109
      8 C           3.4360  -10.8603  -32.6408 C.2     1  UNL1        0.3109
      9 O           3.2802   -8.9629  -29.2507 O.co2   1  UNL1       -0.5495
     10 O          -3.8651   -5.4693  -34.5109 O.co2   1  UNL1       -0.5495
     11 O           4.5478  -10.6295  -33.0916 O.2     1  UNL1       -0.2505
     12 O           0.6549   -7.8861  -35.7657 O.2     1  UNL1       -0.2505
     13 O          -4.3338   -7.2456  -35.6458 O.co2   1  UNL1       -0.5495
     14 O           4.9595   -8.7917  -30.6060 O.co2   1  UNL1       -0.5495
     15 O          -0.0810   -9.7739  -34.6944 O.3     1  UNL1       -0.4610
     16 O           2.2674  -10.5973  -33.3013 O.3     1  UNL1       -0.4610
     17 C           3.9084  -11.6581  -28.7933 C.3     1  UNL1       -0.0443
     18 C          -1.2423   -5.3776  -35.4219 C.3     1  UNL1       -0.0443
     19 C          -1.1143   -7.2136  -33.0490 C.3     1  UNL1       -0.0395
     20 C           3.1594  -13.0202  -31.3481 C.3     1  UNL1       -0.0395
     21 C           2.2997  -10.3154  -34.7112 C.3     1  UNL1        0.1265
     22 C           0.9055  -10.6430  -35.2889 C.3     1  UNL1        0.1265
     23 C           2.9116  -13.6925  -29.9779 C.3     1  UNL1       -0.0523
     24 C           3.9111  -13.1994  -28.9083 C.3     1  UNL1       -0.0524
     25 C          -0.2956   -5.9046  -33.1070 C.3     1  UNL1       -0.0523
     26 C          -0.9829   -4.8435  -33.9945 C.3     1  UNL1       -0.0524
     27 H          -1.9690   -7.1478  -36.4059 H       1  UNL1        0.0368
     28 H           5.1394  -11.2364  -30.5125 H       1  UNL1        0.0368
     29 H          -2.1788   -8.5434  -34.3593 H       1  UNL1        0.0420
     30 H           2.1962  -11.1332  -30.9376 H       1  UNL1        0.0420
     31 H           2.9561  -11.3420  -28.4216 H       1  UNL1        0.0272
     32 H           4.6987  -11.3770  -28.1290 H       1  UNL1        0.0272
     33 H          -1.7959   -4.6417  -35.9667 H       1  UNL1        0.0272
     34 H          -0.2905   -5.5719  -35.8706 H       1  UNL1        0.0272
     35 H          -0.5572   -7.9420  -32.4977 H       1  UNL1        0.0273
     36 H          -2.0484   -6.9908  -32.5771 H       1  UNL1        0.0273
     37 H           4.1076  -13.3435  -31.7236 H       1  UNL1        0.0273
     38 H           2.3621  -13.3060  -32.0020 H       1  UNL1        0.0273
     39 H           3.0426  -10.9211  -35.1868 H       1  UNL1        0.0732
     40 H           2.5433   -9.2875  -34.8818 H       1  UNL1        0.0732
     41 H           0.6602  -11.6616  -35.0714 H       1  UNL1        0.0732
     42 H           0.9165  -10.4958  -36.3487 H       1  UNL1        0.0732
     43 H           3.0164  -14.7517  -30.0878 H       1  UNL1        0.0265
     44 H           1.9246  -13.4353  -29.6547 H       1  UNL1        0.0265
     45 H           4.8945  -13.5258  -29.1754 H       1  UNL1        0.0265
     46 H           3.6168  -13.6056  -27.9632 H       1  UNL1        0.0265
     47 H          -0.1932   -5.5148  -32.1158 H       1  UNL1        0.0265
     48 H           0.6615   -6.1267  -33.5308 H       1  UNL1        0.0265
     49 H          -0.3527   -3.9809  -34.0557 H       1  UNL1        0.0265
     50 H          -1.9257   -4.5972  -33.5527 H       1  UNL1        0.0265
@<TRIPOS>BOND
     1     2     4    1
     2     1     3    1
     3     4     8    1
     4     2     5    1
     5     1     6    1
     6     3     7    1
     7     8    16    1
     8     5     9   ar
     9     6    10   ar
    10     8    11    2
    11     7    12    2
    12     6    13   ar
    13     5    14   ar
    14     7    15    1
    15    16    21    1
    16     2    17    1
    17     1    18    1
    18     3    19    1
    19     4    20    1
    20    21    22    1
    21    15    22    1
    22    20    23    1
    23    23    24    1
    24    25    26    1
    25    18    26    1
    26    19    25    1
    27    17    24    1
    28     1    27    1
    29     2    28    1
    30     3    29    1
    31     4    30    1
    32    17    31    1
    33    17    32    1
    34    18    33    1
    35    18    34    1
    36    19    35    1
    37    19    36    1
    38    20    37    1
    39    20    38    1
    40    21    39    1
    41    21    40    1
    42    22    41    1
    43    22    42    1
    44    23    43    1
    45    23    44    1
    46    24    45    1
    47    24    46    1
    48    25    47    1
    49    25    48    1
    50    26    49    1
    51    26    50    1
@<TRIPOS>SUBSTRUCTURE
     1 UNL1        1 TEMP              0 ****  ****    0 ROOT


