HTS1710-00622168-01
 OpenBabel03232612343D

 28 29  0  0  0  0  0  0  0  0999 V2000
    4.8009   -9.2503  -35.0077 C   0  0  0  0  0  0  0  0  0  0  0  0
    4.6693   -9.2720  -33.6423 C   0  0  0  0  0  0  0  0  0  0  0  0
    3.9373  -10.3179  -36.1521 S   0  0  0  0  0  0  0  0  0  0  0  0
    5.6788   -8.3056  -35.4714 O   0  0  0  0  0  0  0  0  0  0  0  0
    5.5299   -8.2542  -33.1554 C   0  0  0  0  0  0  0  0  0  0  0  0
    2.3736  -10.4048  -35.4938 N   0  0  0  0  0  0  0  0  0  0  0  0
    4.4807  -11.6696  -35.9893 O   0  0  0  0  0  0  0  0  0  0  0  0
    3.8136   -9.6287  -37.4407 O   0  0  0  0  0  0  0  0  0  0  0  0
    6.0965   -7.7336  -34.2986 C   0  0  0  0  0  0  0  0  0  0  0  0
    5.7306   -7.8810  -31.7347 C   0  0  0  0  0  0  0  0  0  0  0  0
    1.4868   -9.3918  -35.1921 C   0  0  0  0  0  0  0  0  0  0  0  0
    7.1116   -6.6207  -34.3498 C   0  0  0  0  0  0  0  0  0  0  0  0
    5.4492   -8.6958  -30.8736 O   0  5  0  0  0  0  0  0  0  0  0  0
    6.1738   -6.7669  -31.5128 O   0  0  0  0  0  0  0  0  0  0  0  0
    1.0356   -9.1105  -33.9156 C   0  0  0  0  0  0  0  0  0  0  0  0
    0.9459   -8.5255  -36.1893 C   0  0  0  0  0  0  0  0  0  0  0  0
   -0.0923   -7.7516  -33.9475 S   0  0  0  0  0  0  0  0  0  0  0  0
    1.4006   -9.8041  -32.6494 C   0  0  0  0  0  0  0  0  0  0  0  0
    0.0822   -7.5874  -35.6888 C   0  0  0  0  0  0  0  0  0  0  0  0
    1.5460  -11.0148  -32.6615 O   0  5  0  0  0  0  0  0  0  0  0  0
    1.5384   -9.1083  -31.6586 O   0  0  0  0  0  0  0  0  0  0  0  0
    4.0686   -9.8990  -33.0846 H   0  0  0  0  0  0  0  0  0  0  0  0
    2.0518  -11.3145  -35.2983 H   0  0  0  0  0  0  0  0  0  0  0  0
    7.3740   -6.4238  -35.3682 H   0  0  0  0  0  0  0  0  0  0  0  0
    7.9862   -6.9104  -33.8057 H   0  0  0  0  0  0  0  0  0  0  0  0
    6.6951   -5.7378  -33.9117 H   0  0  0  0  0  0  0  0  0  0  0  0
    1.1827   -8.5988  -37.1911 H   0  0  0  0  0  0  0  0  0  0  0  0
   -0.4026   -6.8771  -36.2595 H   0  0  0  0  0  0  0  0  0  0  0  0
  1  2  2  0  0  0  0
  1  3  1  0  0  0  0
  1  4  1  0  0  0  0
  2  5  1  0  0  0  0
  2 22  1  0  0  0  0
  3  6  1  0  0  0  0
  3  7  2  0  0  0  0
  3  8  2  0  0  0  0
  4  9  1  0  0  0  0
  5 10  1  0  0  0  0
  5  9  2  0  0  0  0
  6 11  1  0  0  0  0
  6 23  1  0  0  0  0
  9 12  1  0  0  0  0
 10 13  1  0  0  0  0
 10 14  2  0  0  0  0
 11 15  2  0  0  0  0
 11 16  1  0  0  0  0
 12 24  1  0  0  0  0
 12 25  1  0  0  0  0
 12 26  1  0  0  0  0
 15 17  1  0  0  0  0
 15 18  1  0  0  0  0
 16 19  2  0  0  0  0
 16 27  1  0  0  0  0
 17 19  1  0  0  0  0
 18 20  1  0  0  0  0
 18 21  2  0  0  0  0
 19 28  1  0  0  0  0
M  CHG  2  13  -1  20  -1
M  END
$$$$
