##########                                Name: HTS1710-01266408-01
##########                    Molecular_Weight:             416.407
##########                DOCK_Rotatable_Bonds:                   9
##########                       Formal_Charge:                  -2
##########                     HBond_Acceptors:                   9
##########                        HBond_Donors:                   1
##########                         Heavy_Atoms:                  30
##########                          Grid_Score:          -77.693039
##########                     Grid_vdw_energy:          -44.976704
##########                      Grid_es_energy:          -32.716331
##########           Internal_energy_repulsive:           13.310129

@<TRIPOS>MOLECULE
HTS1710-01266408-01
 52 54 1 0 0
SMALL
USER_CHARGES


@<TRIPOS>ATOM
      1 C           3.6812   -9.3959  -32.3640 C.2     1  UNL1       -0.0632
      2 C           4.4829   -8.5905  -31.5696 C.2     1  UNL1        0.1533
      3 C           5.7278   -7.9955  -32.0825 C.2     1  UNL1        0.2184
      4 C           2.3864   -9.9743  -31.8136 C.3     1  UNL1        0.0079
      5 O           3.9723   -9.6909  -33.6834 O.co2   1  UNL1       -0.7815
      6 C           3.5394  -12.3159  -31.6883 C.2     1  UNL1        0.2165
      7 C           5.9861   -8.3441  -33.4781 C.2     1  UNL1       -0.0198
      8 C           2.2756  -11.5094  -32.0742 C.3     1  UNL1        0.0340
      9 N           3.6361  -12.7491  -30.3559 N.am    1  UNL1       -0.2971
     10 C           5.1286   -9.1461  -34.1988 C.2     1  UNL1       -0.0881
     11 C          -2.2328   -7.0336  -33.9713 C.2     1  UNL1        0.0717
     12 C           1.1824   -9.2102  -32.3752 C.ar    1  UNL1       -0.0405
     13 C          -1.0420   -7.7847  -33.4159 C.ar    1  UNL1       -0.0027
     14 O           6.4726   -7.2829  -31.4297 O.2     1  UNL1       -0.2841
     15 O           4.4027  -12.5755  -32.5108 O.2     1  UNL1       -0.2756
     16 O          -3.0794   -7.6800  -34.5653 O.co2   1  UNL1       -0.5446
     17 O           4.2071   -8.2667  -30.2855 O.2     1  UNL1       -0.5038
     18 C           0.4404   -8.3434  -31.5514 C.ar    1  UNL1       -0.0574
     19 C           0.8107   -9.3512  -33.7240 C.ar    1  UNL1       -0.0574
     20 C          -0.2894   -8.6474  -34.2395 C.ar    1  UNL1       -0.0526
     21 C          -0.6618   -7.6395  -32.0646 C.ar    1  UNL1       -0.0526
     22 O           4.2201  -13.2791  -27.6271 O.3     1  UNL1       -0.3767
     23 O          -2.2724   -5.8293  -33.7911 O.co2   1  UNL1       -0.5446
     24 C           4.8390  -13.5268  -29.9533 C.3     1  UNL1        0.0382
     25 C           2.8645  -12.1025  -29.2555 C.3     1  UNL1        0.0382
     26 C           5.4293   -9.4561  -35.6438 C.3     1  UNL1        0.0597
     27 O           4.2183   -9.4071  -36.4244 O.3     1  UNL1       -0.3795
     28 C           4.7264  -14.2234  -28.5784 C.3     1  UNL1        0.0635
     29 C           2.8737  -12.8840  -27.9198 C.3     1  UNL1        0.0635
     30 C           3.5709  -10.6768  -36.6305 C.3     1  UNL1        0.0368
     31 H           2.3929   -9.8502  -30.7508 H       1  UNL1        0.0392
     32 H           6.8353   -7.9789  -33.9368 H       1  UNL1        0.0649
     33 H           1.4512  -11.8868  -31.5059 H       1  UNL1        0.0367
     34 H           2.1453  -11.6317  -33.1292 H       1  UNL1        0.0367
     35 H           3.4205   -8.5777  -29.8824 H       1  UNL1        0.2923
     36 H           0.7082   -8.2239  -30.5620 H       1  UNL1        0.0621
     37 H           1.3514   -9.9777  -34.3406 H       1  UNL1        0.0621
     38 H          -0.5500   -8.7626  -35.2314 H       1  UNL1        0.0624
     39 H          -1.1986   -7.0101  -31.4475 H       1  UNL1        0.0624
     40 H           5.6732  -12.8574  -29.9207 H       1  UNL1        0.0487
     41 H           4.9526  -14.3054  -30.6785 H       1  UNL1        0.0487
     42 H           1.8487  -11.9995  -29.5753 H       1  UNL1        0.0487
     43 H           3.3395  -11.1636  -29.0618 H       1  UNL1        0.0487
     44 H           5.8562  -10.4348  -35.7142 H       1  UNL1        0.0598
     45 H           6.1184   -8.7298  -36.0212 H       1  UNL1        0.0598
     46 H           5.6915  -14.5657  -28.2678 H       1  UNL1        0.0575
     47 H           4.0663  -15.0626  -28.6470 H       1  UNL1        0.0575
     48 H           2.5032  -12.2588  -27.1344 H       1  UNL1        0.0575
     49 H           2.2494  -13.7493  -27.9996 H       1  UNL1        0.0575
     50 H           2.6874  -10.5355  -37.2173 H       1  UNL1        0.0524
     51 H           3.3066  -11.1002  -35.6841 H       1  UNL1        0.0524
     52 H           4.2378  -11.3380  -37.1434 H       1  UNL1        0.0524
@<TRIPOS>BOND
     1     1     2    2
     2     2     3    1
     3     1     4    1
     4     1     5    1
     5     6     8    1
     6     7    10    2
     7     4     8    1
     8     6     9   am
     9     5    10    1
    10    11    13    1
    11     4    12    1
    12    13    20   ar
    13     3    14    2
    14     6    15    2
    15    11    16   ar
    16     2    17    1
    17    12    18   ar
    18    12    19   ar
    19    19    20   ar
    20    18    21   ar
    21    22    29    1
    22    11    23   ar
    23     9    24    1
    24     9    25    1
    25    10    26    1
    26    26    27    1
    27    24    28    1
    28    25    29    1
    29    27    30    1
    30     3     7    1
    31    13    21   ar
    32    22    28    1
    33     4    31    1
    34     7    32    1
    35     8    33    1
    36     8    34    1
    37    17    35    1
    38    18    36    1
    39    19    37    1
    40    20    38    1
    41    21    39    1
    42    24    40    1
    43    24    41    1
    44    25    42    1
    45    25    43    1
    46    26    44    1
    47    26    45    1
    48    28    46    1
    49    28    47    1
    50    29    48    1
    51    29    49    1
    52    30    50    1
    53    30    51    1
    54    30    52    1
@<TRIPOS>SUBSTRUCTURE
     1 UNL1        1 TEMP              0 ****  ****    0 ROOT


