##########                                Name: HTS1710-01245478-01
##########                    Molecular_Weight:             330.297
##########                DOCK_Rotatable_Bonds:                   6
##########                       Formal_Charge:                  -2
##########                     HBond_Acceptors:                   8
##########                        HBond_Donors:                   3
##########                         Heavy_Atoms:                  24
##########                          Grid_Score:          -75.585159
##########                     Grid_vdw_energy:          -36.867767
##########                      Grid_es_energy:          -38.717392
##########           Internal_energy_repulsive:            4.867034

@<TRIPOS>MOLECULE
HTS1710-01245478-01
 38 40 1 0 0
SMALL
USER_CHARGES


@<TRIPOS>ATOM
      1 C           5.0277   -7.6712  -31.8019 C.2     1  UNL1       -0.0555
      2 C           5.2385   -8.6023  -32.8043 C.2     1  UNL1       -0.1091
      3 C           4.2558  -10.3155  -31.2539 C.2     1  UNL1        0.0538
      4 C           4.1223   -9.3039  -30.3471 C.2     1  UNL1       -0.0306
      5 O           4.3737   -7.9874  -30.6351 O.co2   1  UNL1       -0.7688
      6 C           4.6767   -9.9929  -32.6921 C.3     1  UNL1        0.0284
      7 C           5.4948   -6.2861  -31.9549 C.2     1  UNL1        0.1708
      8 O           5.8969   -8.3301  -33.9885 O.co2   1  UNL1       -0.7839
      9 C           6.1773   -6.0432  -33.2238 C.2     1  UNL1       -0.0241
     10 C           3.9839  -11.7774  -30.9333 C.2     1  UNL1        0.3364
     11 C           6.3487   -7.0406  -34.1565 C.2     1  UNL1       -0.0886
     12 C           3.5039  -10.1634  -33.6564 C.ar    1  UNL1       -0.0336
     13 N           3.7190   -9.5435  -29.0540 N.pl3   1  UNL1       -0.3685
     14 O           5.3325   -5.4208  -31.1119 O.2     1  UNL1       -0.2886
     15 O           3.1486  -12.4719  -31.4910 O.2     1  UNL1       -0.2453
     16 N           1.3382  -10.4651  -35.4460 N.ar    1  UNL1       -0.2632
     17 O           4.7918  -12.2502  -29.9327 O.3     1  UNL1       -0.4646
     18 C           7.0496   -6.7415  -35.4566 C.3     1  UNL1        0.0566
     19 O           6.6208   -5.4930  -35.9887 O.3     1  UNL1       -0.3915
     20 C           2.5373  -11.0264  -35.7055 C.ar    1  UNL1        0.0278
     21 C           1.2044   -9.7547  -34.3081 C.ar    1  UNL1        0.0278
     22 C           2.2533   -9.5773  -33.3896 C.ar    1  UNL1       -0.0395
     23 C           3.6425  -10.9008  -34.8464 C.ar    1  UNL1       -0.0395
     24 C           4.6696  -13.6181  -29.5021 C.3     1  UNL1        0.0820
     25 H           5.4463  -10.6865  -32.9598 H       1  UNL1        0.0437
     26 H           6.5403   -5.0985  -33.4261 H       1  UNL1        0.0647
     27 H           3.3105  -10.4076  -28.8178 H       1  UNL1        0.1413
     28 H           3.8388   -8.8509  -28.3647 H       1  UNL1        0.1413
     29 H           6.8287   -7.5167  -36.1602 H       1  UNL1        0.0596
     30 H           8.1027   -6.6918  -35.2739 H       1  UNL1        0.0596
     31 H           6.8163   -4.7865  -35.3534 H       1  UNL1        0.2098
     32 H           2.6481  -11.5726  -36.5741 H       1  UNL1        0.0829
     33 H           0.2906   -9.3216  -34.1021 H       1  UNL1        0.0829
     34 H           2.1079   -9.0243  -32.5305 H       1  UNL1        0.0636
     35 H           4.5435  -11.3436  -35.0854 H       1  UNL1        0.0636
     36 H           5.3735  -13.8098  -28.7194 H       1  UNL1        0.0661
     37 H           4.8670  -14.2706  -30.3269 H       1  UNL1        0.0661
     38 H           3.6777  -13.7908  -29.1401 H       1  UNL1        0.0661
@<TRIPOS>BOND
     1     1     2    2
     2     3     4    2
     3     4     5    1
     4     1     5    1
     5     2     6    1
     6     1     7    1
     7     2     8    1
     8     7     9    1
     9     3    10    1
    10     9    11    2
    11     6    12    1
    12     4    13    1
    13     7    14    2
    14    10    15    2
    15    16    20   ar
    16    10    17    1
    17    11    18    1
    18    18    19    1
    19    20    23   ar
    20    21    22   ar
    21    12    22   ar
    22    12    23   ar
    23    17    24    1
    24     3     6    1
    25     8    11    1
    26    16    21   ar
    27     6    25    1
    28     9    26    1
    29    13    27    1
    30    13    28    1
    31    18    29    1
    32    18    30    1
    33    19    31    1
    34    20    32    1
    35    21    33    1
    36    22    34    1
    37    23    35    1
    38    24    36    1
    39    24    37    1
    40    24    38    1
@<TRIPOS>SUBSTRUCTURE
     1 UNL1        1 TEMP              0 ****  ****    0 ROOT


