HTS1710-05420882-01
 OpenBabel03232612353D

 42 42  0  0  1  0  0  0  0  0999 V2000
    0.3400   -8.9707  -34.5428 C   0  0  0  0  0  0  0  0  0  0  0  0
    1.4784   -9.9884  -34.8117 C   0  0  0  0  0  0  0  0  0  0  0  0
    0.8892  -11.3448  -35.2706 C   0  0  0  0  0  0  0  0  0  0  0  0
    2.4011  -10.1941  -33.5695 C   0  0  0  0  0  0  0  0  0  0  0  0
    3.7090  -11.0118  -33.8237 C   0  0  2  0  0  0  0  0  0  0  0  0
    3.6674  -12.4413  -33.2030 C   0  0  0  0  0  0  0  0  0  0  0  0
    4.0510  -12.4127  -31.7843 N   0  0  0  0  0  0  0  0  0  0  0  0
    3.1461  -12.5613  -30.7409 C   0  0  0  0  0  0  0  0  0  0  0  0
    1.9603  -12.7236  -30.9784 O   0  0  0  0  0  0  0  0  0  0  0  0
    3.6963  -12.5092  -29.3024 C   0  0  1  0  0  0  0  0  0  0  0  0
    2.9797  -13.5440  -28.3891 C   0  0  0  0  0  0  0  0  0  0  0  0
    4.0794  -14.0768  -27.4517 C   0  0  0  0  0  0  0  0  0  0  0  0
    5.3716  -13.3979  -27.9353 C   0  0  0  0  0  0  0  0  0  0  0  0
    5.0602  -12.9928  -29.2780 O   0  0  0  0  0  0  0  0  0  0  0  0
    3.6168  -11.0585  -28.7433 C   0  0  0  0  0  0  0  0  0  0  0  0
    4.5574  -10.3149  -28.9708 O   0  5  0  0  0  0  0  0  0  0  0  0
    2.6017  -10.7302  -28.1532 O   0  0  0  0  0  0  0  0  0  0  0  0
    4.9473  -10.2024  -33.3316 C   0  0  0  0  0  0  0  0  0  0  0  0
    5.3587   -9.0553  -34.2712 C   0  0  0  0  0  0  0  0  0  0  0  0
    4.9913   -9.1135  -35.4324 O   0  5  0  0  0  0  0  0  0  0  0  0
    6.0341   -8.1606  -33.7913 O   0  0  0  0  0  0  0  0  0  0  0  0
   -0.2606   -8.8668  -35.4222 H   0  0  0  0  0  0  0  0  0  0  0  0
    0.7629   -8.0221  -34.2856 H   0  0  0  0  0  0  0  0  0  0  0  0
   -0.2680   -9.3209  -33.7349 H   0  0  0  0  0  0  0  0  0  0  0  0
    2.0861   -9.5807  -35.5924 H   0  0  0  0  0  0  0  0  0  0  0  0
    0.2815  -11.7522  -34.4897 H   0  0  0  0  0  0  0  0  0  0  0  0
    1.6863  -12.0231  -35.4930 H   0  0  0  0  0  0  0  0  0  0  0  0
    0.2924  -11.1965  -36.1463 H   0  0  0  0  0  0  0  0  0  0  0  0
    1.8340  -10.7056  -32.8201 H   0  0  0  0  0  0  0  0  0  0  0  0
    2.7212   -9.2153  -33.2790 H   0  0  0  0  0  0  0  0  0  0  0  0
    3.7922  -11.1628  -34.8798 H   0  0  0  0  0  0  0  0  0  0  0  0
    4.3461  -13.0738  -33.7361 H   0  0  0  0  0  0  0  0  0  0  0  0
    2.6678  -12.8156  -33.2776 H   0  0  0  0  0  0  0  0  0  0  0  0
    5.0009  -12.2810  -31.5614 H   0  0  0  0  0  0  0  0  0  0  0  0
    2.5661  -14.3389  -28.9738 H   0  0  0  0  0  0  0  0  0  0  0  0
    2.1668  -13.1072  -27.8476 H   0  0  0  0  0  0  0  0  0  0  0  0
    4.1599  -15.1407  -27.5318 H   0  0  0  0  0  0  0  0  0  0  0  0
    3.8718  -13.8638  -26.4239 H   0  0  0  0  0  0  0  0  0  0  0  0
    6.1912  -14.0856  -27.9244 H   0  0  0  0  0  0  0  0  0  0  0  0
    5.6686  -12.5796  -27.3131 H   0  0  0  0  0  0  0  0  0  0  0  0
    5.7742  -10.8752  -33.2398 H   0  0  0  0  0  0  0  0  0  0  0  0
    4.6742   -9.7556  -32.3985 H   0  0  0  0  0  0  0  0  0  0  0  0
  1  2  1  0  0  0  0
  1 22  1  0  0  0  0
  1 23  1  0  0  0  0
  1 24  1  0  0  0  0
  2  3  1  0  0  0  0
  2  4  1  0  0  0  0
  2 25  1  0  0  0  0
  3 26  1  0  0  0  0
  3 27  1  0  0  0  0
  3 28  1  0  0  0  0
  4  5  1  0  0  0  0
  4 29  1  0  0  0  0
  4 30  1  0  0  0  0
  5  6  1  0  0  0  0
  5 18  1  0  0  0  0
  5 31  1  6  0  0  0
  6  7  1  0  0  0  0
  6 32  1  0  0  0  0
  6 33  1  0  0  0  0
  7  8  1  0  0  0  0
  7 34  1  0  0  0  0
  8  9  2  0  0  0  0
 10  8  1  6  0  0  0
 10 11  1  0  0  0  0
 10 14  1  0  0  0  0
 10 15  1  0  0  0  0
 11 12  1  0  0  0  0
 11 35  1  0  0  0  0
 11 36  1  0  0  0  0
 12 13  1  0  0  0  0
 12 37  1  0  0  0  0
 12 38  1  0  0  0  0
 13 14  1  0  0  0  0
 13 39  1  0  0  0  0
 13 40  1  0  0  0  0
 15 16  1  0  0  0  0
 15 17  2  0  0  0  0
 18 19  1  0  0  0  0
 18 41  1  0  0  0  0
 18 42  1  0  0  0  0
 19 20  1  0  0  0  0
 19 21  2  0  0  0  0
M  CHG  2  16  -1  20  -1
M  END
$$$$
