##########                                Name: HTS1710-04960295-01
##########                    Molecular_Weight:             331.305
##########                DOCK_Rotatable_Bonds:                   6
##########                       Formal_Charge:                  -2
##########                     HBond_Acceptors:                   8
##########                        HBond_Donors:                   1
##########                         Heavy_Atoms:                  24
##########                          Grid_Score:          -75.876381
##########                     Grid_vdw_energy:          -41.954796
##########                      Grid_es_energy:          -33.921585
##########           Internal_energy_repulsive:            6.840824

@<TRIPOS>MOLECULE
HTS1710-04960295-01
 39 41 1 0 0
SMALL
USER_CHARGES


@<TRIPOS>ATOM
      1 C           4.8814   -9.4842  -32.9196 C.2     1  UNL1        0.1134
      2 N           3.2113  -10.3872  -34.4941 N.am    1  UNL1       -0.2901
      3 C           4.5590  -10.1349  -34.2210 C.2     1  UNL1        0.2642
      4 N           5.6458   -8.3652  -32.8352 N.2     1  UNL1       -0.2658
      5 C           0.8680   -9.8394  -34.8192 C.3     1  UNL1        0.1429
      6 C           4.6121   -9.9156  -31.6448 C.2     1  UNL1       -0.0892
      7 C           2.0629   -9.7218  -33.8455 C.3     1  UNL1        0.0547
      8 C           2.7647  -11.0242  -35.7431 C.3     1  UNL1        0.0447
      9 C           1.2245  -11.0436  -35.7096 C.3     1  UNL1        0.1091
     10 C          -1.2588   -4.7079  -37.7406 C.2     1  UNL1        0.0718
     11 C           5.7552   -8.1583  -31.5351 C.2     1  UNL1       -0.0365
     12 O           0.8375   -8.6635  -35.6589 O.3     1  UNL1       -0.4846
     13 O           5.1532   -9.0806  -30.7074 O.co2   1  UNL1       -0.7741
     14 C          -1.1825   -5.7180  -36.6157 C.ar    1  UNL1        0.0008
     15 O           5.4283  -10.3749  -35.0420 O.2     1  UNL1       -0.2683
     16 C          -0.2158   -6.7475  -36.6329 C.ar    1  UNL1       -0.0111
     17 C          -0.1364   -7.6831  -35.5857 C.ar    1  UNL1        0.1217
     18 O          -2.2826   -4.0536  -37.8446 O.co2   1  UNL1       -0.5446
     19 O           0.7751  -12.2574  -35.1074 O.3     1  UNL1       -0.3865
     20 O          -0.2921   -4.6093  -38.4773 O.co2   1  UNL1       -0.5446
     21 C           4.1792  -11.2987  -31.2163 C.3     1  UNL1       -0.0509
     22 C          -2.0765   -5.6475  -35.5266 C.ar    1  UNL1       -0.0527
     23 C          -2.0065   -6.5827  -34.4834 C.ar    1  UNL1       -0.0577
     24 C          -1.0425   -7.6011  -34.5076 C.ar    1  UNL1       -0.0199
     25 H          -0.0698   -9.9420  -34.3142 H       1  UNL1        0.0776
     26 H           1.8321  -10.2056  -32.9194 H       1  UNL1        0.0502
     27 H           2.2842   -8.6968  -33.6325 H       1  UNL1        0.0502
     28 H           3.1440  -12.0230  -35.8029 H       1  UNL1        0.0491
     29 H           3.1225  -10.4868  -36.5965 H       1  UNL1        0.0491
     30 H           0.7753  -10.9887  -36.6792 H       1  UNL1        0.0647
     31 H           6.2667   -7.3453  -31.1578 H       1  UNL1        0.0668
     32 H           0.4418   -6.8142  -37.4254 H       1  UNL1        0.0660
     33 H          -0.1931  -12.2504  -35.0494 H       1  UNL1        0.2100
     34 H           3.7797  -11.8243  -32.0584 H       1  UNL1        0.0267
     35 H           3.4292  -11.2185  -30.4573 H       1  UNL1        0.0267
     36 H           5.0221  -11.8325  -30.8297 H       1  UNL1        0.0267
     37 H          -2.7886   -4.9011  -35.4971 H       1  UNL1        0.0624
     38 H          -2.6680   -6.5209  -33.6936 H       1  UNL1        0.0619
     39 H          -0.9962   -8.2884  -33.7391 H       1  UNL1        0.0654
@<TRIPOS>BOND
     1     2     3   am
     2     1     3    1
     3     1     4    1
     4     5     7    1
     5     1     6    2
     6     2     7    1
     7     2     8    1
     8     8     9    1
     9    10    14    1
    10     4    11    2
    11     5    12    1
    12     6    13    1
    13    14    16   ar
    14     3    15    2
    15    16    17   ar
    16    12    17    1
    17    10    18   ar
    18     9    19    1
    19    10    20   ar
    20     6    21    1
    21    22    23   ar
    22    23    24   ar
    23    17    24   ar
    24    11    13    1
    25     5     9    1
    26    14    22   ar
    27     5    25    1
    28     7    26    1
    29     7    27    1
    30     8    28    1
    31     8    29    1
    32     9    30    1
    33    11    31    1
    34    16    32    1
    35    19    33    1
    36    21    34    1
    37    21    35    1
    38    21    36    1
    39    22    37    1
    40    23    38    1
    41    24    39    1
@<TRIPOS>SUBSTRUCTURE
     1 UNL1        1 TEMP              0 ****  ****    0 ROOT


