##########                                Name: HTS1710-01161132-01
##########                    Molecular_Weight:             371.415
##########                DOCK_Rotatable_Bonds:                   6
##########                       Formal_Charge:                  -2
##########                     HBond_Acceptors:                  10
##########                        HBond_Donors:                   0
##########                         Heavy_Atoms:                  23
##########                          Grid_Score:          -75.532257
##########                     Grid_vdw_energy:          -39.274784
##########                      Grid_es_energy:          -36.257473
##########           Internal_energy_repulsive:            8.785521

@<TRIPOS>MOLECULE
HTS1710-01161132-01
 32 33 1 0 0
SMALL
USER_CHARGES


@<TRIPOS>ATOM
      1 N           2.8533  -12.8015  -30.6693 N.am    1  UNL1       -0.2538
      2 C           1.9318  -13.7797  -30.3315 C.2     1  UNL1        0.1206
      3 C           2.7419  -12.3340  -31.9751 C.2     1  UNL1        0.2583
      4 C           1.6259  -13.0235  -32.6684 C.2     1  UNL1        0.0771
      5 S           3.4339   -9.5466  -29.3033 S.3     1  UNL1       -0.0791
      6 S           0.8080  -14.1994  -31.6551 S.3     1  UNL1       -0.0610
      7 C           3.8395  -12.2732  -29.7083 C.3     1  UNL1        0.0395
      8 C           1.3018  -12.7289  -33.9778 C.2     1  UNL1       -0.0357
      9 C           3.2110  -11.2542  -28.7345 C.3     1  UNL1        0.0708
     10 C           3.5321   -9.1405  -38.0343 C.2     1  UNL1        0.0717
     11 S           1.8423  -14.5284  -28.8339 S.2     1  UNL1       -0.0272
     12 O           2.5245   -9.4361  -30.4315 O.2     1  UNL1       -0.1853
     13 O           4.8428   -9.4935  -29.6527 O.2     1  UNL1       -0.1853
     14 O           3.4644  -11.4790  -32.4616 O.2     1  UNL1       -0.2690
     15 C           2.9364  -10.0683  -36.9989 C.ar    1  UNL1       -0.0027
     16 O           2.9397   -9.0242  -39.0942 O.co2   1  UNL1       -0.5446
     17 O           3.0660   -8.7514  -28.1436 O.co2   1  UNL1       -0.7245
     18 C           1.8172  -11.8023  -35.0337 C.ar    1  UNL1       -0.0238
     19 C           1.5621  -10.0199  -36.6917 C.ar    1  UNL1       -0.0523
     20 C           3.7441  -10.9998  -36.3167 C.ar    1  UNL1       -0.0523
     21 O           4.5693   -8.5679  -37.7470 O.co2   1  UNL1       -0.5446
     22 C           3.1897  -11.8518  -35.3488 C.ar    1  UNL1       -0.0539
     23 C           1.0093  -10.8737  -35.7239 C.ar    1  UNL1       -0.0539
     24 H           4.6267  -11.7923  -30.2506 H       1  UNL1        0.0485
     25 H           4.2114  -13.0944  -29.1319 H       1  UNL1        0.0485
     26 H           0.5024  -13.2890  -34.3127 H       1  UNL1        0.0636
     27 H           2.1638  -11.4568  -28.6507 H       1  UNL1        0.0505
     28 H           3.7009  -11.3547  -27.7885 H       1  UNL1        0.0505
     29 H           0.9537   -9.3476  -37.1847 H       1  UNL1        0.0624
     30 H           4.7520  -11.0562  -36.5306 H       1  UNL1        0.0624
     31 H           3.7981  -12.5264  -34.8591 H       1  UNL1        0.0624
     32 H           0.0001  -10.8216  -35.5148 H       1  UNL1        0.0624
@<TRIPOS>BOND
     1     1     2    1
     2     1     3   am
     3     3     4    1
     4     5     9    1
     5     2     6    1
     6     1     7    1
     7     4     8    2
     8     7     9    1
     9    10    15    1
    10     2    11    2
    11     5    12    2
    12     5    13    2
    13     3    14    2
    14    15    19   ar
    15    10    16   ar
    16     5    17    1
    17     8    18    1
    18    19    23   ar
    19    20    22   ar
    20    10    21   ar
    21    18    22   ar
    22    18    23   ar
    23     4     6    1
    24    15    20   ar
    25     7    24    1
    26     7    25    1
    27     8    26    1
    28     9    27    1
    29     9    28    1
    30    19    29    1
    31    20    30    1
    32    22    31    1
    33    23    32    1
@<TRIPOS>SUBSTRUCTURE
     1 UNL1        1 TEMP              0 ****  ****    0 ROOT


