HTS1710-04760568-01
 OpenBabel03232612363D

 41 43  0  0  1  0  0  0  0  0999 V2000
    3.0334  -10.4675  -34.1648 C   0  0  0  0  0  0  0  0  0  0  0  0
    1.9776   -9.7371  -33.4275 N   0  0  0  0  0  0  0  0  0  0  0  0
    0.6163   -9.9263  -33.9856 C   0  0  0  0  0  0  0  0  0  0  0  0
    0.1532   -8.7331  -34.8140 C   0  0  0  0  0  0  0  0  0  0  0  0
    0.7613   -8.4420  -36.0469 C   0  0  0  0  0  0  0  0  0  0  0  0
    0.3381   -7.3382  -36.8060 C   0  0  0  0  0  0  0  0  0  0  0  0
   -0.7046   -6.5052  -36.3453 C   0  0  0  0  0  0  0  0  0  0  0  0
   -1.3099   -6.8044  -35.1060 C   0  0  0  0  0  0  0  0  0  0  0  0
   -0.8854   -7.9083  -34.3498 C   0  0  0  0  0  0  0  0  0  0  0  0
   -1.1659   -5.3173  -37.1619 C   0  0  0  0  0  0  0  0  0  0  0  0
   -0.4977   -5.0081  -38.1337 O   0  5  0  0  0  0  0  0  0  0  0  0
   -2.1774   -4.7431  -36.7989 O   0  0  0  0  0  0  0  0  0  0  0  0
    2.1608   -8.8763  -32.3203 C   0  0  0  0  0  0  0  0  0  0  0  0
    1.2052   -8.2976  -31.8322 O   0  0  0  0  0  0  0  0  0  0  0  0
    3.5472   -8.6894  -31.7591 C   0  0  0  0  0  0  0  0  0  0  0  0
    4.3933   -7.6481  -31.9835 N   0  0  0  0  0  0  0  0  0  0  0  0
    5.4713   -7.9456  -31.2836 C   0  0  0  0  0  0  0  0  0  0  0  0
    5.4447   -9.1262  -30.5818 O   0  0  0  0  0  0  0  0  0  0  0  0
    4.1933   -9.5667  -30.9212 C   0  0  0  0  0  0  0  0  0  0  0  0
    3.6591  -10.8756  -30.3668 C   0  0  2  0  0  0  0  0  0  0  0  0
    3.3679  -10.9057  -28.8499 C   0  0  0  0  0  0  0  0  0  0  0  0
    3.6543  -12.3645  -28.4456 C   0  0  0  0  0  0  0  0  0  0  0  0
    4.1861  -13.0268  -29.7314 C   0  0  0  0  0  0  0  0  0  0  0  0
    4.6359  -11.9158  -30.5194 O   0  0  0  0  0  0  0  0  0  0  0  0
    2.5883  -11.0383  -34.9529 H   0  0  0  0  0  0  0  0  0  0  0  0
    3.5470  -11.1248  -33.4946 H   0  0  0  0  0  0  0  0  0  0  0  0
    3.7280   -9.7674  -34.5799 H   0  0  0  0  0  0  0  0  0  0  0  0
   -0.0692  -10.0691  -33.1767 H   0  0  0  0  0  0  0  0  0  0  0  0
    0.6458  -10.7786  -34.6319 H   0  0  0  0  0  0  0  0  0  0  0  0
    1.5236   -9.0430  -36.3971 H   0  0  0  0  0  0  0  0  0  0  0  0
    0.7938   -7.1341  -37.7092 H   0  0  0  0  0  0  0  0  0  0  0  0
   -2.0724   -6.2056  -34.7521 H   0  0  0  0  0  0  0  0  0  0  0  0
   -1.3394   -8.1156  -33.4465 H   0  0  0  0  0  0  0  0  0  0  0  0
    6.2937   -7.3224  -31.2643 H   0  0  0  0  0  0  0  0  0  0  0  0
    2.7500  -11.0022  -30.9165 H   0  0  0  0  0  0  0  0  0  0  0  0
    2.3479  -10.6495  -28.6531 H   0  0  0  0  0  0  0  0  0  0  0  0
    3.9598  -10.2023  -28.3024 H   0  0  0  0  0  0  0  0  0  0  0  0
    2.7589  -12.8475  -28.1145 H   0  0  0  0  0  0  0  0  0  0  0  0
    4.3510  -12.4320  -27.6364 H   0  0  0  0  0  0  0  0  0  0  0  0
    3.4089  -13.5630  -30.2349 H   0  0  0  0  0  0  0  0  0  0  0  0
    4.9580  -13.7432  -29.5424 H   0  0  0  0  0  0  0  0  0  0  0  0
  1  2  1  0  0  0  0
  1 25  1  0  0  0  0
  1 26  1  0  0  0  0
  1 27  1  0  0  0  0
  2  3  1  0  0  0  0
  2 13  1  0  0  0  0
  3  4  1  0  0  0  0
  3 28  1  0  0  0  0
  3 29  1  0  0  0  0
  4  5  2  0  0  0  0
  4  9  1  0  0  0  0
  5  6  1  0  0  0  0
  5 30  1  0  0  0  0
  6  7  2  0  0  0  0
  6 31  1  0  0  0  0
  7  8  1  0  0  0  0
  7 10  1  0  0  0  0
  8  9  2  0  0  0  0
  8 32  1  0  0  0  0
  9 33  1  0  0  0  0
 10 11  1  0  0  0  0
 10 12  2  0  0  0  0
 13 14  2  0  0  0  0
 13 15  1  0  0  0  0
 15 16  1  0  0  0  0
 15 19  2  0  0  0  0
 16 17  2  0  0  0  0
 17 18  1  0  0  0  0
 17 34  1  0  0  0  0
 18 19  1  0  0  0  0
 19 20  1  0  0  0  0
 20 21  1  0  0  0  0
 20 24  1  0  0  0  0
 20 35  1  6  0  0  0
 21 22  1  0  0  0  0
 21 36  1  0  0  0  0
 21 37  1  0  0  0  0
 22 23  1  0  0  0  0
 22 38  1  0  0  0  0
 22 39  1  0  0  0  0
 23 24  1  0  0  0  0
 23 40  1  0  0  0  0
 23 41  1  0  0  0  0
M  CHG  1  11  -1
M  END
$$$$
