##########                                Name: HTS1710-05467323-01
##########                    Molecular_Weight:             330.338
##########                DOCK_Rotatable_Bonds:                   6
##########                       Formal_Charge:                  -2
##########                     HBond_Acceptors:                   9
##########                        HBond_Donors:                   1
##########                         Heavy_Atoms:                  22
##########                          Grid_Score:          -76.238762
##########                     Grid_vdw_energy:          -41.179916
##########                      Grid_es_energy:          -35.058846
##########           Internal_energy_repulsive:           17.666729

@<TRIPOS>MOLECULE
HTS1710-05467323-01
 38 39 1 0 0
SMALL
USER_CHARGES


@<TRIPOS>ATOM
      1 C           5.3941  -11.2724  -36.0859 C.3     1  UNL1        0.0820
      2 O           4.8797  -10.8586  -34.8076 O.3     1  UNL1       -0.4645
      3 C           5.2099   -9.6289  -34.3106 C.2     1  UNL1        0.3381
      4 O           5.7153   -8.7492  -34.9892 O.2     1  UNL1       -0.2450
      5 C           4.9059   -9.4378  -32.8721 C.2     1  UNL1        0.0489
      6 C           4.0646  -10.2699  -32.0891 C.2     1  UNL1       -0.0360
      7 C           4.0707   -9.7269  -30.8306 C.2     1  UNL1        0.0445
      8 O           4.8436   -8.6019  -30.7089 O.co2   1  UNL1       -0.7695
      9 C           5.3293   -8.4731  -31.9828 C.2     1  UNL1       -0.1059
     10 C           6.2589   -7.3256  -32.2907 C.3     1  UNL1       -0.0522
     11 S           3.1880  -10.3814  -29.4221 S.O2    1  UNL1        0.0460
     12 O           2.0793   -9.4650  -29.1353 O.2     1  UNL1       -0.1541
     13 O           4.1860  -10.7495  -28.4141 O.2     1  UNL1       -0.1541
     14 N           2.5394  -11.8497  -29.9872 N.3     1  UNL1       -0.1879
     15 C           2.9382  -13.1212  -29.3567 C.3     1  UNL1        0.0294
     16 C           2.6223  -13.1110  -27.8452 C.3     1  UNL1       -0.0353
     17 C           3.7386  -13.9218  -27.1491 C.3     1  UNL1       -0.0436
     18 C           4.7586  -14.3205  -28.2426 C.3     1  UNL1        0.0001
     19 C           4.4533  -13.3946  -29.4457 C.3     1  UNL1       -0.0280
     20 C           6.2156  -14.3090  -27.7356 C.2     1  UNL1        0.0449
     21 O           6.9059  -13.3315  -27.9714 O.co2   1  UNL1       -0.5495
     22 O           6.5902  -15.3007  -27.1341 O.co2   1  UNL1       -0.5495
     23 H           5.0353  -12.2543  -36.3137 H       1  UNL1        0.0661
     24 H           6.4635  -11.2820  -36.0538 H       1  UNL1        0.0661
     25 H           5.0661  -10.5886  -36.8407 H       1  UNL1        0.0661
     26 H           3.5538  -11.1102  -32.4024 H       1  UNL1        0.0633
     27 H           6.4083   -6.7408  -31.4072 H       1  UNL1        0.0266
     28 H           5.8284   -6.7132  -33.0552 H       1  UNL1        0.0266
     29 H           7.1992   -7.7089  -32.6280 H       1  UNL1        0.0266
     30 H           2.7859  -11.9202  -30.9744 H       1  UNL1        0.1483
     31 H           2.3897  -13.8692  -29.8901 H       1  UNL1        0.0477
     32 H           1.6704  -13.5651  -27.6649 H       1  UNL1        0.0281
     33 H           2.5833  -12.1103  -27.4683 H       1  UNL1        0.0281
     34 H           3.3267  -14.7982  -26.6940 H       1  UNL1        0.0272
     35 H           4.2087  -13.3430  -26.3817 H       1  UNL1        0.0272
     36 H           4.6544  -15.3407  -28.5480 H       1  UNL1        0.0361
     37 H           4.6950  -13.8817  -30.3672 H       1  UNL1        0.0287
     38 H           5.0290  -12.4931  -29.4183 H       1  UNL1        0.0287
@<TRIPOS>BOND
     1     1     2    1
     2     2     3    1
     3     3     4    2
     4     3     5    1
     5     5     6    1
     6     6     7    2
     7     7     8    1
     8     8     9    1
     9     5     9    2
    10     9    10    1
    11     7    11    1
    12    11    12    2
    13    11    13    2
    14    11    14    1
    15    14    15    1
    16    15    16    1
    17    16    17    1
    18    17    18    1
    19    18    19    1
    20    15    19    1
    21    18    20    1
    22    20    21   ar
    23    20    22   ar
    24     1    23    1
    25     1    24    1
    26     1    25    1
    27     6    26    1
    28    10    27    1
    29    10    28    1
    30    10    29    1
    31    14    30    1
    32    15    31    1
    33    16    32    1
    34    16    33    1
    35    17    34    1
    36    17    35    1
    37    18    36    1
    38    19    37    1
    39    19    38    1
@<TRIPOS>SUBSTRUCTURE
     1 UNL1        1 TEMP              0 ****  ****    0 ROOT


