##########                                Name: HTS1710-04760594-01
##########                    Molecular_Weight:             310.327
##########                DOCK_Rotatable_Bonds:                   9
##########                       Formal_Charge:                  -2
##########                     HBond_Acceptors:                   7
##########                        HBond_Donors:                   1
##########                         Heavy_Atoms:                  22
##########                          Grid_Score:          -78.977036
##########                     Grid_vdw_energy:          -40.038544
##########                      Grid_es_energy:          -38.938488
##########           Internal_energy_repulsive:            6.448646

@<TRIPOS>MOLECULE
HTS1710-04760594-01
 42 43 1 0 0
SMALL
USER_CHARGES


@<TRIPOS>ATOM
      1 C           5.8191   -6.7282  -31.9850 C.3     1  UNL1       -0.0524
      2 C           5.2673   -8.0778  -31.6030 C.2     1  UNL1       -0.1120
      3 O           4.7382   -8.2434  -30.3480 O.co2   1  UNL1       -0.7845
      4 C           4.3602   -9.5563  -30.4142 C.2     1  UNL1       -0.1000
      5 C           3.7000  -10.2083  -29.2289 C.3     1  UNL1        0.0240
      6 N           3.5808  -11.6551  -29.4488 N.am    1  UNL1       -0.3122
      7 C           2.9543  -12.5034  -28.5445 C.2     1  UNL1        0.2154
      8 O           2.4745  -12.0536  -27.5167 O.2     1  UNL1       -0.2757
      9 C           2.8972  -13.9960  -28.8935 C.3     1  UNL1        0.0474
     10 C           1.7199  -14.3538  -29.8378 C.3     1  UNL1        0.0560
     11 O           1.6834  -13.4314  -30.9447 O.3     1  UNL1       -0.3767
     12 C           1.1809  -13.9633  -32.1869 C.3     1  UNL1        0.0738
     13 C           1.1110  -12.8102  -33.2101 C.3     1  UNL1        0.0820
     14 C           2.4743  -12.4231  -33.8251 C.3     1  UNL1       -0.0224
     15 C           2.1471  -12.0855  -35.2918 C.3     1  UNL1       -0.0270
     16 C           0.6281  -12.3086  -35.4079 C.3     1  UNL1        0.0482
     17 O           0.3474  -13.2356  -34.3494 O.3     1  UNL1       -0.3743
     18 C           4.6180  -10.1848  -31.6044 C.2     1  UNL1       -0.0630
     19 C           5.2351   -9.1944  -32.4144 C.2     1  UNL1       -0.0144
     20 C           5.7141   -9.3762  -33.8066 C.2     1  UNL1        0.0708
     21 O           6.0469  -10.5007  -34.1353 O.co2   1  UNL1       -0.5447
     22 O           5.7495   -8.4038  -34.5401 O.co2   1  UNL1       -0.5447
     23 H           5.7131   -6.0534  -31.1615 H       1  UNL1        0.0266
     24 H           5.2811   -6.3488  -32.8286 H       1  UNL1        0.0266
     25 H           6.8547   -6.8245  -32.2363 H       1  UNL1        0.0266
     26 H           2.7246   -9.7898  -29.0927 H       1  UNL1        0.0500
     27 H           4.2961  -10.0350  -28.3574 H       1  UNL1        0.0500
     28 H           3.9608  -12.0401  -30.2714 H       1  UNL1        0.1490
     29 H           2.7887  -14.5541  -27.9871 H       1  UNL1        0.0381
     30 H           3.8040  -14.2394  -29.4067 H       1  UNL1        0.0381
     31 H           0.7992  -14.2946  -29.2958 H       1  UNL1        0.0564
     32 H           1.8558  -15.3475  -30.2107 H       1  UNL1        0.0564
     33 H           0.2046  -14.3742  -32.0367 H       1  UNL1        0.0585
     34 H           1.8259  -14.7380  -32.5457 H       1  UNL1        0.0585
     35 H           0.7004  -11.9881  -32.6621 H       1  UNL1        0.0619
     36 H           3.1618  -13.2410  -33.7685 H       1  UNL1        0.0292
     37 H           2.9379  -11.6071  -33.3112 H       1  UNL1        0.0292
     38 H           2.6769  -12.7353  -35.9568 H       1  UNL1        0.0288
     39 H           2.4337  -11.0885  -35.5541 H       1  UNL1        0.0288
     40 H           0.3737  -12.7257  -36.3598 H       1  UNL1        0.0560
     41 H           0.0651  -11.4020  -35.3300 H       1  UNL1        0.0560
     42 H           4.4094  -11.1634  -31.8570 H       1  UNL1        0.0615
@<TRIPOS>BOND
     1     1     2    1
     2     2     3    1
     3     3     4    1
     4     4     5    1
     5     5     6    1
     6     6     7   am
     7     7     8    2
     8     7     9    1
     9     9    10    1
    10    10    11    1
    11    11    12    1
    12    12    13    1
    13    13    14    1
    14    14    15    1
    15    15    16    1
    16    16    17    1
    17    13    17    1
    18     4    18    2
    19    18    19    1
    20     2    19    2
    21    19    20    1
    22    20    21   ar
    23    20    22   ar
    24     1    23    1
    25     1    24    1
    26     1    25    1
    27     5    26    1
    28     5    27    1
    29     6    28    1
    30     9    29    1
    31     9    30    1
    32    10    31    1
    33    10    32    1
    34    12    33    1
    35    12    34    1
    36    13    35    1
    37    14    36    1
    38    14    37    1
    39    15    38    1
    40    15    39    1
    41    16    40    1
    42    16    41    1
    43    18    42    1
@<TRIPOS>SUBSTRUCTURE
     1 UNL1        1 TEMP              0 ****  ****    0 ROOT


