HTS1710-05451633-01
 OpenBabel03232612353D

 37 39  0  0  0  0  0  0  0  0999 V2000
    0.9108   -9.9474  -33.7719 C   0  0  0  0  0  0  0  0  0  0  0  0
    1.5824  -10.9985  -32.8984 C   0  0  0  0  0  0  0  0  0  0  0  0
    1.3637  -12.3603  -33.1500 C   0  0  0  0  0  0  0  0  0  0  0  0
    1.9730  -13.3342  -32.3466 C   0  0  0  0  0  0  0  0  0  0  0  0
    2.8159  -12.9723  -31.2799 C   0  0  0  0  0  0  0  0  0  0  0  0
    3.3791  -13.9363  -30.5213 N   0  0  0  0  0  0  0  0  0  0  0  0
    4.1819  -13.5963  -29.4930 C   0  0  0  0  0  0  0  0  0  0  0  0
    4.7787  -14.6938  -28.6884 C   0  0  0  0  0  0  0  0  0  0  0  0
    5.6857  -14.5946  -27.6821 C   0  0  0  0  0  0  0  0  0  0  0  0
    6.2599  -15.6896  -26.9032 C   0  0  0  0  0  0  0  0  0  0  0  0
    5.5721  -16.7177  -26.3495 C   0  0  0  0  0  0  0  0  0  0  0  0
    6.5833  -17.4381  -25.7565 N   0  0  0  0  0  0  0  0  0  0  0  0
    6.4668  -18.6967  -25.0046 C   0  0  0  0  0  0  0  0  0  0  0  0
    6.1423  -18.4663  -23.5258 C   0  0  0  0  0  0  0  0  0  0  0  0
    7.0630  -18.5645  -22.7331 O   0  5  0  0  0  0  0  0  0  0  0  0
    4.9886  -18.1956  -23.2418 O   0  0  0  0  0  0  0  0  0  0  0  0
    7.8074  -16.8380  -25.9639 N   0  0  0  0  0  0  0  0  0  0  0  0
    7.6029  -15.7526  -26.6750 N   0  0  0  0  0  0  0  0  0  0  0  0
    4.4627  -12.2553  -29.1803 C   0  0  0  0  0  0  0  0  0  0  0  0
    3.8981  -11.2318  -29.9572 C   0  0  0  0  0  0  0  0  0  0  0  0
    4.2255   -9.8055  -29.6218 C   0  0  0  0  0  0  0  0  0  0  0  0
    5.0133   -9.2267  -30.3494 O   0  5  0  0  0  0  0  0  0  0  0  0
    3.6905   -9.3355  -28.6332 O   0  0  0  0  0  0  0  0  0  0  0  0
    3.0466  -11.5941  -31.0290 C   0  0  0  0  0  0  0  0  0  0  0  0
    2.4195  -10.6194  -31.8366 C   0  0  0  0  0  0  0  0  0  0  0  0
    0.3182  -10.4311  -34.5200 H   0  0  0  0  0  0  0  0  0  0  0  0
    1.6586   -9.3449  -34.2437 H   0  0  0  0  0  0  0  0  0  0  0  0
    0.2836   -9.3276  -33.1657 H   0  0  0  0  0  0  0  0  0  0  0  0
    0.7515  -12.6470  -33.9299 H   0  0  0  0  0  0  0  0  0  0  0  0
    1.8005  -14.3329  -32.5407 H   0  0  0  0  0  0  0  0  0  0  0  0
    4.4657  -15.6488  -28.9230 H   0  0  0  0  0  0  0  0  0  0  0  0
    6.0037  -13.6428  -27.4416 H   0  0  0  0  0  0  0  0  0  0  0  0
    4.5583  -16.9095  -26.3677 H   0  0  0  0  0  0  0  0  0  0  0  0
    7.3944  -19.2256  -25.0743 H   0  0  0  0  0  0  0  0  0  0  0  0
    5.6620  -19.2580  -25.4312 H   0  0  0  0  0  0  0  0  0  0  0  0
    5.0793  -12.0248  -28.3855 H   0  0  0  0  0  0  0  0  0  0  0  0
    2.5783   -9.6179  -31.6442 H   0  0  0  0  0  0  0  0  0  0  0  0
  1  2  1  0  0  0  0
  1 26  1  0  0  0  0
  1 27  1  0  0  0  0
  1 28  1  0  0  0  0
  2  3  2  0  0  0  0
  2 25  1  0  0  0  0
  3  4  1  0  0  0  0
  3 29  1  0  0  0  0
  4  5  2  0  0  0  0
  4 30  1  0  0  0  0
  5  6  1  0  0  0  0
  5 24  1  0  0  0  0
  6  7  2  0  0  0  0
  7  8  1  0  0  0  0
  7 19  1  0  0  0  0
  8  9  2  0  0  0  0
  8 31  1  0  0  0  0
  9 10  1  0  0  0  0
  9 32  1  0  0  0  0
 10 11  2  0  0  0  0
 10 18  1  0  0  0  0
 11 12  1  0  0  0  0
 11 33  1  0  0  0  0
 12 13  1  0  0  0  0
 12 17  1  0  0  0  0
 13 14  1  0  0  0  0
 13 34  1  0  0  0  0
 13 35  1  0  0  0  0
 14 15  1  0  0  0  0
 14 16  2  0  0  0  0
 17 18  2  0  0  0  0
 19 20  2  0  0  0  0
 19 36  1  0  0  0  0
 20 21  1  0  0  0  0
 20 24  1  0  0  0  0
 21 22  1  0  0  0  0
 21 23  2  0  0  0  0
 24 25  2  0  0  0  0
 25 37  1  0  0  0  0
M  CHG  2  15  -1  22  -1
M  END
$$$$
