HTS1710-00833846-01
 OpenBabel03232612353D

 33 35  0  0  0  0  0  0  0  0999 V2000
    4.9393   -9.4529  -32.6317 C   0  0  0  0  0  0  0  0  0  0  0  0
    2.8226  -10.7206  -33.3168 C   0  0  0  0  0  0  0  0  0  0  0  0
    4.0585  -10.6903  -32.4113 C   0  0  0  0  0  0  0  0  0  0  0  0
    5.4514   -8.6468  -31.6203 C   0  0  0  0  0  0  0  0  0  0  0  0
    2.0251   -9.6122  -33.5576 C   0  0  0  0  0  0  0  0  0  0  0  0
    2.4432  -12.0007  -33.9523 C   0  0  0  0  0  0  0  0  0  0  0  0
    5.2514   -9.0904  -34.0303 C   0  0  0  0  0  0  0  0  0  0  0  0
    0.9231   -9.6945  -34.3819 N   0  0  0  0  0  0  0  0  0  0  0  0
    6.2386   -7.5526  -31.9172 N   0  0  0  0  0  0  0  0  0  0  0  0
    3.7449  -11.0441  -30.9506 C   0  0  0  0  0  0  0  0  0  0  0  0
    1.3258  -11.9971  -34.7677 N   0  0  0  0  0  0  0  0  0  0  0  0
    6.0478   -7.9790  -34.2392 N   0  0  0  0  0  0  0  0  0  0  0  0
    0.5866  -10.8382  -34.9702 C   0  0  0  0  0  0  0  0  0  0  0  0
    6.5300   -7.2312  -33.1735 C   0  0  0  0  0  0  0  0  0  0  0  0
    4.4159  -12.0854  -30.2738 C   0  0  0  0  0  0  0  0  0  0  0  0
    4.8499   -9.7048  -35.0040 O   0  0  0  0  0  0  0  0  0  0  0  0
    3.0439  -13.0509  -33.8022 O   0  0  0  0  0  0  0  0  0  0  0  0
    5.2190   -8.8417  -30.3065 O   0  5  0  0  0  0  0  0  0  0  0  0
    2.2445   -8.4047  -33.0019 O   0  5  0  0  0  0  0  0  0  0  0  0
    4.0949  -12.3852  -28.9405 C   0  0  0  0  0  0  0  0  0  0  0  0
    5.1122  -13.9682  -27.9406 I   0  0  0  0  0  0  0  0  0  0  0  0
    2.7547  -10.3133  -30.2651 C   0  0  0  0  0  0  0  0  0  0  0  0
    2.4373  -10.6150  -28.9306 C   0  0  0  0  0  0  0  0  0  0  0  0
    3.1074  -11.6528  -28.2670 C   0  0  0  0  0  0  0  0  0  0  0  0
    4.6906  -11.4947  -32.7251 H   0  0  0  0  0  0  0  0  0  0  0  0
    1.0494  -12.8307  -35.2127 H   0  0  0  0  0  0  0  0  0  0  0  0
    6.2765   -7.7137  -35.1592 H   0  0  0  0  0  0  0  0  0  0  0  0
   -0.2390  -10.8658  -35.5887 H   0  0  0  0  0  0  0  0  0  0  0  0
    7.1263   -6.4100  -33.3604 H   0  0  0  0  0  0  0  0  0  0  0  0
    5.1456  -12.6286  -30.7613 H   0  0  0  0  0  0  0  0  0  0  0  0
    2.2577   -9.5487  -30.7481 H   0  0  0  0  0  0  0  0  0  0  0  0
    1.7104  -10.0727  -28.4382 H   0  0  0  0  0  0  0  0  0  0  0  0
    2.8745  -11.8765  -27.2868 H   0  0  0  0  0  0  0  0  0  0  0  0
  1  3  1  0  0  0  0
  1  4  2  0  0  0  0
  1  7  1  0  0  0  0
  2  3  1  0  0  0  0
  2  5  2  0  0  0  0
  2  6  1  0  0  0  0
  3 10  1  0  0  0  0
  3 25  1  0  0  0  0
  4  9  1  0  0  0  0
  4 18  1  0  0  0  0
  5  8  1  0  0  0  0
  5 19  1  0  0  0  0
  6 11  1  0  0  0  0
  6 17  2  0  0  0  0
  7 12  1  0  0  0  0
  7 16  2  0  0  0  0
  8 13  2  0  0  0  0
  9 14  2  0  0  0  0
 10 15  2  0  0  0  0
 10 22  1  0  0  0  0
 11 13  1  0  0  0  0
 11 26  1  0  0  0  0
 12 14  1  0  0  0  0
 12 27  1  0  0  0  0
 13 28  1  0  0  0  0
 14 29  1  0  0  0  0
 15 20  1  0  0  0  0
 15 30  1  0  0  0  0
 20 21  1  0  0  0  0
 20 24  2  0  0  0  0
 22 23  2  0  0  0  0
 22 31  1  0  0  0  0
 23 24  1  0  0  0  0
 23 32  1  0  0  0  0
 24 33  1  0  0  0  0
M  CHG  2  18  -1  19  -1
M  END
$$$$
