HTS1710-00461144-01
 OpenBabel03232612363D

 44 45  0  0  1  0  0  0  0  0999 V2000
    4.0677  -11.7358  -29.2186 C   0  0  0  0  0  0  0  0  0  0  0  0
    2.3473  -13.5769  -29.6392 C   0  0  0  0  0  0  0  0  0  0  0  0
    3.2614  -12.9216  -28.8079 C   0  0  0  0  0  0  0  0  0  0  0  0
    3.8851  -11.3167  -30.4979 O   0  0  0  0  0  0  0  0  0  0  0  0
    3.0638  -11.9305  -31.4018 C   0  0  0  0  0  0  0  0  0  0  0  0
    2.2956  -13.0477  -31.0198 C   0  0  0  0  0  0  0  0  0  0  0  0
   -1.0285   -7.2284  -34.6257 C   0  0  0  0  0  0  0  0  0  0  0  0
   -0.0738   -9.4570  -34.0183 N   0  0  0  0  0  0  0  0  0  0  0  0
    3.0153  -11.4250  -32.7117 C   0  0  0  0  0  0  0  0  0  0  0  0
    0.6381   -9.6916  -35.1864 C   0  0  0  0  0  0  0  0  0  0  0  0
   -0.3866   -8.1048  -33.5270 C   0  0  1  0  0  0  0  0  0  0  0  0
    1.4813  -13.6587  -32.0003 C   0  0  0  0  0  0  0  0  0  0  0  0
    2.4056   -7.1381  -30.8374 C   0  0  0  0  0  0  0  0  0  0  0  0
    4.8445  -11.1587  -28.4768 O   0  0  0  0  0  0  0  0  0  0  0  0
   -0.3741   -6.2793  -35.0218 O   0  5  0  0  0  0  0  0  0  0  0  0
    1.0380   -8.7597  -35.8639 O   0  0  0  0  0  0  0  0  0  0  0  0
    2.3576   -5.9203  -30.8932 O   0  5  0  0  0  0  0  0  0  0  0  0
    0.8844   -7.4464  -32.9105 C   0  0  0  0  0  0  0  0  0  0  0  0
    2.1949  -12.0425  -33.6749 C   0  0  0  0  0  0  0  0  0  0  0  0
    2.1179  -11.5945  -34.9772 O   0  0  0  0  0  0  0  0  0  0  0  0
    0.8982  -11.1415  -35.5894 C   0  0  0  0  0  0  0  0  0  0  0  0
    1.2423   -7.9163  -31.4713 C   0  0  0  0  0  0  0  0  0  0  0  0
    1.4327  -13.1613  -33.3111 C   0  0  0  0  0  0  0  0  0  0  0  0
   -2.1441   -7.5227  -35.0241 O   0  0  0  0  0  0  0  0  0  0  0  0
    1.5235  -14.7428  -29.1128 C   0  0  0  0  0  0  0  0  0  0  0  0
    3.3094   -7.7871  -30.3408 O   0  0  0  0  0  0  0  0  0  0  0  0
    3.4692  -13.4145  -27.3805 C   0  0  0  0  0  0  0  0  0  0  0  0
   -0.3839  -10.2304  -33.4942 H   0  0  0  0  0  0  0  0  0  0  0  0
    3.5812  -10.6009  -32.9678 H   0  0  0  0  0  0  0  0  0  0  0  0
   -1.1185   -8.1898  -32.7512 H   0  0  0  0  0  0  0  0  0  0  0  0
    0.9139  -14.4830  -31.7481 H   0  0  0  0  0  0  0  0  0  0  0  0
    0.7293   -6.3881  -32.8841 H   0  0  0  0  0  0  0  0  0  0  0  0
    1.7035   -7.7431  -33.5318 H   0  0  0  0  0  0  0  0  0  0  0  0
    0.9872  -11.2060  -36.6538 H   0  0  0  0  0  0  0  0  0  0  0  0
    0.0846  -11.7551  -35.2632 H   0  0  0  0  0  0  0  0  0  0  0  0
    0.3781   -7.7953  -30.8520 H   0  0  0  0  0  0  0  0  0  0  0  0
    1.5531   -8.9375  -31.5445 H   0  0  0  0  0  0  0  0  0  0  0  0
    0.8318  -13.6222  -34.0123 H   0  0  0  0  0  0  0  0  0  0  0  0
    1.7605  -14.9107  -28.0829 H   0  0  0  0  0  0  0  0  0  0  0  0
    1.7484  -15.6226  -29.6786 H   0  0  0  0  0  0  0  0  0  0  0  0
    0.4823  -14.5149  -29.2066 H   0  0  0  0  0  0  0  0  0  0  0  0
    2.8425  -14.2631  -27.2015 H   0  0  0  0  0  0  0  0  0  0  0  0
    3.2174  -12.6339  -26.6934 H   0  0  0  0  0  0  0  0  0  0  0  0
    4.4935  -13.6925  -27.2448 H   0  0  0  0  0  0  0  0  0  0  0  0
  1  3  1  0  0  0  0
  1  4  1  0  0  0  0
  1 14  2  0  0  0  0
  2  3  2  0  0  0  0
  2 25  1  0  0  0  0
  2  6  1  0  0  0  0
  3 27  1  0  0  0  0
  4  5  1  0  0  0  0
  5  6  2  0  0  0  0
  5  9  1  0  0  0  0
  6 12  1  0  0  0  0
  7 11  1  0  0  0  0
  7 15  1  0  0  0  0
  7 24  2  0  0  0  0
  8 10  1  0  0  0  0
  8 11  1  0  0  0  0
  8 28  1  0  0  0  0
  9 19  2  0  0  0  0
  9 29  1  0  0  0  0
 10 21  1  0  0  0  0
 10 16  2  0  0  0  0
 11 18  1  0  0  0  0
 11 30  1  1  0  0  0
 12 23  2  0  0  0  0
 12 31  1  0  0  0  0
 13 22  1  0  0  0  0
 13 17  1  0  0  0  0
 13 26  2  0  0  0  0
 18 22  1  0  0  0  0
 18 32  1  0  0  0  0
 18 33  1  0  0  0  0
 19 20  1  0  0  0  0
 19 23  1  0  0  0  0
 20 21  1  0  0  0  0
 21 34  1  0  0  0  0
 21 35  1  0  0  0  0
 22 36  1  0  0  0  0
 22 37  1  0  0  0  0
 23 38  1  0  0  0  0
 25 39  1  0  0  0  0
 25 40  1  0  0  0  0
 25 41  1  0  0  0  0
 27 42  1  0  0  0  0
 27 43  1  0  0  0  0
 27 44  1  0  0  0  0
M  CHG  2  15  -1  17  -1
M  END
$$$$
