##########                                Name: HTS1710-01935388-01
##########                    Molecular_Weight:              374.35
##########                DOCK_Rotatable_Bonds:                   9
##########                       Formal_Charge:                  -2
##########                     HBond_Acceptors:                   9
##########                        HBond_Donors:                   3
##########                         Heavy_Atoms:                  27
##########                          Grid_Score:          -81.060753
##########                     Grid_vdw_energy:          -42.435154
##########                      Grid_es_energy:          -38.625599
##########           Internal_energy_repulsive:           10.227322

@<TRIPOS>MOLECULE
HTS1710-01935388-01
 45 47 1 0 0
SMALL
USER_CHARGES


@<TRIPOS>ATOM
      1 C           4.3822   -9.0153  -30.6732 C.2     1  UNL1       -0.0555
      2 C           4.8462   -9.8652  -31.6614 C.2     1  UNL1       -0.1091
      3 C           5.5670   -7.8187  -32.9209 C.2     1  UNL1        0.0538
      4 C           5.0828   -7.0922  -31.8665 C.2     1  UNL1       -0.0306
      5 O           4.3843   -7.6488  -30.8265 O.co2   1  UNL1       -0.7688
      6 C           5.2967   -9.3227  -32.9874 C.3     1  UNL1        0.0284
      7 C           3.8652   -9.5489  -29.4061 C.2     1  UNL1        0.1708
      8 O           4.8914  -11.2411  -31.5421 O.co2   1  UNL1       -0.7839
      9 C           3.9281  -11.0070  -29.3243 C.2     1  UNL1       -0.0241
     10 C           6.3337   -7.2818  -34.1195 C.2     1  UNL1        0.3367
     11 C           4.4299  -11.7692  -30.3564 C.2     1  UNL1       -0.0886
     12 C           4.2712   -9.6407  -34.0769 C.ar    1  UNL1       -0.0336
     13 N           5.2579   -5.7319  -31.7586 N.pl3   1  UNL1       -0.3685
     14 O           3.4293   -8.8517  -28.5062 O.2     1  UNL1       -0.2886
     15 O           6.2036   -7.7460  -35.2423 O.2     1  UNL1       -0.2453
     16 N           2.3893  -10.2135  -36.1058 N.ar    1  UNL1       -0.2632
     17 O           7.1603   -6.2277  -33.8446 O.3     1  UNL1       -0.4590
     18 C           4.4834  -13.2683  -30.2269 C.3     1  UNL1        0.0566
     19 O           5.4032  -13.6562  -29.2127 O.3     1  UNL1       -0.3915
     20 O           7.0647   -3.2425  -32.5341 O.3     1  UNL1       -0.3796
     21 C           2.0298   -9.5352  -34.9978 C.ar    1  UNL1        0.0278
     22 C           3.6721  -10.6139  -36.2155 C.ar    1  UNL1        0.0278
     23 C           4.6422  -10.3506  -35.2327 C.ar    1  UNL1       -0.0395
     24 C           2.9286   -9.2297  -33.9620 C.ar    1  UNL1       -0.0395
     25 C           6.8410   -4.8951  -34.2990 C.3     1  UNL1        0.1160
     26 C           7.7802   -3.8725  -33.6121 C.3     1  UNL1        0.0815
     27 C           6.3596   -2.0515  -32.9168 C.3     1  UNL1        0.0366
     28 H           6.2193   -9.8041  -33.2364 H       1  UNL1        0.0437
     29 H           3.5877  -11.4776  -28.4714 H       1  UNL1        0.0647
     30 H           4.5387   -5.1708  -31.3883 H       1  UNL1        0.1413
     31 H           6.1026   -5.3196  -32.0516 H       1  UNL1        0.1413
     32 H           4.7925  -13.6901  -31.1605 H       1  UNL1        0.0596
     33 H           3.5101  -13.6242  -29.9610 H       1  UNL1        0.0596
     34 H           4.9385  -14.1709  -28.5345 H       1  UNL1        0.2098
     35 H           1.0495   -9.2261  -34.9062 H       1  UNL1        0.0829
     36 H           3.9546  -11.1373  -37.0589 H       1  UNL1        0.0829
     37 H           5.6142  -10.6742  -35.3578 H       1  UNL1        0.0636
     38 H           2.6098   -8.7114  -33.1285 H       1  UNL1        0.0636
     39 H           5.8252   -4.6681  -34.0509 H       1  UNL1        0.0721
     40 H           6.9716   -4.8406  -35.3596 H       1  UNL1        0.0721
     41 H           8.6415   -4.3768  -33.2266 H       1  UNL1        0.0593
     42 H           8.0973   -3.1353  -34.3198 H       1  UNL1        0.0593
     43 H           5.8563   -1.6454  -32.0643 H       1  UNL1        0.0524
     44 H           5.6425   -2.2894  -33.6745 H       1  UNL1        0.0524
     45 H           7.0545   -1.3321  -33.2968 H       1  UNL1        0.0524
@<TRIPOS>BOND
     1     1     2    2
     2     1     5    1
     3     1     7    1
     4     2     6    1
     5     2     8    1
     6     3     4    2
     7     3     6    1
     8     3    10    1
     9     4     5    1
    10     4    13    1
    11     6    12    1
    12     7     9    1
    13     7    14    2
    14     8    11    1
    15     9    11    2
    16    10    15    2
    17    10    17    1
    18    11    18    1
    19    12    23   ar
    20    12    24   ar
    21    16    21   ar
    22    16    22   ar
    23    17    25    1
    24    18    19    1
    25    20    26    1
    26    20    27    1
    27    21    24   ar
    28    22    23   ar
    29    25    26    1
    30     6    28    1
    31     9    29    1
    32    13    30    1
    33    13    31    1
    34    18    32    1
    35    18    33    1
    36    19    34    1
    37    21    35    1
    38    22    36    1
    39    23    37    1
    40    24    38    1
    41    25    39    1
    42    25    40    1
    43    26    41    1
    44    26    42    1
    45    27    43    1
    46    27    44    1
    47    27    45    1
@<TRIPOS>SUBSTRUCTURE
     1 UNL1        1 TEMP              0 ****  ****    0 ROOT


