##########                                Name: HTS1710-01341835-01
##########                    Molecular_Weight:             319.338
##########                DOCK_Rotatable_Bonds:                   6
##########                       Formal_Charge:                  -2
##########                     HBond_Acceptors:                   7
##########                        HBond_Donors:                   0
##########                         Heavy_Atoms:                  22
##########                          Grid_Score:          -74.996048
##########                     Grid_vdw_energy:          -34.770645
##########                      Grid_es_energy:          -40.225403
##########           Internal_energy_repulsive:            7.119449

@<TRIPOS>MOLECULE
HTS1710-01341835-01
 35 36 1 0 0
SMALL
USER_CHARGES


@<TRIPOS>ATOM
      1 C           3.5137  -11.3077  -32.9911 C.ar    1  UNL1        0.0195
      2 C           2.9497  -12.2280  -32.0743 C.ar    1  UNL1        0.0173
      3 S           5.0241  -10.4052  -32.6274 S.3     1  UNL1       -0.1149
      4 N           1.1440  -12.6880  -33.6202 N.ar    1  UNL1       -0.2518
      5 C           1.7513  -12.9013  -32.4338 C.ar    1  UNL1        0.0725
      6 C           4.4488   -8.7878  -31.9303 C.3     1  UNL1        0.0542
      7 C           5.4601   -7.6567  -32.2476 C.3     1  UNL1        0.0042
      8 C           4.2158   -8.9293  -30.4170 C.2     1  UNL1        0.0553
      9 C           2.8658  -11.1140  -34.2222 C.ar    1  UNL1       -0.0266
     10 C           4.9876   -6.2744  -31.7694 C.2     1  UNL1        0.0431
     11 C           1.6853  -11.8192  -34.4948 C.ar    1  UNL1        0.0400
     12 C           3.5482  -12.4800  -30.8194 C.ar    1  UNL1       -0.0097
     13 O           4.9155   -9.7216  -29.8080 O.co2   1  UNL1       -0.5487
     14 O           3.7883   -6.0568  -31.7738 O.co2   1  UNL1       -0.5498
     15 C           1.1860  -13.8130  -31.5236 C.ar    1  UNL1       -0.0322
     16 C           2.9664  -13.3986  -29.9220 C.ar    1  UNL1        0.1208
     17 O           3.3282   -8.2521  -29.9281 O.co2   1  UNL1       -0.5487
     18 O           5.8465   -5.4839  -31.4191 O.co2   1  UNL1       -0.5498
     19 C           1.7859  -14.0609  -30.2810 C.ar    1  UNL1       -0.0179
     20 O           3.5189  -13.6775  -28.6857 O.3     1  UNL1       -0.4951
     21 C           0.9518  -11.6218  -35.8129 C.3     1  UNL1       -0.0223
     22 C           3.7653  -15.0163  -28.2207 C.3     1  UNL1        0.0788
     23 H           3.5215   -8.5189  -32.3913 H       1  UNL1        0.0480
     24 H           5.6073   -7.6187  -33.3067 H       1  UNL1        0.0339
     25 H           6.3661   -7.8827  -31.7252 H       1  UNL1        0.0339
     26 H           3.2548  -10.4595  -34.9188 H       1  UNL1        0.0647
     27 H           4.4172  -11.9884  -30.5580 H       1  UNL1        0.0661
     28 H           0.3156  -14.3074  -31.7747 H       1  UNL1        0.0640
     29 H           1.3557  -14.7344  -29.6280 H       1  UNL1        0.0655
     30 H           0.0805  -12.2427  -35.8327 H       1  UNL1        0.0292
     31 H           1.5976  -11.8876  -36.6236 H       1  UNL1        0.0292
     32 H           0.6615  -10.5966  -35.9095 H       1  UNL1        0.0292
     33 H           4.1950  -14.9804  -27.2414 H       1  UNL1        0.0660
     34 H           4.4415  -15.5073  -28.8891 H       1  UNL1        0.0660
     35 H           2.8428  -15.5572  -28.1858 H       1  UNL1        0.0660
@<TRIPOS>BOND
     1     1     2   ar
     2     1     3    1
     3     4    11   ar
     4     2     5   ar
     5     3     6    1
     6     6     7    1
     7     6     8    1
     8     1     9   ar
     9     7    10    1
    10     9    11   ar
    11     2    12   ar
    12     8    13   ar
    13    10    14   ar
    14     5    15   ar
    15    12    16   ar
    16     8    17   ar
    17    10    18   ar
    18    16    19   ar
    19    16    20    1
    20    11    21    1
    21    20    22    1
    22     4     5   ar
    23    15    19   ar
    24     6    23    1
    25     7    24    1
    26     7    25    1
    27     9    26    1
    28    12    27    1
    29    15    28    1
    30    19    29    1
    31    21    30    1
    32    21    31    1
    33    21    32    1
    34    22    33    1
    35    22    34    1
    36    22    35    1
@<TRIPOS>SUBSTRUCTURE
     1 UNL1        1 TEMP              0 ****  ****    0 ROOT


