HTS1710-01266958-01
 OpenBabel03232612363D

 45 47  0  0  1  0  0  0  0  0999 V2000
    3.7816  -10.9403  -32.0784 C   0  0  0  0  0  0  0  0  0  0  0  0
    3.0486  -12.1522  -32.5385 C   0  0  0  0  0  0  0  0  0  0  0  0
    2.9024  -13.1524  -31.5736 N   0  0  0  0  0  0  0  0  0  0  0  0
    4.2626  -10.7829  -30.7836 C   0  0  0  0  0  0  0  0  0  0  0  0
    3.9748   -9.8093  -33.0971 C   0  0  2  0  0  0  0  0  0  0  0  0
    4.0520  -11.8585  -29.8576 C   0  0  0  0  0  0  0  0  0  0  0  0
    3.3943  -13.0009  -30.2697 C   0  0  0  0  0  0  0  0  0  0  0  0
    2.6448   -9.3889  -33.7469 C   0  0  0  0  0  0  0  0  0  0  0  0
    2.1949  -14.4048  -31.9721 C   0  0  0  0  0  0  0  0  0  0  0  0
    0.4292   -8.4646  -33.4898 C   0  0  0  0  0  0  0  0  0  0  0  0
    1.6434   -8.8429  -32.9097 C   0  0  0  0  0  0  0  0  0  0  0  0
    2.6023  -12.2646  -33.6702 O   0  0  0  0  0  0  0  0  0  0  0  0
    5.1293  -10.1292  -34.0927 C   0  0  0  0  0  0  0  0  0  0  0  0
    0.7327  -14.1120  -32.3329 C   0  0  0  0  0  0  0  0  0  0  0  0
    5.7253   -8.8614  -34.7155 C   0  0  0  0  0  0  0  0  0  0  0  0
    0.1913   -8.6078  -34.8265 C   0  0  0  0  0  0  0  0  0  0  0  0
   -0.6516   -7.9265  -32.8638 O   0  0  0  0  0  0  0  0  0  0  0  0
   -1.0588   -8.1705  -35.1423 O   0  0  0  0  0  0  0  0  0  0  0  0
   -1.6600   -7.7119  -33.8961 C   0  0  0  0  0  0  0  0  0  0  0  0
    2.3863   -9.5330  -35.1414 C   0  0  0  0  0  0  0  0  0  0  0  0
    0.0502  -13.5607  -31.4871 O   0  5  0  0  0  0  0  0  0  0  0  0
    5.5606   -8.5409  -35.8811 O   0  0  0  0  0  0  0  0  0  0  0  0
    4.9052   -9.6800  -30.3434 O   0  5  0  0  0  0  0  0  0  0  0  0
    1.1485   -9.1413  -35.6920 C   0  0  0  0  0  0  0  0  0  0  0  0
    0.3505  -14.4439  -33.4412 O   0  0  0  0  0  0  0  0  0  0  0  0
    6.4691   -8.1543  -33.8121 O   0  0  0  0  0  0  0  0  0  0  0  0
    3.2118  -14.0953  -29.2338 C   0  0  0  0  0  0  0  0  0  0  0  0
    6.8671   -6.8078  -34.1254 C   0  0  0  0  0  0  0  0  0  0  0  0
    4.3007   -8.9330  -32.5767 H   0  0  0  0  0  0  0  0  0  0  0  0
    4.3911  -11.7787  -28.8861 H   0  0  0  0  0  0  0  0  0  0  0  0
    2.2234  -15.0983  -31.1578 H   0  0  0  0  0  0  0  0  0  0  0  0
    2.6841  -14.8177  -32.8295 H   0  0  0  0  0  0  0  0  0  0  0  0
    1.8052   -8.7269  -31.8971 H   0  0  0  0  0  0  0  0  0  0  0  0
    4.7470  -10.7506  -34.8754 H   0  0  0  0  0  0  0  0  0  0  0  0
    5.9059  -10.6234  -33.5472 H   0  0  0  0  0  0  0  0  0  0  0  0
   -1.9092   -6.6734  -33.9629 H   0  0  0  0  0  0  0  0  0  0  0  0
   -2.5645   -8.2403  -33.6781 H   0  0  0  0  0  0  0  0  0  0  0  0
    3.1145   -9.9292  -35.7560 H   0  0  0  0  0  0  0  0  0  0  0  0
    0.9565   -9.2454  -36.7007 H   0  0  0  0  0  0  0  0  0  0  0  0
    3.6546  -13.7887  -28.3092 H   0  0  0  0  0  0  0  0  0  0  0  0
    3.6847  -14.9923  -29.5756 H   0  0  0  0  0  0  0  0  0  0  0  0
    2.1676  -14.2765  -29.0865 H   0  0  0  0  0  0  0  0  0  0  0  0
    7.4385   -6.4069  -33.3144 H   0  0  0  0  0  0  0  0  0  0  0  0
    5.9965   -6.2054  -34.2805 H   0  0  0  0  0  0  0  0  0  0  0  0
    7.4624   -6.8096  -35.0145 H   0  0  0  0  0  0  0  0  0  0  0  0
  1  2  1  0  0  0  0
  1  4  2  0  0  0  0
  1  5  1  0  0  0  0
  2  3  1  0  0  0  0
  2 12  2  0  0  0  0
  3  9  1  0  0  0  0
  3  7  1  0  0  0  0
  4  6  1  0  0  0  0
  4 23  1  0  0  0  0
  5  8  1  0  0  0  0
  5 13  1  0  0  0  0
  5 29  1  1  0  0  0
  6  7  2  0  0  0  0
  6 30  1  0  0  0  0
  7 27  1  0  0  0  0
  8 11  2  0  0  0  0
  8 20  1  0  0  0  0
  9 14  1  0  0  0  0
  9 31  1  0  0  0  0
  9 32  1  0  0  0  0
 10 11  1  0  0  0  0
 10 17  1  0  0  0  0
 10 16  2  0  0  0  0
 11 33  1  0  0  0  0
 13 15  1  0  0  0  0
 13 34  1  0  0  0  0
 13 35  1  0  0  0  0
 14 21  1  0  0  0  0
 14 25  2  0  0  0  0
 15 22  2  0  0  0  0
 15 26  1  0  0  0  0
 16 24  1  0  0  0  0
 16 18  1  0  0  0  0
 17 19  1  0  0  0  0
 18 19  1  0  0  0  0
 19 36  1  0  0  0  0
 19 37  1  0  0  0  0
 20 24  2  0  0  0  0
 20 38  1  0  0  0  0
 24 39  1  0  0  0  0
 26 28  1  0  0  0  0
 27 40  1  0  0  0  0
 27 41  1  0  0  0  0
 27 42  1  0  0  0  0
 28 43  1  0  0  0  0
 28 44  1  0  0  0  0
 28 45  1  0  0  0  0
M  CHG  2  21  -1  23  -1
M  END
$$$$
