HTS1710-01274791-01
 OpenBabel03232612353D

 27 28  0  0  0  0  0  0  0  0999 V2000
    1.6880   -8.9696  -35.3825 C   0  0  0  0  0  0  0  0  0  0  0  0
    1.1505   -9.1385  -34.0735 C   0  0  0  0  0  0  0  0  0  0  0  0
   -0.2679   -7.7039  -36.0679 N   0  0  0  0  0  0  0  0  0  0  0  0
   -0.1080   -8.5420  -33.8158 C   0  0  0  0  0  0  0  0  0  0  0  0
    3.0609   -9.4584  -35.7746 C   0  0  0  0  0  0  0  0  0  0  0  0
   -0.7893   -7.8336  -34.8279 C   0  0  0  0  0  0  0  0  0  0  0  0
    1.8202   -9.9339  -32.9958 C   0  0  0  0  0  0  0  0  0  0  0  0
    0.9317   -8.2537  -36.3319 C   0  0  0  0  0  0  0  0  0  0  0  0
   -2.1367   -7.1945  -34.5564 C   0  0  0  0  0  0  0  0  0  0  0  0
    4.2657   -9.3922  -30.0671 C   0  0  0  0  0  0  0  0  0  0  0  0
    2.6884   -9.3185  -32.0601 C   0  0  0  0  0  0  0  0  0  0  0  0
    3.3430  -10.0665  -31.0571 C   0  0  0  0  0  0  0  0  0  0  0  0
    3.4174   -9.2459  -36.9208 O   0  5  0  0  0  0  0  0  0  0  0  0
    3.9149   -9.3639  -28.9003 O   0  5  0  0  0  0  0  0  0  0  0  0
   -2.8662   -6.9791  -35.5105 O   0  5  0  0  0  0  0  0  0  0  0  0
    3.7345  -10.0060  -34.9182 O   0  0  0  0  0  0  0  0  0  0  0  0
   -2.4123   -6.9323  -33.3979 O   0  0  0  0  0  0  0  0  0  0  0  0
    5.3041   -8.9181  -30.4971 O   0  0  0  0  0  0  0  0  0  0  0  0
    1.6345  -11.3334  -32.9143 C   0  0  0  0  0  0  0  0  0  0  0  0
    3.1252  -11.4585  -30.9980 C   0  0  0  0  0  0  0  0  0  0  0  0
    2.2769  -12.0873  -31.9227 C   0  0  0  0  0  0  0  0  0  0  0  0
   -0.5309   -8.6264  -32.8781 H   0  0  0  0  0  0  0  0  0  0  0  0
    1.3193   -8.1449  -37.2822 H   0  0  0  0  0  0  0  0  0  0  0  0
    2.8461   -8.3000  -32.1131 H   0  0  0  0  0  0  0  0  0  0  0  0
    1.0180  -11.8057  -33.5938 H   0  0  0  0  0  0  0  0  0  0  0  0
    3.5933  -12.0194  -30.2691 H   0  0  0  0  0  0  0  0  0  0  0  0
    2.1259  -13.1070  -31.8724 H   0  0  0  0  0  0  0  0  0  0  0  0
  1  2  2  0  0  0  0
  1  5  1  0  0  0  0
  1  8  1  0  0  0  0
  2  4  1  0  0  0  0
  2  7  1  0  0  0  0
  3  8  2  0  0  0  0
  3  6  1  0  0  0  0
  4  6  2  0  0  0  0
  4 22  1  0  0  0  0
  5 13  1  0  0  0  0
  5 16  2  0  0  0  0
  6  9  1  0  0  0  0
  7 11  2  0  0  0  0
  7 19  1  0  0  0  0
  8 23  1  0  0  0  0
  9 15  1  0  0  0  0
  9 17  2  0  0  0  0
 10 12  1  0  0  0  0
 10 14  1  0  0  0  0
 10 18  2  0  0  0  0
 11 12  1  0  0  0  0
 11 24  1  0  0  0  0
 12 20  2  0  0  0  0
 19 21  2  0  0  0  0
 19 25  1  0  0  0  0
 20 21  1  0  0  0  0
 20 26  1  0  0  0  0
 21 27  1  0  0  0  0
M  CHG  3  13  -1  14  -1  15  -1
M  END
$$$$
