HTS1710-00617422-01
 OpenBabel03232612343D

 37 38  0  0  1  0  0  0  0  0999 V2000
    3.1344  -10.1156  -32.5335 C   0  0  2  0  0  0  0  0  0  0  0  0
    4.3243  -10.0799  -33.4232 N   0  0  0  0  0  0  0  0  0  0  0  0
    3.4933   -9.0745  -31.4697 C   0  0  0  0  0  0  0  0  0  0  0  0
    2.8607  -11.4987  -31.9475 C   0  0  0  0  0  0  0  0  0  0  0  0
    5.2585   -9.1530  -33.0013 C   0  0  0  0  0  0  0  0  0  0  0  0
    4.4749  -11.0022  -34.5654 C   0  0  0  0  0  0  0  0  0  0  0  0
    4.6869   -8.5385  -31.7962 C   0  0  0  0  0  0  0  0  0  0  0  0
    2.4948   -8.6868  -30.4237 C   0  0  0  0  0  0  0  0  0  0  0  0
    3.7794  -12.0739  -31.0510 C   0  0  0  0  0  0  0  0  0  0  0  0
    1.7007  -12.2083  -32.3055 C   0  0  0  0  0  0  0  0  0  0  0  0
    6.3298   -8.9043  -33.5286 O   0  0  0  0  0  0  0  0  0  0  0  0
    3.5083  -10.6851  -35.7299 C   0  0  0  0  0  0  0  0  0  0  0  0
    5.3449   -7.5460  -31.1533 O   0  5  0  0  0  0  0  0  0  0  0  0
    1.4582   -7.6319  -30.8197 C   0  0  0  0  0  0  0  0  0  0  0  0
    2.4168   -9.2708  -29.3557 O   0  0  0  0  0  0  0  0  0  0  0  0
    3.5475  -13.3581  -30.5111 C   0  0  0  0  0  0  0  0  0  0  0  0
    1.4617  -13.4828  -31.7723 C   0  0  0  0  0  0  0  0  0  0  0  0
    3.9650   -9.4819  -36.5636 C   0  0  0  0  0  0  0  0  0  0  0  0
    2.3788  -14.0579  -30.8799 C   0  0  0  0  0  0  0  0  0  0  0  0
    4.5279  -13.9708  -29.5650 N   0  0  0  0  0  0  0  0  0  0  0  0
    4.9672   -8.8968  -36.1918 O   0  5  0  0  0  0  0  0  0  0  0  0
    3.2921   -9.1866  -37.5349 O   0  0  0  0  0  0  0  0  0  0  0  0
    4.2853  -15.0911  -29.1231 O   0  0  0  0  0  0  0  0  0  0  0  0
    5.5368  -13.3316  -29.2784 O   0  5  0  0  0  0  0  0  0  0  0  0
    2.2203   -9.8999  -33.0461 H   0  0  0  0  0  0  0  0  0  0  0  0
    4.2845  -11.9990  -34.2261 H   0  0  0  0  0  0  0  0  0  0  0  0
    5.4717  -10.8904  -34.9376 H   0  0  0  0  0  0  0  0  0  0  0  0
    4.6300  -11.5531  -30.7857 H   0  0  0  0  0  0  0  0  0  0  0  0
    1.0236  -11.7900  -32.9625 H   0  0  0  0  0  0  0  0  0  0  0  0
    2.5408  -10.4739  -35.3245 H   0  0  0  0  0  0  0  0  0  0  0  0
    3.4877  -11.5381  -36.3756 H   0  0  0  0  0  0  0  0  0  0  0  0
    1.7000   -7.2389  -31.7850 H   0  0  0  0  0  0  0  0  0  0  0  0
    1.4629   -6.8395  -30.1006 H   0  0  0  0  0  0  0  0  0  0  0  0
    0.4870   -8.0801  -30.8501 H   0  0  0  0  0  0  0  0  0  0  0  0
    0.6085  -13.9995  -32.0370 H   0  0  0  0  0  0  0  0  0  0  0  0
    2.1980  -14.9968  -30.4915 H   0  0  0  0  0  0  0  0  0  0  0  0
    4.7542  -14.9238  -29.6644 H   0  0  0  0  0  0  0  0  0  0  0  0
  1  2  1  0  0  0  0
  1  3  1  0  0  0  0
  1  4  1  0  0  0  0
  1 25  1  6  0  0  0
  2  5  1  0  0  0  0
  2  6  1  0  0  0  0
  3  7  2  0  0  0  0
  3  8  1  0  0  0  0
  4  9  2  0  0  0  0
  4 10  1  0  0  0  0
  5 11  2  0  0  0  0
  5  7  1  0  0  0  0
  6 12  1  0  0  0  0
  6 26  1  0  0  0  0
  6 27  1  0  0  0  0
  7 13  1  0  0  0  0
  8 14  1  0  0  0  0
  8 15  2  0  0  0  0
  9 16  1  0  0  0  0
  9 28  1  0  0  0  0
 10 17  2  0  0  0  0
 10 29  1  0  0  0  0
 12 18  1  0  0  0  0
 12 30  1  0  0  0  0
 12 31  1  0  0  0  0
 14 32  1  0  0  0  0
 14 33  1  0  0  0  0
 14 34  1  0  0  0  0
 16 19  2  0  0  0  0
 16 20  1  0  0  0  0
 17 19  1  0  0  0  0
 17 35  1  0  0  0  0
 18 21  1  0  0  0  0
 18 22  2  0  0  0  0
 19 36  1  0  0  0  0
 20 23  2  0  0  0  0
 20 24  1  0  0  0  0
 20 37  1  0  0  0  0
M  CHG  3  13  -1  21  -1  24  -1
M  END
$$$$
