##########                                Name: HTS1710-01235197-01
##########                    Molecular_Weight:             340.292
##########                DOCK_Rotatable_Bonds:                   7
##########                       Formal_Charge:                  -2
##########                     HBond_Acceptors:                   8
##########                        HBond_Donors:                   3
##########                         Heavy_Atoms:                  25
##########                          Grid_Score:          -75.149979
##########                     Grid_vdw_energy:          -41.088680
##########                      Grid_es_energy:          -34.061295
##########           Internal_energy_repulsive:            5.516461

@<TRIPOS>MOLECULE
HTS1710-01235197-01
 37 38 1 0 0
SMALL
USER_CHARGES


@<TRIPOS>ATOM
      1 C           2.8014  -13.2006  -29.8999 C.3     1  UNL1        0.0873
      2 C           3.2288  -12.0099  -30.7868 C.2     1  UNL1        0.2247
      3 C           5.4951   -8.9470  -33.1486 C.ar    1  UNL1       -0.0003
      4 C           4.4006  -10.1209  -35.0103 C.ar    1  UNL1       -0.0003
      5 C           3.2287  -13.1143  -28.4231 C.2     1  UNL1        0.1719
      6 C           3.9927  -10.1841  -36.4664 C.2     1  UNL1        0.0717
      7 C           6.2744   -7.7620  -32.6204 C.2     1  UNL1        0.0717
      8 C           4.3905  -11.0969  -32.7687 C.ar    1  UNL1        0.0346
      9 C           5.1146   -9.0120  -34.5069 C.ar    1  UNL1       -0.0439
     10 N           3.9875  -12.1416  -31.9469 N.am    1  UNL1       -0.2851
     11 C           5.1354  -10.0041  -32.2886 C.ar    1  UNL1       -0.0316
     12 C           4.0582  -11.1660  -34.1297 C.ar    1  UNL1       -0.0316
     13 C           4.4864  -13.8198  -27.9888 C.ar    1  UNL1        0.0180
     14 O           2.9547  -10.8707  -30.4535 O.2     1  UNL1       -0.2750
     15 O           3.4443  -11.1998  -36.8557 O.co2   1  UNL1       -0.5446
     16 O           6.7707   -7.0060  -33.4367 O.co2   1  UNL1       -0.5446
     17 O           2.5505  -12.5015  -27.6163 O.2     1  UNL1       -0.2916
     18 C           4.5271  -15.2212  -27.8468 C.ar    1  UNL1       -0.0495
     19 C           5.6433  -13.0666  -27.7088 C.ar    1  UNL1       -0.0495
     20 O           6.3604   -7.6378  -31.4103 O.co2   1  UNL1       -0.5446
     21 O           4.2411   -9.2139  -37.1626 O.co2   1  UNL1       -0.5446
     22 C           6.8498  -15.0978  -27.1289 C.ar    1  UNL1        0.0246
     23 N           7.9995  -15.7210  -26.7036 N.pl3   1  UNL1       -0.3580
     24 C           6.8181  -13.7019  -27.2757 C.ar    1  UNL1       -0.0404
     25 C           5.7037  -15.8564  -27.4174 C.ar    1  UNL1       -0.0404
     26 H           3.2273  -14.0902  -30.3148 H       1  UNL1        0.0440
     27 H           1.7314  -13.1953  -29.8969 H       1  UNL1        0.0440
     28 H           5.3624   -8.2367  -35.1413 H       1  UNL1        0.0630
     29 H           4.2611  -13.0511  -32.2062 H       1  UNL1        0.1548
     30 H           5.4210   -9.9763  -31.2973 H       1  UNL1        0.0642
     31 H           3.5568  -11.9926  -34.4904 H       1  UNL1        0.0642
     32 H           3.6882  -15.7834  -28.0594 H       1  UNL1        0.0625
     33 H           5.6273  -12.0410  -27.8228 H       1  UNL1        0.0625
     34 H           8.8023  -15.1882  -26.5016 H       1  UNL1        0.1423
     35 H           8.0197  -16.7000  -26.6012 H       1  UNL1        0.1423
     36 H           7.6592  -13.1422  -27.0651 H       1  UNL1        0.0636
     37 H           5.7262  -16.8829  -27.3137 H       1  UNL1        0.0636
@<TRIPOS>BOND
     1     1     2    1
     2     3    11   ar
     3     4    12   ar
     4     1     5    1
     5     4     6    1
     6     3     7    1
     7     8    10    1
     8     4     9   ar
     9     2    10   am
    10     8    11   ar
    11     8    12   ar
    12     5    13    1
    13     2    14    2
    14     6    15   ar
    15     7    16   ar
    16     5    17    2
    17    13    18   ar
    18    13    19   ar
    19     7    20   ar
    20     6    21   ar
    21    22    24   ar
    22    22    23    1
    23    19    24   ar
    24    18    25   ar
    25    22    25   ar
    26     3     9   ar
    27     1    26    1
    28     1    27    1
    29     9    28    1
    30    10    29    1
    31    11    30    1
    32    12    31    1
    33    18    32    1
    34    19    33    1
    35    23    34    1
    36    23    35    1
    37    24    36    1
    38    25    37    1
@<TRIPOS>SUBSTRUCTURE
     1 UNL1        1 TEMP              0 ****  ****    0 ROOT


