##########                                Name: HTS1710-01130949-01
##########                    Molecular_Weight:             335.294
##########                DOCK_Rotatable_Bonds:                   6
##########                       Formal_Charge:                  -2
##########                     HBond_Acceptors:                   9
##########                        HBond_Donors:                   2
##########                         Heavy_Atoms:                  23
##########                          Grid_Score:          -74.779572
##########                     Grid_vdw_energy:          -37.920437
##########                      Grid_es_energy:          -36.859138
##########           Internal_energy_repulsive:           12.026443

@<TRIPOS>MOLECULE
HTS1710-01130949-01
 32 33 1 0 0
SMALL
USER_CHARGES


@<TRIPOS>ATOM
      1 S           4.8093  -11.6553  -35.2982 S.O2    1  UNL1        0.0724
      2 C           4.5171  -10.9957  -31.2471 C.ar    1  UNL1        0.0406
      3 N           3.2356  -11.3750  -35.8737 N.pl3   1  UNL1       -0.2156
      4 C           1.9096   -9.3605  -36.1639 C.ar    1  UNL1        0.0197
      5 C           4.5390  -11.9047  -33.5341 C.ar    1  UNL1        0.1093
      6 C           4.7214  -10.8356  -32.6398 C.ar    1  UNL1       -0.0227
      7 C           2.2485  -10.5196  -35.4187 C.ar    1  UNL1        0.0569
      8 C           4.7407   -9.7918  -30.3342 C.2     1  UNL1        0.0752
      9 C           2.6079   -8.9975  -37.4522 C.2     1  UNL1        0.0735
     10 O           5.2306  -12.9223  -35.9057 O.2     1  UNL1       -0.1500
     11 O           5.5103  -10.3817  -35.4887 O.2     1  UNL1       -0.1500
     12 C           4.1158  -12.2790  -30.7756 C.ar    1  UNL1        0.1258
     13 O           4.5501   -9.9551  -29.1403 O.co2   1  UNL1       -0.5445
     14 O           3.8173   -9.1453  -37.5064 O.co2   1  UNL1       -0.5446
     15 C           4.1355  -13.1574  -33.0510 C.ar    1  UNL1       -0.0316
     16 C           3.9290  -13.3391  -31.6790 C.ar    1  UNL1       -0.0177
     17 O           5.0957   -8.7358  -30.8281 O.co2   1  UNL1       -0.5445
     18 O           1.9109   -8.5612  -38.3521 O.co2   1  UNL1       -0.5446
     19 O           3.8965  -12.5352  -29.4493 O.3     1  UNL1       -0.5061
     20 C           0.8782   -8.5207  -35.6968 C.ar    1  UNL1       -0.0511
     21 C           1.5577  -10.8035  -34.2213 C.ar    1  UNL1       -0.0387
     22 C           0.1973   -8.8136  -34.5074 C.ar    1  UNL1       -0.0610
     23 C           0.5390   -9.9537  -33.7688 C.ar    1  UNL1       -0.0599
     24 H           2.9848  -11.9099  -36.6612 H       1  UNL1        0.1737
     25 H           5.0103   -9.9148  -33.0055 H       1  UNL1        0.0645
     26 H           3.9913  -13.9427  -33.7049 H       1  UNL1        0.0638
     27 H           3.6357  -14.2635  -31.3260 H       1  UNL1        0.0655
     28 H           3.5854  -13.3769  -29.1800 H       1  UNL1        0.2922
     29 H           0.6214   -7.6800  -36.2375 H       1  UNL1        0.0625
     30 H           1.8044  -11.6434  -33.6747 H       1  UNL1        0.0637
     31 H          -0.5552   -8.1898  -34.1760 H       1  UNL1        0.0618
     32 H           0.0405  -10.1680  -32.8910 H       1  UNL1        0.0618
@<TRIPOS>BOND
     1     2     6   ar
     2     1     3    1
     3     4     7   ar
     4     1     5    1
     5     5     6   ar
     6     3     7    1
     7     2     8    1
     8     4     9    1
     9     1    10    2
    10     1    11    2
    11    12    16   ar
    12     8    13   ar
    13     9    14   ar
    14     5    15   ar
    15    15    16   ar
    16     8    17   ar
    17     9    18   ar
    18    12    19    1
    19     4    20   ar
    20     7    21   ar
    21    22    23   ar
    22    21    23   ar
    23     2    12   ar
    24    20    22   ar
    25     3    24    1
    26     6    25    1
    27    15    26    1
    28    16    27    1
    29    19    28    1
    30    20    29    1
    31    21    30    1
    32    22    31    1
    33    23    32    1
@<TRIPOS>SUBSTRUCTURE
     1 UNL1        1 TEMP              0 ****  ****    0 ROOT


