HTS1710-00540225-01
 OpenBabel03232612353D

 44 43  0  0  0  0  0  0  0  0999 V2000
    3.2857  -11.2697  -35.5316 C   0  0  0  0  0  0  0  0  0  0  0  0
    3.9473  -10.0539  -35.4335 N   0  0  0  0  0  0  0  0  0  0  0  0
    1.7897  -11.2633  -35.8757 C   0  0  0  0  0  0  0  0  0  0  0  0
    3.9033  -12.3089  -35.3562 O   0  0  0  0  0  0  0  0  0  0  0  0
    5.3764   -9.9761  -35.1084 C   0  0  0  0  0  0  0  0  0  0  0  0
    0.8936  -10.7449  -34.7154 C   0  0  0  0  0  0  0  0  0  0  0  0
    5.7633   -8.5694  -34.6464 C   0  0  0  0  0  0  0  0  0  0  0  0
    1.1907  -11.4318  -33.3547 C   0  0  0  0  0  0  0  0  0  0  0  0
    6.0503   -7.7608  -35.5118 O   0  5  0  0  0  0  0  0  0  0  0  0
    5.7627   -8.3545  -33.4471 O   0  0  0  0  0  0  0  0  0  0  0  0
    1.1013  -12.9824  -33.4170 C   0  0  0  0  0  0  0  0  0  0  0  0
    1.0244  -13.6436  -32.0188 C   0  0  0  0  0  0  0  0  0  0  0  0
    2.0869  -13.0765  -31.0434 C   0  0  0  0  0  0  0  0  0  0  0  0
    2.2737  -13.9636  -29.7887 C   0  0  0  0  0  0  0  0  0  0  0  0
    3.2759  -13.3750  -28.7622 C   0  0  0  0  0  0  0  0  0  0  0  0
    3.0367  -11.8863  -28.4780 C   0  0  0  0  0  0  0  0  0  0  0  0
    3.6273  -10.9506  -29.3154 N   0  0  0  0  0  0  0  0  0  0  0  0
    2.3290  -11.5204  -27.5547 O   0  0  0  0  0  0  0  0  0  0  0  0
    3.4655   -9.5022  -29.1362 C   0  0  0  0  0  0  0  0  0  0  0  0
    4.3405   -8.6953  -30.1097 C   0  0  0  0  0  0  0  0  0  0  0  0
    5.4426   -9.1537  -30.3563 O   0  5  0  0  0  0  0  0  0  0  0  0
    3.8880   -7.6620  -30.5755 O   0  0  0  0  0  0  0  0  0  0  0  0
    3.4446   -9.2214  -35.5861 H   0  0  0  0  0  0  0  0  0  0  0  0
    1.4919  -12.2629  -36.1142 H   0  0  0  0  0  0  0  0  0  0  0  0
    1.6573  -10.5952  -36.7010 H   0  0  0  0  0  0  0  0  0  0  0  0
    5.9464  -10.2266  -35.9787 H   0  0  0  0  0  0  0  0  0  0  0  0
    5.5807  -10.6620  -34.3131 H   0  0  0  0  0  0  0  0  0  0  0  0
   -0.1298  -10.9251  -34.9703 H   0  0  0  0  0  0  0  0  0  0  0  0
    1.1023   -9.7022  -34.5959 H   0  0  0  0  0  0  0  0  0  0  0  0
    0.4822  -11.0794  -32.6344 H   0  0  0  0  0  0  0  0  0  0  0  0
    2.1960  -11.1825  -33.0863 H   0  0  0  0  0  0  0  0  0  0  0  0
    1.9688  -13.3533  -33.9219 H   0  0  0  0  0  0  0  0  0  0  0  0
    0.1991  -13.2292  -33.9365 H   0  0  0  0  0  0  0  0  0  0  0  0
    1.1826  -14.6964  -32.1264 H   0  0  0  0  0  0  0  0  0  0  0  0
    0.0582  -13.4346  -31.6094 H   0  0  0  0  0  0  0  0  0  0  0  0
    1.7795  -12.1005  -30.7308 H   0  0  0  0  0  0  0  0  0  0  0  0
    3.0220  -13.0471  -31.5627 H   0  0  0  0  0  0  0  0  0  0  0  0
    2.6321  -14.9221  -30.1013 H   0  0  0  0  0  0  0  0  0  0  0  0
    1.3230  -14.0264  -29.3018 H   0  0  0  0  0  0  0  0  0  0  0  0
    4.2674  -13.4939  -29.1466 H   0  0  0  0  0  0  0  0  0  0  0  0
    3.1389  -13.9029  -27.8417 H   0  0  0  0  0  0  0  0  0  0  0  0
    4.1800  -11.2726  -30.0639 H   0  0  0  0  0  0  0  0  0  0  0  0
    3.7391   -9.2463  -28.1339 H   0  0  0  0  0  0  0  0  0  0  0  0
    2.4427   -9.2587  -29.3348 H   0  0  0  0  0  0  0  0  0  0  0  0
  1  2  1  0  0  0  0
  1  3  1  0  0  0  0
  1  4  2  0  0  0  0
  2  5  1  0  0  0  0
  2 23  1  0  0  0  0
  3  6  1  0  0  0  0
  3 24  1  0  0  0  0
  3 25  1  0  0  0  0
  5  7  1  0  0  0  0
  5 26  1  0  0  0  0
  5 27  1  0  0  0  0
  6  8  1  0  0  0  0
  6 28  1  0  0  0  0
  6 29  1  0  0  0  0
  7  9  1  0  0  0  0
  7 10  2  0  0  0  0
  8 11  1  0  0  0  0
  8 30  1  0  0  0  0
  8 31  1  0  0  0  0
 11 12  1  0  0  0  0
 11 32  1  0  0  0  0
 11 33  1  0  0  0  0
 12 13  1  0  0  0  0
 12 34  1  0  0  0  0
 12 35  1  0  0  0  0
 13 14  1  0  0  0  0
 13 36  1  0  0  0  0
 13 37  1  0  0  0  0
 14 15  1  0  0  0  0
 14 38  1  0  0  0  0
 14 39  1  0  0  0  0
 15 16  1  0  0  0  0
 15 40  1  0  0  0  0
 15 41  1  0  0  0  0
 16 17  1  0  0  0  0
 16 18  2  0  0  0  0
 17 19  1  0  0  0  0
 17 42  1  0  0  0  0
 19 20  1  0  0  0  0
 19 43  1  0  0  0  0
 19 44  1  0  0  0  0
 20 21  1  0  0  0  0
 20 22  2  0  0  0  0
M  CHG  2   9  -1  21  -1
M  END
$$$$
