HTS1710-04853524-01
 OpenBabel03232612353D

 37 39  0  0  1  0  0  0  0  0999 V2000
    2.8636  -10.3815  -30.7667 C   0  0  0  0  0  0  0  0  0  0  0  0
    2.8881  -11.4658  -29.6506 C   0  0  1  0  0  0  0  0  0  0  0  0
    3.1542  -13.8045  -29.5272 N   0  0  0  0  0  0  0  0  0  0  0  0
    3.1852   -9.0475  -30.5837 C   0  0  0  0  0  0  0  0  0  0  0  0
    4.1878  -13.2928  -28.9497 C   0  0  0  0  0  0  0  0  0  0  0  0
    2.4066  -12.7939  -30.0381 N   0  0  0  0  0  0  0  0  0  0  0  0
    2.4873  -10.9568  -32.1282 C   0  0  0  0  0  0  0  0  0  0  0  0
    4.2656  -11.7792  -29.0302 C   0  0  0  0  0  0  0  0  0  0  0  0
    3.2077   -7.8842  -31.5653 C   0  0  0  0  0  0  0  0  0  0  0  0
    5.2339  -14.1105  -28.2708 C   0  0  0  0  0  0  0  0  0  0  0  0
    3.4652  -10.9123  -33.2764 C   0  0  0  0  0  0  0  0  0  0  0  0
    6.3515  -13.4637  -27.8660 N   0  0  0  0  0  0  0  0  0  0  0  0
    4.7385  -10.5370  -33.0137 N   0  0  0  0  0  0  0  0  0  0  0  0
    1.4017  -11.4772  -32.3272 O   0  0  0  0  0  0  0  0  0  0  0  0
    3.9061   -6.9236  -31.2818 O   0  5  0  0  0  0  0  0  0  0  0  0
    3.5927   -8.6507  -29.3484 O   0  5  0  0  0  0  0  0  0  0  0  0
    2.5513   -7.9480  -32.5838 O   0  0  0  0  0  0  0  0  0  0  0  0
    5.6263  -10.5054  -34.0272 C   0  0  0  0  0  0  0  0  0  0  0  0
    7.3220  -14.1654  -27.2465 C   0  0  0  0  0  0  0  0  0  0  0  0
    5.0611  -15.4974  -28.0618 C   0  0  0  0  0  0  0  0  0  0  0  0
    3.0523  -11.3019  -34.5670 C   0  0  0  0  0  0  0  0  0  0  0  0
    7.2268  -15.5448  -26.9989 C   0  0  0  0  0  0  0  0  0  0  0  0
    5.2924  -10.8601  -35.3453 C   0  0  0  0  0  0  0  0  0  0  0  0
    6.0727  -16.2237  -27.4158 C   0  0  0  0  0  0  0  0  0  0  0  0
    3.9790  -11.2709  -35.6199 C   0  0  0  0  0  0  0  0  0  0  0  0
    2.2350  -10.9739  -28.9603 H   0  0  0  0  0  0  0  0  0  0  0  0
    1.6196  -12.9387  -30.6117 H   0  0  0  0  0  0  0  0  0  0  0  0
    5.0669  -11.4569  -29.6618 H   0  0  0  0  0  0  0  0  0  0  0  0
    4.4592  -11.2902  -28.0984 H   0  0  0  0  0  0  0  0  0  0  0  0
    6.5937  -10.2076  -33.8264 H   0  0  0  0  0  0  0  0  0  0  0  0
    8.1724  -13.6669  -26.9407 H   0  0  0  0  0  0  0  0  0  0  0  0
    4.2010  -15.9703  -28.3805 H   0  0  0  0  0  0  0  0  0  0  0  0
    2.0807  -11.6061  -34.7350 H   0  0  0  0  0  0  0  0  0  0  0  0
    7.9902  -16.0481  -26.5203 H   0  0  0  0  0  0  0  0  0  0  0  0
    5.9990  -10.8193  -36.0963 H   0  0  0  0  0  0  0  0  0  0  0  0
    5.9696  -17.2372  -27.2508 H   0  0  0  0  0  0  0  0  0  0  0  0
    3.7009  -11.5441  -36.5754 H   0  0  0  0  0  0  0  0  0  0  0  0
  1  2  1  0  0  0  0
  1  4  2  0  0  0  0
  1  7  1  0  0  0  0
  2  6  1  0  0  0  0
  2  8  1  0  0  0  0
  2 26  1  1  0  0  0
  3  6  1  0  0  0  0
  3  5  2  0  0  0  0
  4  9  1  0  0  0  0
  4 16  1  0  0  0  0
  5  8  1  0  0  0  0
  5 10  1  0  0  0  0
  6 27  1  0  0  0  0
  7 11  1  0  0  0  0
  7 14  2  0  0  0  0
  8 28  1  0  0  0  0
  8 29  1  0  0  0  0
  9 15  1  0  0  0  0
  9 17  2  0  0  0  0
 10 12  2  0  0  0  0
 10 20  1  0  0  0  0
 11 13  2  0  0  0  0
 11 21  1  0  0  0  0
 12 19  1  0  0  0  0
 13 18  1  0  0  0  0
 18 23  2  0  0  0  0
 18 30  1  0  0  0  0
 19 22  2  0  0  0  0
 19 31  1  0  0  0  0
 20 24  2  0  0  0  0
 20 32  1  0  0  0  0
 21 25  2  0  0  0  0
 21 33  1  0  0  0  0
 22 24  1  0  0  0  0
 22 34  1  0  0  0  0
 23 25  1  0  0  0  0
 23 35  1  0  0  0  0
 24 36  1  0  0  0  0
 25 37  1  0  0  0  0
M  CHG  2  15  -1  16  -1
M  END
$$$$
