HTS1710-05221343-01
 OpenBabel03232612353D

 40 41  0  0  0  0  0  0  0  0999 V2000
    2.2624  -15.1506  -28.8217 C   0  0  0  0  0  0  0  0  0  0  0  0
    1.7925  -13.7920  -28.8604 O   0  0  0  0  0  0  0  0  0  0  0  0
    2.5264  -12.7479  -29.3960 C   0  0  0  0  0  0  0  0  0  0  0  0
    3.2387  -11.8518  -28.5726 C   0  0  0  0  0  0  0  0  0  0  0  0
    3.9675  -10.7957  -29.1404 C   0  0  0  0  0  0  0  0  0  0  0  0
    4.0024  -10.6126  -30.5340 C   0  0  0  0  0  0  0  0  0  0  0  0
    4.7694   -9.4669  -31.0969 C   0  0  0  0  0  0  0  0  0  0  0  0
    5.0818   -9.2004  -32.3908 C   0  0  0  0  0  0  0  0  0  0  0  0
    5.8572   -8.0297  -32.8939 C   0  0  0  0  0  0  0  0  0  0  0  0
    5.9934   -7.9362  -34.1012 O   0  5  0  0  0  0  0  0  0  0  0  0
    6.3028   -7.2470  -32.0729 O   0  0  0  0  0  0  0  0  0  0  0  0
    3.3001  -11.5159  -31.3566 C   0  0  0  0  0  0  0  0  0  0  0  0
    2.5653  -12.5809  -30.7981 C   0  0  0  0  0  0  0  0  0  0  0  0
    1.6530  -13.6923  -31.8961 S   0  0  0  0  0  0  0  0  0  0  0  0
    0.4817  -14.2146  -31.1862 O   0  0  0  0  0  0  0  0  0  0  0  0
    2.6302  -14.5448  -32.5805 O   0  0  0  0  0  0  0  0  0  0  0  0
    1.0525  -12.6837  -33.1282 N   0  0  0  0  0  0  0  0  0  0  0  0
    1.7444  -11.9312  -34.0543 C   0  0  0  0  0  0  0  0  0  0  0  0
    1.2516  -10.6703  -34.4161 C   0  0  0  0  0  0  0  0  0  0  0  0
    1.9384   -9.8814  -35.3504 C   0  0  0  0  0  0  0  0  0  0  0  0
    3.1370  -10.3293  -35.9561 C   0  0  0  0  0  0  0  0  0  0  0  0
    3.8319   -9.4181  -36.9653 C   0  0  0  0  0  0  0  0  0  0  0  0
    3.3180   -9.3138  -38.0657 O   0  5  0  0  0  0  0  0  0  0  0  0
    4.8541   -8.8437  -36.6330 O   0  0  0  0  0  0  0  0  0  0  0  0
    3.6274  -11.6147  -35.5833 C   0  0  0  0  0  0  0  0  0  0  0  0
    4.7743  -12.1398  -36.1128 O   0  0  0  0  0  0  0  0  0  0  0  0
    2.9334  -12.3960  -34.6431 C   0  0  0  0  0  0  0  0  0  0  0  0
    1.5214  -15.7713  -28.3626 H   0  0  0  0  0  0  0  0  0  0  0  0
    3.1688  -15.1985  -28.2551 H   0  0  0  0  0  0  0  0  0  0  0  0
    2.4464  -15.4929  -29.8186 H   0  0  0  0  0  0  0  0  0  0  0  0
    3.2239  -11.9733  -27.5479 H   0  0  0  0  0  0  0  0  0  0  0  0
    4.4842  -10.1455  -28.5277 H   0  0  0  0  0  0  0  0  0  0  0  0
    5.1110   -8.7795  -30.4070 H   0  0  0  0  0  0  0  0  0  0  0  0
    4.7496   -9.8755  -33.0972 H   0  0  0  0  0  0  0  0  0  0  0  0
    3.3242  -11.3959  -32.3813 H   0  0  0  0  0  0  0  0  0  0  0  0
    0.0713  -12.6295  -33.1887 H   0  0  0  0  0  0  0  0  0  0  0  0
    0.3781  -10.3201  -33.9925 H   0  0  0  0  0  0  0  0  0  0  0  0
    1.5618   -8.9541  -35.6019 H   0  0  0  0  0  0  0  0  0  0  0  0
    4.7720  -12.4884  -36.9825 H   0  0  0  0  0  0  0  0  0  0  0  0
    3.3019  -13.3238  -34.3814 H   0  0  0  0  0  0  0  0  0  0  0  0
  1  2  1  0  0  0  0
  1 28  1  0  0  0  0
  1 29  1  0  0  0  0
  1 30  1  0  0  0  0
  2  3  1  0  0  0  0
  3  4  2  0  0  0  0
  3 13  1  0  0  0  0
  4  5  1  0  0  0  0
  4 31  1  0  0  0  0
  5  6  2  0  0  0  0
  5 32  1  0  0  0  0
  6  7  1  0  0  0  0
  6 12  1  0  0  0  0
  7  8  2  0  0  0  0
  7 33  1  0  0  0  0
  8  9  1  0  0  0  0
  8 34  1  0  0  0  0
  9 10  1  0  0  0  0
  9 11  2  0  0  0  0
 12 13  2  0  0  0  0
 12 35  1  0  0  0  0
 13 14  1  0  0  0  0
 14 15  2  0  0  0  0
 14 16  2  0  0  0  0
 14 17  1  0  0  0  0
 17 18  1  0  0  0  0
 17 36  1  0  0  0  0
 18 19  2  0  0  0  0
 18 27  1  0  0  0  0
 19 20  1  0  0  0  0
 19 37  1  0  0  0  0
 20 21  2  0  0  0  0
 20 38  1  0  0  0  0
 21 22  1  0  0  0  0
 21 25  1  0  0  0  0
 22 23  1  0  0  0  0
 22 24  2  0  0  0  0
 25 26  1  0  0  0  0
 25 27  2  0  0  0  0
 26 39  1  0  0  0  0
 27 40  1  0  0  0  0
M  CHG  2  10  -1  23  -1
M  END
$$$$
