HTS1710-01161280-01
 OpenBabel03232612363D

 34 35  0  0  1  0  0  0  0  0999 V2000
    2.6716  -10.3550  -31.7844 N   0  0  0  0  0  0  0  0  0  0  0  0
    1.9434  -10.7556  -32.8969 C   0  0  0  0  0  0  0  0  0  0  0  0
    2.8876  -11.3680  -30.8469 C   0  0  0  0  0  0  0  0  0  0  0  0
    2.3092  -12.6450  -31.3434 C   0  0  0  0  0  0  0  0  0  0  0  0
    1.4274  -12.4619  -32.8448 S   0  0  0  0  0  0  0  0  0  0  0  0
    2.3330  -13.8850  -30.7358 C   0  0  0  0  0  0  0  0  0  0  0  0
    3.1947   -8.9698  -31.6236 C   0  0  2  0  0  0  0  0  0  0  0  0
    2.9991  -14.2763  -29.4856 C   0  0  0  0  0  0  0  0  0  0  0  0
    4.3052  -13.8643  -29.3489 O   0  0  0  0  0  0  0  0  0  0  0  0
    4.7140   -8.9922  -31.3330 C   0  0  0  0  0  0  0  0  0  0  0  0
    1.5504   -9.7829  -34.2049 S   0  0  0  0  0  0  0  0  0  0  0  0
    2.5182  -14.9140  -28.3605 C   0  0  0  0  0  0  0  0  0  0  0  0
    4.6174  -14.3313  -28.1039 C   0  0  0  0  0  0  0  0  0  0  0  0
    2.3526   -8.1462  -30.6032 C   0  0  0  0  0  0  0  0  0  0  0  0
    3.6001  -14.9632  -27.4486 C   0  0  0  0  0  0  0  0  0  0  0  0
    3.4069  -11.1868  -29.7613 O   0  0  0  0  0  0  0  0  0  0  0  0
    2.6954   -5.7108  -31.4626 C   0  0  0  0  0  0  0  0  0  0  0  0
    5.1022   -8.6110  -30.2417 O   0  5  0  0  0  0  0  0  0  0  0  0
    3.8425   -5.8268  -31.0641 O   0  5  0  0  0  0  0  0  0  0  0  0
    1.7151   -6.8744  -31.2300 C   0  0  0  0  0  0  0  0  0  0  0  0
    5.4362   -9.3886  -32.2319 O   0  0  0  0  0  0  0  0  0  0  0  0
    2.2492   -4.7338  -32.0373 O   0  0  0  0  0  0  0  0  0  0  0  0
    5.9899  -14.1063  -27.5319 C   0  0  0  0  0  0  0  0  0  0  0  0
    1.8161  -14.6338  -31.2228 H   0  0  0  0  0  0  0  0  0  0  0  0
    3.0807   -8.4456  -32.5494 H   0  0  0  0  0  0  0  0  0  0  0  0
    1.5646  -15.2803  -28.2137 H   0  0  0  0  0  0  0  0  0  0  0  0
    2.9901   -7.8467  -29.7977 H   0  0  0  0  0  0  0  0  0  0  0  0
    1.5533   -8.7732  -30.2672 H   0  0  0  0  0  0  0  0  0  0  0  0
    3.6160  -15.3810  -26.5051 H   0  0  0  0  0  0  0  0  0  0  0  0
    1.2898   -7.1454  -32.1736 H   0  0  0  0  0  0  0  0  0  0  0  0
    0.9899   -6.5222  -30.5265 H   0  0  0  0  0  0  0  0  0  0  0  0
    6.5944  -13.5899  -28.2480 H   0  0  0  0  0  0  0  0  0  0  0  0
    6.4387  -15.0495  -27.3001 H   0  0  0  0  0  0  0  0  0  0  0  0
    5.9130  -13.5193  -26.6405 H   0  0  0  0  0  0  0  0  0  0  0  0
  1  2  1  0  0  0  0
  1  3  1  0  0  0  0
  1  7  1  0  0  0  0
  2  5  1  0  0  0  0
  2 11  2  0  0  0  0
  3  4  1  0  0  0  0
  3 16  2  0  0  0  0
  4  6  2  0  0  0  0
  4  5  1  0  0  0  0
  6  8  1  0  0  0  0
  6 24  1  0  0  0  0
  7 10  1  0  0  0  0
  7 14  1  0  0  0  0
  7 25  1  6  0  0  0
  8  9  1  0  0  0  0
  8 12  2  0  0  0  0
  9 13  1  0  0  0  0
 10 18  1  0  0  0  0
 10 21  2  0  0  0  0
 12 15  1  0  0  0  0
 12 26  1  0  0  0  0
 13 23  1  0  0  0  0
 13 15  2  0  0  0  0
 14 20  1  0  0  0  0
 14 27  1  0  0  0  0
 14 28  1  0  0  0  0
 15 29  1  0  0  0  0
 17 20  1  0  0  0  0
 17 19  1  0  0  0  0
 17 22  2  0  0  0  0
 20 30  1  0  0  0  0
 20 31  1  0  0  0  0
 23 32  1  0  0  0  0
 23 33  1  0  0  0  0
 23 34  1  0  0  0  0
M  CHG  2  18  -1  19  -1
M  END
$$$$
