##########                                Name: HTS1710-01267139-01
##########                    Molecular_Weight:             401.373
##########                DOCK_Rotatable_Bonds:                   9
##########                       Formal_Charge:                  -2
##########                     HBond_Acceptors:                   9
##########                        HBond_Donors:                   3
##########                         Heavy_Atoms:                  29
##########                          Grid_Score:          -76.885445
##########                     Grid_vdw_energy:          -42.529984
##########                      Grid_es_energy:          -34.355461
##########           Internal_energy_repulsive:            9.073189

@<TRIPOS>MOLECULE
HTS1710-01267139-01
 48 50 1 0 0
SMALL
USER_CHARGES


@<TRIPOS>ATOM
      1 C           2.3699   -9.3153  -33.4273 C.2     1  UNL1       -0.0631
      2 C           3.5377  -11.0256  -32.0345 C.2     1  UNL1       -0.0072
      3 C           1.2812   -9.3299  -34.2872 C.2     1  UNL1        0.1533
      4 C           3.4001  -10.4312  -33.4334 C.3     1  UNL1        0.0104
      5 C           2.5805  -12.0768  -31.6359 C.2     1  UNL1        0.1882
      6 C           2.7773  -12.5962  -30.2453 C.ar    1  UNL1        0.0187
      7 C           0.2831   -8.2499  -34.2847 C.2     1  UNL1        0.2184
      8 C           4.5023  -10.5595  -31.1598 C.2     1  UNL1       -0.1263
      9 O           2.6027   -8.3034  -32.5148 O.co2   1  UNL1       -0.7815
     10 C           0.5760   -7.2121  -33.2974 C.2     1  UNL1       -0.0198
     11 O           4.6396  -11.0609  -29.8897 O.co2   1  UNL1       -0.7845
     12 C           1.6807   -7.2800  -32.4761 C.2     1  UNL1       -0.0881
     13 C           3.8018  -12.0626  -29.4382 C.ar    1  UNL1       -0.0832
     14 C           4.7421   -9.9259  -34.0339 C.3     1  UNL1        0.0337
     15 C           4.8023  -10.1174  -35.5533 C.2     1  UNL1        0.2113
     16 C           1.9469  -13.6154  -29.7345 C.ar    1  UNL1       -0.0097
     17 O           1.6948  -12.4942  -32.3633 O.2     1  UNL1       -0.2870
     18 O          -0.6887   -8.2111  -35.0207 O.2     1  UNL1       -0.2841
     19 O           4.6053   -9.2004  -36.3317 O.2     1  UNL1       -0.2760
     20 O           1.0299  -10.3004  -35.1947 O.2     1  UNL1       -0.5038
     21 C           3.9922  -12.5491  -28.1349 C.ar    1  UNL1       -0.0644
     22 N           5.1018  -11.3627  -36.0675 N.am    1  UNL1       -0.3293
     23 C           2.1424  -14.1025  -28.4240 C.ar    1  UNL1        0.1207
     24 C           3.1669  -13.5638  -27.6299 C.ar    1  UNL1       -0.0204
     25 C           1.9390   -6.1858  -31.4719 C.3     1  UNL1        0.0597
     26 O           1.3563  -15.1024  -27.8825 O.3     1  UNL1       -0.4951
     27 O           2.9073   -5.2677  -32.0102 O.3     1  UNL1       -0.3795
     28 C           1.3702  -15.4409  -26.4852 C.3     1  UNL1        0.0788
     29 C           2.9468   -3.9979  -31.3409 C.3     1  UNL1        0.0368
     30 H           3.0732  -11.2279  -34.0685 H       1  UNL1        0.0392
     31 H           5.1395   -9.8103  -31.4723 H       1  UNL1        0.0459
     32 H          -0.0626   -6.4058  -33.2129 H       1  UNL1        0.0649
     33 H           5.5471  -10.4696  -33.5855 H       1  UNL1        0.0367
     34 H           4.8203   -8.8782  -33.8305 H       1  UNL1        0.0367
     35 H           1.1933  -14.0067  -30.3212 H       1  UNL1        0.0661
     36 H           1.2670  -11.1878  -35.0095 H       1  UNL1        0.2923
     37 H           4.7435  -12.1577  -27.5455 H       1  UNL1        0.0613
     38 H           5.1428  -11.4961  -37.0421 H       1  UNL1        0.1449
     39 H           5.2744  -12.1177  -35.4597 H       1  UNL1        0.1449
     40 H           3.3131  -13.9160  -26.6709 H       1  UNL1        0.0654
     41 H           2.3160   -6.6130  -30.5662 H       1  UNL1        0.0598
     42 H           1.0272   -5.6657  -31.2647 H       1  UNL1        0.0598
     43 H           0.6829  -16.2410  -26.3052 H       1  UNL1        0.0660
     44 H           1.0824  -14.5869  -25.9084 H       1  UNL1        0.0660
     45 H           2.3557  -15.7468  -26.2021 H       1  UNL1        0.0660
     46 H           3.6879   -3.3764  -31.7986 H       1  UNL1        0.0524
     47 H           3.1923   -4.1456  -30.3100 H       1  UNL1        0.0524
     48 H           1.9897   -3.5255  -31.4155 H       1  UNL1        0.0524
@<TRIPOS>BOND
     1     2     4    1
     2     1     3    2
     3     1     4    1
     4     2     5    1
     5     5     6    1
     6     3     7    1
     7     2     8    2
     8     1     9    1
     9    10    12    2
    10     8    11    1
    11     9    12    1
    12    11    13    1
    13     4    14    1
    14    14    15    1
    15     6    16   ar
    16     5    17    2
    17     7    18    2
    18    15    19    2
    19     3    20    1
    20    13    21   ar
    21    15    22   am
    22    16    23   ar
    23    21    24   ar
    24    12    25    1
    25    23    26    1
    26    25    27    1
    27    26    28    1
    28    27    29    1
    29     7    10    1
    30     6    13   ar
    31    23    24   ar
    32     4    30    1
    33     8    31    1
    34    10    32    1
    35    14    33    1
    36    14    34    1
    37    16    35    1
    38    20    36    1
    39    21    37    1
    40    22    38    1
    41    22    39    1
    42    24    40    1
    43    25    41    1
    44    25    42    1
    45    28    43    1
    46    28    44    1
    47    28    45    1
    48    29    46    1
    49    29    47    1
    50    29    48    1
@<TRIPOS>SUBSTRUCTURE
     1 UNL1        1 TEMP              0 ****  ****    0 ROOT


