HTS1710-00595660-01
 OpenBabel03232612363D

 37 38  0  0  0  0  0  0  0  0999 V2000
    3.5274  -13.0140  -29.7655 C   0  0  0  0  0  0  0  0  0  0  0  0
    2.6925  -13.1778  -30.8846 C   0  0  0  0  0  0  0  0  0  0  0  0
    3.8944  -11.7030  -29.3781 C   0  0  0  0  0  0  0  0  0  0  0  0
    3.9479  -14.1943  -29.1468 N   0  0  0  0  0  0  0  0  0  0  0  0
    2.2035  -12.0717  -31.6081 C   0  0  0  0  0  0  0  0  0  0  0  0
    3.4184  -10.5784  -30.0871 C   0  0  0  0  0  0  0  0  0  0  0  0
    4.7888  -14.3572  -28.0475 C   0  0  0  0  0  0  0  0  0  0  0  0
    2.5716  -10.7753  -31.1982 C   0  0  0  0  0  0  0  0  0  0  0  0
    1.3000  -12.2779  -32.8046 C   0  0  0  0  0  0  0  0  0  0  0  0
    3.8164   -9.1791  -29.6653 C   0  0  0  0  0  0  0  0  0  0  0  0
    5.0713  -15.7936  -27.5914 C   0  0  0  0  0  0  0  0  0  0  0  0
    5.2788  -13.4143  -27.4534 O   0  0  0  0  0  0  0  0  0  0  0  0
    0.6535  -13.3114  -32.8505 O   0  5  0  0  0  0  0  0  0  0  0  0
    1.2715  -11.3998  -33.6492 O   0  0  0  0  0  0  0  0  0  0  0  0
    3.6509   -8.8733  -28.4974 O   0  5  0  0  0  0  0  0  0  0  0  0
    4.2800   -8.4426  -30.5194 O   0  0  0  0  0  0  0  0  0  0  0  0
    6.3857  -15.8982  -27.0044 O   0  0  0  0  0  0  0  0  0  0  0  0
    6.7502  -16.8670  -26.0889 C   0  0  0  0  0  0  0  0  0  0  0  0
    5.7923  -17.8315  -25.7327 C   0  0  0  0  0  0  0  0  0  0  0  0
    8.0346  -16.9133  -25.5059 C   0  0  0  0  0  0  0  0  0  0  0  0
    6.1053  -18.8453  -24.8086 C   0  0  0  0  0  0  0  0  0  0  0  0
    8.3493  -17.9246  -24.5852 C   0  0  0  0  0  0  0  0  0  0  0  0
    7.3894  -18.8884  -24.2392 C   0  0  0  0  0  0  0  0  0  0  0  0
    5.0677  -19.8943  -24.4328 C   0  0  0  0  0  0  0  0  0  0  0  0
    2.4316  -14.1305  -31.1835 H   0  0  0  0  0  0  0  0  0  0  0  0
    4.5178  -11.5672  -28.5670 H   0  0  0  0  0  0  0  0  0  0  0  0
    3.6019  -15.0267  -29.5426 H   0  0  0  0  0  0  0  0  0  0  0  0
    2.2168   -9.9576  -31.7183 H   0  0  0  0  0  0  0  0  0  0  0  0
    5.0119  -16.4475  -28.4362 H   0  0  0  0  0  0  0  0  0  0  0  0
    4.3451  -16.0677  -26.8549 H   0  0  0  0  0  0  0  0  0  0  0  0
    4.8504  -17.7959  -26.1529 H   0  0  0  0  0  0  0  0  0  0  0  0
    8.7416  -16.2044  -25.7564 H   0  0  0  0  0  0  0  0  0  0  0  0
    9.2895  -17.9598  -24.1613 H   0  0  0  0  0  0  0  0  0  0  0  0
    7.6276  -19.6315  -23.5638 H   0  0  0  0  0  0  0  0  0  0  0  0
    4.1577  -19.7013  -24.9617 H   0  0  0  0  0  0  0  0  0  0  0  0
    4.8838  -19.8528  -23.3796 H   0  0  0  0  0  0  0  0  0  0  0  0
    5.4323  -20.8659  -24.6932 H   0  0  0  0  0  0  0  0  0  0  0  0
  1  2  2  0  0  0  0
  1  3  1  0  0  0  0
  1  4  1  0  0  0  0
  2  5  1  0  0  0  0
  2 25  1  0  0  0  0
  3  6  2  0  0  0  0
  3 26  1  0  0  0  0
  4  7  1  0  0  0  0
  4 27  1  0  0  0  0
  5  8  2  0  0  0  0
  5  9  1  0  0  0  0
  6 10  1  0  0  0  0
  6  8  1  0  0  0  0
  7 11  1  0  0  0  0
  7 12  2  0  0  0  0
  8 28  1  0  0  0  0
  9 13  1  0  0  0  0
  9 14  2  0  0  0  0
 10 15  1  0  0  0  0
 10 16  2  0  0  0  0
 11 17  1  0  0  0  0
 11 29  1  0  0  0  0
 11 30  1  0  0  0  0
 17 18  1  0  0  0  0
 18 19  2  0  0  0  0
 18 20  1  0  0  0  0
 19 21  1  0  0  0  0
 19 31  1  0  0  0  0
 20 22  2  0  0  0  0
 20 32  1  0  0  0  0
 21 23  2  0  0  0  0
 21 24  1  0  0  0  0
 22 23  1  0  0  0  0
 22 33  1  0  0  0  0
 23 34  1  0  0  0  0
 24 35  1  0  0  0  0
 24 36  1  0  0  0  0
 24 37  1  0  0  0  0
M  CHG  2  13  -1  15  -1
M  END
$$$$
