HTS1710-01275976-01
 OpenBabel03232612353D

 45 47  0  0  1  0  0  0  0  0999 V2000
    5.0104  -13.3943  -28.9322 C   0  0  0  0  0  0  0  0  0  0  0  0
    2.6038  -14.1729  -29.0261 C   0  0  0  0  0  0  0  0  0  0  0  0
    3.7819  -13.9822  -28.3603 C   0  0  0  0  0  0  0  0  0  0  0  0
    3.7539  -13.1764  -30.9950 C   0  0  0  0  0  0  0  0  0  0  0  0
    4.9013  -13.0271  -30.2439 O   0  0  0  0  0  0  0  0  0  0  0  0
    2.5963  -13.7424  -30.4245 C   0  0  0  0  0  0  0  0  0  0  0  0
    2.7713   -9.9902  -34.1793 C   0  0  0  0  0  0  0  0  0  0  0  0
    2.6546   -9.8924  -32.7996 N   0  0  0  0  0  0  0  0  0  0  0  0
    3.2639   -8.7978  -32.0282 C   0  0  1  0  0  0  0  0  0  0  0  0
    2.1446   -7.8537  -31.5147 C   0  0  0  0  0  0  0  0  0  0  0  0
    4.1152   -9.3751  -30.8812 C   0  0  0  0  0  0  0  0  0  0  0  0
    3.7517  -12.7532  -32.3340 C   0  0  0  0  0  0  0  0  0  0  0  0
    2.5805   -6.3826  -31.4707 C   0  0  0  0  0  0  0  0  0  0  0  0
    1.4391  -13.8837  -31.2126 C   0  0  0  0  0  0  0  0  0  0  0  0
    2.0879  -11.1836  -34.8728 C   0  0  2  0  0  0  0  0  0  0  0  0
    2.6414  -12.4430  -34.4269 O   0  0  0  0  0  0  0  0  0  0  0  0
    6.0401  -13.2445  -28.2977 O   0  0  0  0  0  0  0  0  0  0  0  0
    2.5941  -12.8873  -33.1176 C   0  0  0  0  0  0  0  0  0  0  0  0
    3.4216   -9.1614  -34.7950 O   0  0  0  0  0  0  0  0  0  0  0  0
    3.6016   -9.4154  -29.7767 O   0  5  0  0  0  0  0  0  0  0  0  0
    3.5983   -6.1179  -30.8535 O   0  5  0  0  0  0  0  0  0  0  0  0
    1.4346  -13.4613  -32.5519 C   0  0  0  0  0  0  0  0  0  0  0  0
    1.5520  -14.7919  -28.1562 C   0  0  0  0  0  0  0  0  0  0  0  0
    5.2550   -9.7225  -31.1417 O   0  0  0  0  0  0  0  0  0  0  0  0
    3.6948  -14.4463  -26.9359 C   0  0  0  0  0  0  0  0  0  0  0  0
    1.8656   -5.5725  -32.0361 O   0  0  0  0  0  0  0  0  0  0  0  0
    2.2297  -14.9303  -26.7677 C   0  0  0  0  0  0  0  0  0  0  0  0
    2.2761  -11.1140  -36.4032 C   0  0  0  0  0  0  0  0  0  0  0  0
    2.1440  -10.5829  -32.3182 H   0  0  0  0  0  0  0  0  0  0  0  0
    3.9199   -8.2234  -32.6485 H   0  0  0  0  0  0  0  0  0  0  0  0
    1.8675   -8.1578  -30.5270 H   0  0  0  0  0  0  0  0  0  0  0  0
    1.3239   -7.9260  -32.1975 H   0  0  0  0  0  0  0  0  0  0  0  0
    4.6047  -12.3418  -32.7441 H   0  0  0  0  0  0  0  0  0  0  0  0
    0.5882  -14.3004  -30.8036 H   0  0  0  0  0  0  0  0  0  0  0  0
    1.0502  -11.1278  -34.6180 H   0  0  0  0  0  0  0  0  0  0  0  0
    0.5824  -13.5706  -33.1236 H   0  0  0  0  0  0  0  0  0  0  0  0
    1.2646  -15.7508  -28.5342 H   0  0  0  0  0  0  0  0  0  0  0  0
    0.6588  -14.2043  -28.1165 H   0  0  0  0  0  0  0  0  0  0  0  0
    3.9057  -13.6414  -26.2633 H   0  0  0  0  0  0  0  0  0  0  0  0
    4.4033  -15.2178  -26.7176 H   0  0  0  0  0  0  0  0  0  0  0  0
    1.7215  -14.3240  -26.0473 H   0  0  0  0  0  0  0  0  0  0  0  0
    2.1961  -15.9425  -26.4223 H   0  0  0  0  0  0  0  0  0  0  0  0
    3.3186  -11.1711  -36.6374 H   0  0  0  0  0  0  0  0  0  0  0  0
    1.8783  -10.1908  -36.7699 H   0  0  0  0  0  0  0  0  0  0  0  0
    1.7618  -11.9317  -36.8634 H   0  0  0  0  0  0  0  0  0  0  0  0
  1  3  1  0  0  0  0
  1  5  1  0  0  0  0
  1 17  2  0  0  0  0
  2  3  2  0  0  0  0
  2 23  1  0  0  0  0
  2  6  1  0  0  0  0
  3 25  1  0  0  0  0
  4  5  1  0  0  0  0
  4  6  2  0  0  0  0
  4 12  1  0  0  0  0
  6 14  1  0  0  0  0
  7 15  1  0  0  0  0
  7  8  1  0  0  0  0
  7 19  2  0  0  0  0
  8  9  1  0  0  0  0
  8 29  1  0  0  0  0
  9 10  1  0  0  0  0
  9 11  1  0  0  0  0
  9 30  1  6  0  0  0
 10 13  1  0  0  0  0
 10 31  1  0  0  0  0
 10 32  1  0  0  0  0
 11 20  1  0  0  0  0
 11 24  2  0  0  0  0
 12 18  2  0  0  0  0
 12 33  1  0  0  0  0
 13 21  1  0  0  0  0
 13 26  2  0  0  0  0
 14 22  2  0  0  0  0
 14 34  1  0  0  0  0
 15 16  1  0  0  0  0
 15 28  1  0  0  0  0
 15 35  1  1  0  0  0
 16 18  1  0  0  0  0
 18 22  1  0  0  0  0
 22 36  1  0  0  0  0
 23 27  1  0  0  0  0
 23 37  1  0  0  0  0
 23 38  1  0  0  0  0
 25 27  1  0  0  0  0
 25 39  1  0  0  0  0
 25 40  1  0  0  0  0
 27 41  1  0  0  0  0
 27 42  1  0  0  0  0
 28 43  1  0  0  0  0
 28 44  1  0  0  0  0
 28 45  1  0  0  0  0
M  CHG  2  20  -1  21  -1
M  END
$$$$
