##########                                Name: HTS1710-00862640-01
##########                    Molecular_Weight:             365.387
##########                DOCK_Rotatable_Bonds:                   7
##########                       Formal_Charge:                  -2
##########                     HBond_Acceptors:                   9
##########                        HBond_Donors:                   0
##########                         Heavy_Atoms:                  24
##########                          Grid_Score:          -75.934402
##########                     Grid_vdw_energy:          -40.996460
##########                      Grid_es_energy:          -34.937939
##########           Internal_energy_repulsive:           12.391493

@<TRIPOS>MOLECULE
HTS1710-00862640-01
 35 36 1 0 0
SMALL
USER_CHARGES


@<TRIPOS>ATOM
      1 N           2.7085  -10.8519  -33.2945 N.am    1  UNL1       -0.2463
      2 C           1.7883  -11.2727  -34.2482 C.2     1  UNL1        0.1211
      3 C           2.8114  -11.6979  -32.1917 C.2     1  UNL1        0.2589
      4 C           1.9023  -12.8585  -32.3487 C.2     1  UNL1        0.0772
      5 S           0.9736  -12.8083  -33.8333 S.3     1  UNL1       -0.0610
      6 C           3.4996   -9.5948  -33.3995 C.3     1  UNL1        0.0765
      7 C           5.0165   -9.8708  -33.6229 C.3     1  UNL1        0.0111
      8 C           1.8424  -13.8569  -31.3955 C.2     1  UNL1       -0.0356
      9 C           3.1922   -8.6600  -32.2045 C.2     1  UNL1        0.0629
     10 S           1.3902  -10.4552  -35.6567 S.2     1  UNL1       -0.0272
     11 C           5.7483   -8.6662  -34.2300 C.2     1  UNL1        0.0439
     12 O           3.5528  -11.5064  -31.2408 O.2     1  UNL1       -0.2690
     13 C           2.5025  -14.1381  -30.0829 C.ar    1  UNL1       -0.0204
     14 O           2.1192   -8.0808  -32.2182 O.co2   1  UNL1       -0.5479
     15 O           5.7355   -8.5601  -35.4442 O.co2   1  UNL1       -0.5497
     16 C           3.8960  -14.0369  -29.8717 C.ar    1  UNL1       -0.0128
     17 O           4.0288   -8.5559  -31.3239 O.co2   1  UNL1       -0.5479
     18 O           6.2748   -7.8846  -33.4572 O.co2   1  UNL1       -0.5497
     19 C           4.4538  -14.3126  -28.6023 C.ar    1  UNL1        0.1207
     20 O           5.8119  -14.2239  -28.3583 O.3     1  UNL1       -0.4951
     21 C           2.2356  -14.7943  -27.7405 C.ar    1  UNL1       -0.0577
     22 C           1.6840  -14.5211  -29.0007 C.ar    1  UNL1       -0.0543
     23 C           3.6185  -14.6896  -27.5410 C.ar    1  UNL1       -0.0199
     24 C           6.4735  -14.9682  -27.3197 C.3     1  UNL1        0.0788
     25 H           3.1927   -9.0691  -34.2794 H       1  UNL1        0.0570
     26 H           5.1199  -10.7049  -34.2852 H       1  UNL1        0.0347
     27 H           5.4553  -10.0711  -32.6678 H       1  UNL1        0.0347
     28 H           1.1716  -14.5969  -31.6551 H       1  UNL1        0.0636
     29 H           4.5122  -13.7592  -30.6515 H       1  UNL1        0.0660
     30 H           1.6220  -15.0729  -26.9590 H       1  UNL1        0.0619
     31 H           0.6643  -14.6015  -29.1379 H       1  UNL1        0.0623
     32 H           4.0224  -14.8901  -26.6127 H       1  UNL1        0.0654
     33 H           7.5179  -14.7355  -27.3242 H       1  UNL1        0.0660
     34 H           6.3408  -16.0159  -27.4917 H       1  UNL1        0.0660
     35 H           6.0540  -14.7065  -26.3708 H       1  UNL1        0.0660
@<TRIPOS>BOND
     1     1     2    1
     2     1     3   am
     3     3     4    1
     4     2     5    1
     5     1     6    1
     6     6     7    1
     7     4     8    2
     8     6     9    1
     9     2    10    2
    10     7    11    1
    11     3    12    2
    12     8    13    1
    13     9    14   ar
    14    11    15   ar
    15    13    16   ar
    16     9    17   ar
    17    11    18   ar
    18    16    19   ar
    19    19    20    1
    20    21    22   ar
    21    13    22   ar
    22    21    23   ar
    23    20    24    1
    24     4     5    1
    25    19    23   ar
    26     6    25    1
    27     7    26    1
    28     7    27    1
    29     8    28    1
    30    16    29    1
    31    21    30    1
    32    22    31    1
    33    23    32    1
    34    24    33    1
    35    24    34    1
    36    24    35    1
@<TRIPOS>SUBSTRUCTURE
     1 UNL1        1 TEMP              0 ****  ****    0 ROOT


