HTS1710-05464515-01
 OpenBabel03232612363D

 36 37  0  0  0  0  0  0  0  0999 V2000
    6.3667   -7.2886  -33.6775 C   0  0  0  0  0  0  0  0  0  0  0  0
    5.5856   -8.5800  -33.6351 C   0  0  0  0  0  0  0  0  0  0  0  0
    5.4630   -9.2950  -34.7892 O   0  0  0  0  0  0  0  0  0  0  0  0
    4.7304  -10.3559  -34.3449 C   0  0  0  0  0  0  0  0  0  0  0  0
    4.3616  -11.4283  -35.3369 C   0  0  0  0  0  0  0  0  0  0  0  0
    4.3881  -10.3499  -33.0064 C   0  0  0  0  0  0  0  0  0  0  0  0
    4.9787   -9.1289  -32.5224 C   0  0  0  0  0  0  0  0  0  0  0  0
    4.9586   -8.5789  -31.1336 C   0  0  0  0  0  0  0  0  0  0  0  0
    6.0165   -8.2524  -30.6266 O   0  5  0  0  0  0  0  0  0  0  0  0
    3.8860   -8.4836  -30.5684 O   0  0  0  0  0  0  0  0  0  0  0  0
    3.4493  -11.6288  -32.1366 S   0  0  0  0  0  0  0  0  0  0  0  0
    3.7513  -12.9749  -32.6332 O   0  0  0  0  0  0  0  0  0  0  0  0
    2.0748  -11.1453  -31.9853 O   0  0  0  0  0  0  0  0  0  0  0  0
    4.0600  -11.5729  -30.5541 N   0  0  0  0  0  0  0  0  0  0  0  0
    4.7097  -12.7892  -30.0434 C   0  0  0  0  0  0  0  0  0  0  0  0
    4.4917  -12.9114  -28.5190 C   0  0  0  0  0  0  0  0  0  0  0  0
    5.3483  -14.0111  -27.8956 C   0  0  0  0  0  0  0  0  0  0  0  0
    4.7862  -15.2353  -27.4801 C   0  0  0  0  0  0  0  0  0  0  0  0
    5.5326  -16.2149  -26.9297 N   0  0  0  0  0  0  0  0  0  0  0  0
    6.8491  -15.9579  -26.7941 C   0  0  0  0  0  0  0  0  0  0  0  0
    7.4142  -14.7385  -27.2100 C   0  0  0  0  0  0  0  0  0  0  0  0
    6.6703  -13.7613  -27.7671 N   0  0  0  0  0  0  0  0  0  0  0  0
    6.7189   -7.1174  -34.6733 H   0  0  0  0  0  0  0  0  0  0  0  0
    7.2007   -7.3541  -33.0104 H   0  0  0  0  0  0  0  0  0  0  0  0
    5.7338   -6.4791  -33.3790 H   0  0  0  0  0  0  0  0  0  0  0  0
    4.7572  -11.1759  -36.2985 H   0  0  0  0  0  0  0  0  0  0  0  0
    3.2961  -11.5058  -35.3987 H   0  0  0  0  0  0  0  0  0  0  0  0
    4.7695  -12.3647  -35.0181 H   0  0  0  0  0  0  0  0  0  0  0  0
    3.2814  -11.3560  -29.9318 H   0  0  0  0  0  0  0  0  0  0  0  0
    5.7589  -12.7416  -30.2476 H   0  0  0  0  0  0  0  0  0  0  0  0
    4.2815  -13.6425  -30.5266 H   0  0  0  0  0  0  0  0  0  0  0  0
    3.4611  -13.1331  -28.3358 H   0  0  0  0  0  0  0  0  0  0  0  0
    4.7777  -11.9820  -28.0727 H   0  0  0  0  0  0  0  0  0  0  0  0
    3.7725  -15.3867  -27.6007 H   0  0  0  0  0  0  0  0  0  0  0  0
    7.4595  -16.6759  -26.3734 H   0  0  0  0  0  0  0  0  0  0  0  0
    8.4275  -14.5875  -27.0852 H   0  0  0  0  0  0  0  0  0  0  0  0
  1  2  1  0  0  0  0
  1 23  1  0  0  0  0
  1 24  1  0  0  0  0
  1 25  1  0  0  0  0
  2  3  1  0  0  0  0
  2  7  2  0  0  0  0
  3  4  1  0  0  0  0
  4  5  1  0  0  0  0
  4  6  2  0  0  0  0
  5 26  1  0  0  0  0
  5 27  1  0  0  0  0
  5 28  1  0  0  0  0
  6  7  1  0  0  0  0
  6 11  1  0  0  0  0
  7  8  1  0  0  0  0
  8  9  1  0  0  0  0
  8 10  2  0  0  0  0
 11 12  2  0  0  0  0
 11 13  2  0  0  0  0
 11 14  1  0  0  0  0
 14 15  1  0  0  0  0
 14 29  1  0  0  0  0
 15 16  1  0  0  0  0
 15 30  1  0  0  0  0
 15 31  1  0  0  0  0
 16 17  1  0  0  0  0
 16 32  1  0  0  0  0
 16 33  1  0  0  0  0
 17 18  2  0  0  0  0
 17 22  1  0  0  0  0
 18 19  1  0  0  0  0
 18 34  1  0  0  0  0
 19 20  2  0  0  0  0
 20 21  1  0  0  0  0
 20 35  1  0  0  0  0
 21 22  2  0  0  0  0
 21 36  1  0  0  0  0
M  CHG  1   9  -1
M  END
$$$$
