HTS1710-05334463-01
 OpenBabel03232612353D

 45 47  0  0  1  0  0  0  0  0999 V2000
    4.7144   -4.8802  -31.7066 C   0  0  0  0  0  0  0  0  0  0  0  0
    6.0298   -5.6712  -31.8506 C   0  0  0  0  0  0  0  0  0  0  0  0
    5.7816   -7.1346  -32.1289 C   0  0  0  0  0  0  0  0  0  0  0  0
    5.3277   -7.9198  -31.1032 O   0  0  0  0  0  0  0  0  0  0  0  0
    5.2012   -9.1309  -31.7332 C   0  0  0  0  0  0  0  0  0  0  0  0
    5.5685   -9.1219  -33.0547 C   0  0  0  0  0  0  0  0  0  0  0  0
    5.9474   -7.7824  -33.3371 C   0  0  0  0  0  0  0  0  0  0  0  0
    6.3774   -7.2645  -34.6592 C   0  0  0  0  0  0  0  0  0  0  0  0
    6.0453   -7.9103  -35.6382 O   0  5  0  0  0  0  0  0  0  0  0  0
    7.0266   -6.2351  -34.7032 O   0  0  0  0  0  0  0  0  0  0  0  0
    4.6369  -10.2892  -31.0182 C   0  0  0  0  0  0  0  0  0  0  0  0
    4.5464  -10.3307  -29.8016 O   0  0  0  0  0  0  0  0  0  0  0  0
    4.2385  -11.3772  -31.7823 N   0  0  0  0  0  0  0  0  0  0  0  0
    3.6609  -12.5943  -31.1983 C   0  0  0  0  0  0  0  0  0  0  0  0
    2.2136  -12.7897  -31.7215 C   0  0  2  0  0  0  0  0  0  0  0  0
    1.4837  -13.9834  -31.0666 C   0  0  0  0  0  0  0  0  0  0  0  0
    0.8463  -14.7531  -32.2426 C   0  0  0  0  0  0  0  0  0  0  0  0
    0.8774  -13.8140  -33.3285 O   0  0  0  0  0  0  0  0  0  0  0  0
    2.1247  -13.1141  -33.2338 C   0  0  1  0  0  0  0  0  0  0  0  0
    2.1233  -11.9243  -34.1657 C   0  0  0  0  0  0  0  0  0  0  0  0
    3.0575  -11.7203  -35.2075 C   0  0  0  0  0  0  0  0  0  0  0  0
    2.7685  -10.5962  -35.8448 N   0  0  0  0  0  0  0  0  0  0  0  0
    1.6541  -10.0950  -35.2040 N   0  0  0  0  0  0  0  0  0  0  0  0
    1.0414   -8.8388  -35.6481 C   0  0  0  0  0  0  0  0  0  0  0  0
    1.2367  -10.8960  -34.1523 C   0  0  0  0  0  0  0  0  0  0  0  0
    4.9362   -3.8519  -31.5109 H   0  0  0  0  0  0  0  0  0  0  0  0
    4.1432   -5.2823  -30.8961 H   0  0  0  0  0  0  0  0  0  0  0  0
    4.1508   -4.9573  -32.6128 H   0  0  0  0  0  0  0  0  0  0  0  0
    6.5880   -5.5820  -30.9421 H   0  0  0  0  0  0  0  0  0  0  0  0
    6.5715   -5.2643  -32.6788 H   0  0  0  0  0  0  0  0  0  0  0  0
    5.5693   -9.9213  -33.7075 H   0  0  0  0  0  0  0  0  0  0  0  0
    4.3481  -11.3307  -32.7597 H   0  0  0  0  0  0  0  0  0  0  0  0
    3.6445  -12.5040  -30.1323 H   0  0  0  0  0  0  0  0  0  0  0  0
    4.2558  -13.4383  -31.4786 H   0  0  0  0  0  0  0  0  0  0  0  0
    1.7691  -11.8457  -31.4844 H   0  0  0  0  0  0  0  0  0  0  0  0
    0.7301  -13.6385  -30.3899 H   0  0  0  0  0  0  0  0  0  0  0  0
    2.1484  -14.5980  -30.4962 H   0  0  0  0  0  0  0  0  0  0  0  0
   -0.1598  -15.0350  -32.0121 H   0  0  0  0  0  0  0  0  0  0  0  0
    1.3632  -15.6622  -32.4689 H   0  0  0  0  0  0  0  0  0  0  0  0
    2.9925  -13.6562  -33.5468 H   0  0  0  0  0  0  0  0  0  0  0  0
    3.8428  -12.3499  -35.4357 H   0  0  0  0  0  0  0  0  0  0  0  0
    1.5868   -8.4517  -36.4833 H   0  0  0  0  0  0  0  0  0  0  0  0
    1.0633   -8.1289  -34.8478 H   0  0  0  0  0  0  0  0  0  0  0  0
    0.0271   -9.0194  -35.9372 H   0  0  0  0  0  0  0  0  0  0  0  0
    0.4416  -10.7464  -33.5118 H   0  0  0  0  0  0  0  0  0  0  0  0
  1  2  1  0  0  0  0
  1 26  1  0  0  0  0
  1 27  1  0  0  0  0
  1 28  1  0  0  0  0
  2  3  1  0  0  0  0
  2 29  1  0  0  0  0
  2 30  1  0  0  0  0
  3  4  1  0  0  0  0
  3  7  2  0  0  0  0
  4  5  1  0  0  0  0
  5  6  2  0  0  0  0
  5 11  1  0  0  0  0
  6  7  1  0  0  0  0
  6 31  1  0  0  0  0
  7  8  1  0  0  0  0
  8  9  1  0  0  0  0
  8 10  2  0  0  0  0
 11 12  2  0  0  0  0
 11 13  1  0  0  0  0
 13 14  1  0  0  0  0
 13 32  1  0  0  0  0
 14 15  1  0  0  0  0
 14 33  1  0  0  0  0
 14 34  1  0  0  0  0
 15 16  1  0  0  0  0
 15 19  1  0  0  0  0
 15 35  1  1  0  0  0
 16 17  1  0  0  0  0
 16 36  1  0  0  0  0
 16 37  1  0  0  0  0
 17 18  1  0  0  0  0
 17 38  1  0  0  0  0
 17 39  1  0  0  0  0
 18 19  1  0  0  0  0
 19 20  1  0  0  0  0
 19 40  1  6  0  0  0
 20 21  1  0  0  0  0
 20 25  2  0  0  0  0
 21 22  2  0  0  0  0
 21 41  1  0  0  0  0
 22 23  1  0  0  0  0
 23 24  1  0  0  0  0
 23 25  1  0  0  0  0
 24 42  1  0  0  0  0
 24 43  1  0  0  0  0
 24 44  1  0  0  0  0
 25 45  1  0  0  0  0
M  CHG  1   9  -1
M  END
$$$$
