##########                                Name: HTS1710-00475251-01
##########                    Molecular_Weight:             299.283
##########                DOCK_Rotatable_Bonds:                   4
##########                       Formal_Charge:                  -2
##########                     HBond_Acceptors:                   6
##########                        HBond_Donors:                   0
##########                         Heavy_Atoms:                  22
##########                          Grid_Score:          -75.316620
##########                     Grid_vdw_energy:          -36.413780
##########                      Grid_es_energy:          -38.902840
##########           Internal_energy_repulsive:            9.082781

@<TRIPOS>MOLECULE
HTS1710-00475251-01
 35 37 1 0 0
SMALL
USER_CHARGES


@<TRIPOS>ATOM
      1 C           4.3916  -10.8731  -32.1873 C.ar    1  UNL1        0.0589
      2 N           4.3856  -11.4722  -33.4297 N.ar    1  UNL1       -0.3426
      3 C           4.8864   -9.5745  -32.3497 C.ar    1  UNL1        0.0319
      4 C           4.0991  -11.5146  -30.8879 C.ar    1  UNL1       -0.0006
      5 C           4.9920  -10.6761  -34.3264 C.ar    1  UNL1        0.0288
      6 C           4.1843  -12.8175  -33.9396 C.3     1  UNL1        0.0239
      7 C           5.3241   -9.4716  -33.7435 C.ar    1  UNL1        0.0275
      8 C           4.8678   -8.5047  -31.2920 C.2     1  UNL1        0.0743
      9 C           4.5321  -12.8231  -30.5809 C.ar    1  UNL1       -0.0492
     10 C           3.2627  -10.8551  -29.9658 C.ar    1  UNL1       -0.0492
     11 C           5.2409  -11.3013  -35.6585 C.3     1  UNL1       -0.0100
     12 C           4.7707  -12.7750  -35.3932 C.3     1  UNL1       -0.0296
     13 C           5.9644   -8.3512  -34.5123 C.2     1  UNL1        0.0740
     14 O           3.8828   -7.8040  -31.1668 O.co2   1  UNL1       -0.5445
     15 O           5.8484   -8.3965  -30.5765 O.co2   1  UNL1       -0.5445
     16 C           4.1898  -13.4263  -29.3605 C.ar    1  UNL1       -0.0193
     17 C           2.9222  -11.4512  -28.7404 C.ar    1  UNL1       -0.0193
     18 O           6.6881   -7.5910  -33.8925 O.co2   1  UNL1       -0.5446
     19 O           5.7551   -8.2375  -35.7029 O.co2   1  UNL1       -0.5446
     20 C           3.3935  -12.7426  -28.4288 C.ar    1  UNL1        0.1201
     21 O           3.0868  -13.3743  -27.2390 O.3     1  UNL1       -0.4951
     22 C           3.3084  -14.7794  -27.0219 C.3     1  UNL1        0.0788
     23 H           3.1431  -13.0635  -33.9583 H       1  UNL1        0.0492
     24 H           4.6568  -13.5596  -33.3306 H       1  UNL1        0.0492
     25 H           5.1074  -13.3425  -31.2622 H       1  UNL1        0.0625
     26 H           2.8942   -9.9186  -30.1945 H       1  UNL1        0.0625
     27 H           6.2768  -11.2614  -35.9234 H       1  UNL1        0.0328
     28 H           4.7397  -10.8190  -36.4715 H       1  UNL1        0.0328
     29 H           4.0179  -13.0530  -36.1009 H       1  UNL1        0.0286
     30 H           5.5871  -13.4592  -35.4946 H       1  UNL1        0.0286
     31 H           4.5258  -14.3785  -29.1471 H       1  UNL1        0.0654
     32 H           2.3266  -10.9433  -28.0677 H       1  UNL1        0.0654
     33 H           2.9966  -15.0409  -26.0324 H       1  UNL1        0.0660
     34 H           4.3494  -14.9982  -27.1374 H       1  UNL1        0.0660
     35 H           2.7441  -15.3438  -27.7346 H       1  UNL1        0.0660
@<TRIPOS>BOND
     1     1     2   ar
     2     1     3   ar
     3     1     4    1
     4     2     5   ar
     5     2     6    1
     6     3     7   ar
     7     3     8    1
     8     4     9   ar
     9     4    10   ar
    10     5    11    1
    11     6    12    1
    12     7    13    1
    13     8    14   ar
    14     8    15   ar
    15     9    16   ar
    16    10    17   ar
    17    13    18   ar
    18    13    19   ar
    19    16    20   ar
    20    20    21    1
    21    21    22    1
    22     5     7   ar
    23    11    12    1
    24    17    20   ar
    25     6    23    1
    26     6    24    1
    27     9    25    1
    28    10    26    1
    29    11    27    1
    30    11    28    1
    31    12    29    1
    32    12    30    1
    33    16    31    1
    34    17    32    1
    35    22    33    1
    36    22    34    1
    37    22    35    1
@<TRIPOS>SUBSTRUCTURE
     1 UNL1        1 TEMP              0 ****  ****    0 ROOT


