##########                                Name: HTS1710-02213007-01
##########                    Molecular_Weight:             344.324
##########                DOCK_Rotatable_Bonds:                   9
##########                       Formal_Charge:                  -2
##########                     HBond_Acceptors:                   8
##########                        HBond_Donors:                   0
##########                         Heavy_Atoms:                  25
##########                          Grid_Score:          -75.005371
##########                     Grid_vdw_energy:          -38.479923
##########                      Grid_es_energy:          -36.525444
##########           Internal_energy_repulsive:            7.897111

@<TRIPOS>MOLECULE
HTS1710-02213007-01
 41 42 1 0 0
SMALL
USER_CHARGES


@<TRIPOS>ATOM
      1 C           3.6522  -12.0616  -32.7896 C.ar    1  UNL1        0.0204
      2 C           2.5097  -11.4298  -32.1871 C.ar    1  UNL1        0.0999
      3 N           2.1623  -12.0170  -31.0576 N.ar    1  UNL1       -0.1706
      4 N           3.1134  -12.9783  -30.8663 N.ar    1  UNL1       -0.2699
      5 C           4.0411  -13.0175  -31.8912 C.ar    1  UNL1        0.0333
      6 C           1.8173  -10.2799  -32.8048 C.ar    1  UNL1        0.0064
      7 C           4.2652  -11.8494  -34.1057 C.2     1  UNL1       -0.0494
      8 C           1.8981   -8.9688  -32.2884 C.ar    1  UNL1       -0.0071
      9 C           5.0518  -10.8038  -34.4633 C.2     1  UNL1       -0.0387
     10 C           1.2016   -7.9020  -32.8985 C.ar    1  UNL1        0.1621
     11 C           4.6050  -12.3282  -28.3404 C.2     1  UNL1        0.0435
     12 C           5.4546   -9.6589  -33.5975 C.2     1  UNL1        0.0646
     13 C           3.2927  -13.1219  -28.3481 C.3     1  UNL1        0.0064
     14 C           0.3872   -8.1484  -34.0198 C.ar    1  UNL1        0.1615
     15 C           0.9614  -10.5149  -33.8995 C.ar    1  UNL1       -0.0488
     16 C           3.0600  -13.8577  -29.6895 C.3     1  UNL1        0.0466
     17 O           5.6322  -12.9572  -28.1547 O.co2   1  UNL1       -0.5498
     18 O           5.4511   -9.8492  -32.3937 O.co2   1  UNL1       -0.5452
     19 C           0.2629   -9.4641  -34.5116 C.ar    1  UNL1       -0.0157
     20 O           4.5367  -11.1301  -28.5506 O.co2   1  UNL1       -0.5498
     21 O           5.7565   -8.6119  -34.1443 O.co2   1  UNL1       -0.5452
     22 O           1.2807   -6.6085  -32.4122 O.3     1  UNL1       -0.4914
     23 O          -0.2892   -7.0873  -34.5965 O.3     1  UNL1       -0.4915
     24 C           1.5173   -6.3009  -31.0264 C.3     1  UNL1        0.0790
     25 C          -0.9706   -7.1836  -35.8601 C.3     1  UNL1        0.0790
     26 H           4.8602  -13.6411  -31.9637 H       1  UNL1        0.0832
     27 H           4.0805  -12.5633  -34.8276 H       1  UNL1        0.0625
     28 H           2.4749   -8.7867  -31.4522 H       1  UNL1        0.0662
     29 H           5.4072  -10.8004  -35.4322 H       1  UNL1        0.0635
     30 H           2.4805  -12.4458  -28.1809 H       1  UNL1        0.0343
     31 H           3.3516  -13.8600  -27.5756 H       1  UNL1        0.0343
     32 H           0.8467  -11.4764  -34.2567 H       1  UNL1        0.0625
     33 H           3.8130  -14.6103  -29.7965 H       1  UNL1        0.0512
     34 H           2.0726  -14.2682  -29.6523 H       1  UNL1        0.0512
     35 H          -0.3440   -9.6543  -35.3243 H       1  UNL1        0.0655
     36 H           1.5362   -5.2392  -30.8950 H       1  UNL1        0.0660
     37 H           2.4568   -6.7144  -30.7246 H       1  UNL1        0.0660
     38 H           0.7346   -6.7202  -30.4293 H       1  UNL1        0.0660
     39 H          -1.4165   -6.2404  -36.0976 H       1  UNL1        0.0660
     40 H          -1.7321   -7.9327  -35.7985 H       1  UNL1        0.0660
     41 H          -0.2699   -7.4492  -36.6239 H       1  UNL1        0.0660
@<TRIPOS>BOND
     1     1     2   ar
     2     1     5   ar
     3     1     7    1
     4     2     3   ar
     5     2     6    1
     6     3     4   ar
     7     4     5   ar
     8     4    16    1
     9     6     8   ar
    10     6    15   ar
    11     7     9    2
    12     8    10   ar
    13     9    12    1
    14    10    14   ar
    15    10    22    1
    16    11    13    1
    17    11    17   ar
    18    11    20   ar
    19    12    18   ar
    20    12    21   ar
    21    13    16    1
    22    14    19   ar
    23    14    23    1
    24    15    19   ar
    25    22    24    1
    26    23    25    1
    27     5    26    1
    28     7    27    1
    29     8    28    1
    30     9    29    1
    31    13    30    1
    32    13    31    1
    33    15    32    1
    34    16    33    1
    35    16    34    1
    36    19    35    1
    37    24    36    1
    38    24    37    1
    39    24    38    1
    40    25    39    1
    41    25    40    1
    42    25    41    1
@<TRIPOS>SUBSTRUCTURE
     1 UNL1        1 TEMP              0 ****  ****    0 ROOT


