##########                                Name: HTS1710-04760615-01
##########                    Molecular_Weight:             294.327
##########                DOCK_Rotatable_Bonds:                   7
##########                       Formal_Charge:                  -2
##########                     HBond_Acceptors:                   6
##########                        HBond_Donors:                   1
##########                         Heavy_Atoms:                  21
##########                          Grid_Score:          -77.147316
##########                     Grid_vdw_energy:          -38.352303
##########                      Grid_es_energy:          -38.795013
##########           Internal_energy_repulsive:            9.021394

@<TRIPOS>MOLECULE
HTS1710-04760615-01
 41 42 1 0 0
SMALL
USER_CHARGES


@<TRIPOS>ATOM
      1 C           2.8647  -13.5172  -27.7515 C.3     1  UNL1       -0.0387
      2 C           2.9824  -13.9083  -29.2400 C.3     1  UNL1        0.0563
      3 C           1.8576  -14.8414  -29.7388 C.3     1  UNL1       -0.0245
      4 C           1.5637  -14.3546  -31.1702 C.3     1  UNL1       -0.0242
      5 C           2.5493  -13.1874  -31.3885 C.3     1  UNL1        0.0596
      6 C           1.9698  -12.0186  -32.2199 C.3     1  UNL1       -0.0183
      7 C           1.9699  -12.3196  -33.7364 C.3     1  UNL1        0.0263
      8 C           2.6548  -11.2071  -34.5312 C.2     1  UNL1        0.2133
      9 O           2.0972  -10.1459  -34.7589 O.2     1  UNL1       -0.2758
     10 N           3.9372  -11.4333  -35.0099 N.am    1  UNL1       -0.3123
     11 C           4.6704  -10.4246  -35.7811 C.3     1  UNL1        0.0240
     12 C           5.2119   -9.3638  -34.8620 C.2     1  UNL1       -0.1000
     13 C           5.0236   -9.3428  -33.5045 C.2     1  UNL1       -0.0630
     14 C           5.6984   -8.1741  -33.0609 C.2     1  UNL1       -0.0144
     15 C           5.7968   -7.6988  -31.6590 C.2     1  UNL1        0.0708
     16 O           5.7607   -8.5452  -30.7833 O.co2   1  UNL1       -0.5447
     17 O           5.9075   -6.5019  -31.4573 O.co2   1  UNL1       -0.5447
     18 C           6.2108   -7.6288  -34.2214 C.2     1  UNL1       -0.1120
     19 C           7.0210   -6.3608  -34.3144 C.3     1  UNL1       -0.0524
     20 O           5.9403   -8.3241  -35.3715 O.co2   1  UNL1       -0.7845
     21 O           2.8224  -12.7370  -30.0524 O.3     1  UNL1       -0.3736
     22 H           2.9836  -14.3893  -27.1430 H       1  UNL1        0.0254
     23 H           1.9025  -13.0852  -27.5712 H       1  UNL1        0.0254
     24 H           3.6262  -12.8060  -27.5082 H       1  UNL1        0.0254
     25 H           3.9338  -14.3918  -29.3177 H       1  UNL1        0.0593
     26 H           0.9883  -14.7502  -29.1218 H       1  UNL1        0.0291
     27 H           2.1397  -15.8731  -29.7084 H       1  UNL1        0.0291
     28 H           0.5520  -14.0168  -31.2550 H       1  UNL1        0.0291
     29 H           1.6827  -15.1304  -31.8974 H       1  UNL1        0.0291
     30 H           3.4043  -13.5125  -31.9437 H       1  UNL1        0.0596
     31 H           2.5609  -11.1444  -32.0428 H       1  UNL1        0.0295
     32 H           0.9545  -11.8726  -31.9156 H       1  UNL1        0.0295
     33 H           0.9581  -12.4135  -34.0718 H       1  UNL1        0.0359
     34 H           2.5118  -13.2281  -33.8971 H       1  UNL1        0.0359
     35 H           4.3688  -12.2989  -34.8258 H       1  UNL1        0.1490
     36 H           4.0098   -9.9735  -36.4918 H       1  UNL1        0.0500
     37 H           5.4850  -10.8965  -36.2895 H       1  UNL1        0.0500
     38 H           4.5053  -10.0262  -32.9305 H       1  UNL1        0.0615
     39 H           7.1424   -5.9427  -33.3370 H       1  UNL1        0.0266
     40 H           6.5136   -5.6586  -34.9423 H       1  UNL1        0.0266
     41 H           7.9821   -6.5814  -34.7299 H       1  UNL1        0.0266
@<TRIPOS>BOND
     1     1     2    1
     2     2     3    1
     3     3     4    1
     4     4     5    1
     5     5     6    1
     6     6     7    1
     7     7     8    1
     8     8     9    2
     9     8    10   am
    10    10    11    1
    11    11    12    1
    12    12    13    2
    13    13    14    1
    14    14    15    1
    15    15    16   ar
    16    15    17   ar
    17    14    18    2
    18    18    19    1
    19    18    20    1
    20    12    20    1
    21     5    21    1
    22     2    21    1
    23     1    22    1
    24     1    23    1
    25     1    24    1
    26     2    25    1
    27     3    26    1
    28     3    27    1
    29     4    28    1
    30     4    29    1
    31     5    30    1
    32     6    31    1
    33     6    32    1
    34     7    33    1
    35     7    34    1
    36    10    35    1
    37    11    36    1
    38    11    37    1
    39    13    38    1
    40    19    39    1
    41    19    40    1
    42    19    41    1
@<TRIPOS>SUBSTRUCTURE
     1 UNL1        1 TEMP              0 ****  ****    0 ROOT


