HTS1710-01625495-01
 OpenBabel03232612353D

 41 43  0  0  0  0  0  0  0  0999 V2000
    3.9379  -12.6185  -31.1705 C   0  0  0  0  0  0  0  0  0  0  0  0
    3.2427  -11.3162  -31.1629 N   0  0  0  0  0  0  0  0  0  0  0  0
    3.9498  -10.2636  -30.3953 C   0  0  0  0  0  0  0  0  0  0  0  0
    4.6200   -9.2248  -31.2680 C   0  0  0  0  0  0  0  0  0  0  0  0
    5.0943   -9.4417  -32.5383 C   0  0  0  0  0  0  0  0  0  0  0  0
    5.5896   -8.1829  -32.9655 C   0  0  0  0  0  0  0  0  0  0  0  0
    6.1980   -7.8901  -34.2860 C   0  0  0  0  0  0  0  0  0  0  0  0
    7.0702   -7.0418  -34.3498 O   0  5  0  0  0  0  0  0  0  0  0  0
    5.7800   -8.5239  -35.2396 O   0  0  0  0  0  0  0  0  0  0  0  0
    5.3587   -7.3536  -31.8853 C   0  0  0  0  0  0  0  0  0  0  0  0
    5.6963   -5.8852  -31.8174 C   0  0  0  0  0  0  0  0  0  0  0  0
    4.7599   -7.9469  -30.8040 O   0  0  0  0  0  0  0  0  0  0  0  0
    2.1346  -10.9756  -31.9582 C   0  0  0  0  0  0  0  0  0  0  0  0
    1.7457   -9.8208  -32.0320 O   0  0  0  0  0  0  0  0  0  0  0  0
    1.4482  -12.0678  -32.7179 C   0  0  0  0  0  0  0  0  0  0  0  0
    0.8899  -13.2641  -32.3345 C   0  0  0  0  0  0  0  0  0  0  0  0
    0.3445  -13.9549  -33.3730 N   0  0  0  0  0  0  0  0  0  0  0  0
    0.5238  -13.2210  -34.4496 C   0  0  0  0  0  0  0  0  0  0  0  0
    1.1257  -12.0281  -34.0740 N   0  0  0  0  0  0  0  0  0  0  0  0
    1.8443  -11.2794  -35.0017 C   0  0  0  0  0  0  0  0  0  0  0  0
    3.1203  -11.7060  -35.4192 C   0  0  0  0  0  0  0  0  0  0  0  0
    3.8413  -10.9384  -36.3479 C   0  0  0  0  0  0  0  0  0  0  0  0
    3.2875   -9.7547  -36.8621 C   0  0  0  0  0  0  0  0  0  0  0  0
    2.0104   -9.3359  -36.4513 C   0  0  0  0  0  0  0  0  0  0  0  0
    1.2852  -10.0992  -35.5214 C   0  0  0  0  0  0  0  0  0  0  0  0
    4.7436  -12.5968  -30.4668 H   0  0  0  0  0  0  0  0  0  0  0  0
    4.3246  -12.8106  -32.1495 H   0  0  0  0  0  0  0  0  0  0  0  0
    3.2496  -13.3919  -30.9007 H   0  0  0  0  0  0  0  0  0  0  0  0
    4.6983  -10.7311  -29.7902 H   0  0  0  0  0  0  0  0  0  0  0  0
    3.2134   -9.7538  -29.8097 H   0  0  0  0  0  0  0  0  0  0  0  0
    5.0910  -10.3279  -33.0672 H   0  0  0  0  0  0  0  0  0  0  0  0
    6.1548   -5.5818  -32.7353 H   0  0  0  0  0  0  0  0  0  0  0  0
    6.3726   -5.7118  -31.0066 H   0  0  0  0  0  0  0  0  0  0  0  0
    4.8010   -5.3203  -31.6621 H   0  0  0  0  0  0  0  0  0  0  0  0
    0.8848  -13.6035  -31.3599 H   0  0  0  0  0  0  0  0  0  0  0  0
    0.2612  -13.4872  -35.4115 H   0  0  0  0  0  0  0  0  0  0  0  0
    3.5235  -12.5788  -35.0442 H   0  0  0  0  0  0  0  0  0  0  0  0
    4.7786  -11.2442  -36.6528 H   0  0  0  0  0  0  0  0  0  0  0  0
    3.8195   -9.1910  -37.5434 H   0  0  0  0  0  0  0  0  0  0  0  0
    1.6051   -8.4670  -36.8331 H   0  0  0  0  0  0  0  0  0  0  0  0
    0.3459   -9.7947  -35.2211 H   0  0  0  0  0  0  0  0  0  0  0  0
  1  2  1  0  0  0  0
  1 26  1  0  0  0  0
  1 27  1  0  0  0  0
  1 28  1  0  0  0  0
  2  3  1  0  0  0  0
  2 13  1  0  0  0  0
  3  4  1  0  0  0  0
  3 29  1  0  0  0  0
  3 30  1  0  0  0  0
  4  5  2  0  0  0  0
  4 12  1  0  0  0  0
  5  6  1  0  0  0  0
  5 31  1  0  0  0  0
  6  7  1  0  0  0  0
  6 10  2  0  0  0  0
  7  8  1  0  0  0  0
  7  9  2  0  0  0  0
 10 11  1  0  0  0  0
 10 12  1  0  0  0  0
 11 32  1  0  0  0  0
 11 33  1  0  0  0  0
 11 34  1  0  0  0  0
 13 14  2  0  0  0  0
 13 15  1  0  0  0  0
 15 16  2  0  0  0  0
 15 19  1  0  0  0  0
 16 17  1  0  0  0  0
 16 35  1  0  0  0  0
 17 18  2  0  0  0  0
 18 19  1  0  0  0  0
 18 36  1  0  0  0  0
 19 20  1  0  0  0  0
 20 21  2  0  0  0  0
 20 25  1  0  0  0  0
 21 22  1  0  0  0  0
 21 37  1  0  0  0  0
 22 23  2  0  0  0  0
 22 38  1  0  0  0  0
 23 24  1  0  0  0  0
 23 39  1  0  0  0  0
 24 25  2  0  0  0  0
 24 40  1  0  0  0  0
 25 41  1  0  0  0  0
M  CHG  1   8  -1
M  END
$$$$
