##########                                Name: HTS1710-01264686-01
##########                    Molecular_Weight:             432.384
##########                DOCK_Rotatable_Bonds:                  11
##########                       Formal_Charge:                  -2
##########                     HBond_Acceptors:                  10
##########                        HBond_Donors:                   4
##########                         Heavy_Atoms:                  31
##########                          Grid_Score:          -82.107338
##########                     Grid_vdw_energy:          -44.955276
##########                      Grid_es_energy:          -37.152061
##########           Internal_energy_repulsive:           16.281324

@<TRIPOS>MOLECULE
HTS1710-01264686-01
 51 53 1 0 0
SMALL
USER_CHARGES


@<TRIPOS>ATOM
      1 C           1.8022   -8.8125  -32.9748 C.2     1  UNL1       -0.0602
      2 C           3.9799   -7.9531  -32.0432 C.2     1  UNL1       -0.0602
      3 C           2.8305   -8.9386  -31.8625 C.3     1  UNL1        0.0188
      4 C           0.4962   -8.4444  -32.6908 C.2     1  UNL1        0.1535
      5 C           5.1255   -8.2707  -32.7657 C.2     1  UNL1        0.1535
      6 C           3.2532  -10.4063  -31.6190 C.ar    1  UNL1        0.0076
      7 C           6.2190   -7.3023  -32.9404 C.2     1  UNL1        0.2184
      8 C          -0.5155   -8.3176  -33.7524 C.2     1  UNL1        0.2184
      9 O           3.7770   -6.7206  -31.4523 O.co2   1  UNL1       -0.7814
     10 O           2.2568   -9.0825  -34.2516 O.co2   1  UNL1       -0.7814
     11 C           5.9472   -6.0200  -32.2950 C.2     1  UNL1       -0.0198
     12 C           0.0220   -8.6060  -35.0809 C.2     1  UNL1       -0.0198
     13 C           3.8920  -10.7510  -30.3989 C.ar    1  UNL1        0.1655
     14 C           1.3411   -8.9588  -35.2721 C.2     1  UNL1       -0.0884
     15 C           4.7794   -5.7873  -31.6030 C.2     1  UNL1       -0.0884
     16 O           7.2489   -7.5277  -33.5554 O.2     1  UNL1       -0.2841
     17 O          -1.6798   -8.0049  -33.5611 O.2     1  UNL1       -0.2841
     18 C           4.2726  -12.1030  -30.1547 C.ar    1  UNL1        0.1618
     19 O           5.3658   -9.4671  -33.3501 O.2     1  UNL1       -0.5038
     20 O           0.0321   -8.1679  -31.4499 O.2     1  UNL1       -0.5038
     21 O           4.1104   -9.7158  -29.4952 O.3     1  UNL1       -0.4911
     22 C           3.0145  -11.4091  -32.5821 C.ar    1  UNL1       -0.0540
     23 O           4.8969  -12.4585  -28.9711 O.3     1  UNL1       -0.4914
     24 C           1.8493   -9.2391  -36.6606 C.3     1  UNL1        0.0566
     25 C           4.5503   -4.4464  -30.9572 C.3     1  UNL1        0.0566
     26 O           1.4018   -8.2428  -37.5752 O.3     1  UNL1       -0.3915
     27 O           5.6943   -4.0363  -30.2146 O.3     1  UNL1       -0.3915
     28 C           3.3868  -12.7347  -32.3384 C.ar    1  UNL1       -0.0578
     29 C           4.0081  -13.0839  -31.1357 C.ar    1  UNL1       -0.0163
     30 C           3.3276   -9.4010  -28.3307 C.3     1  UNL1        0.0790
     31 C           4.8225  -13.7696  -28.3825 C.3     1  UNL1        0.0790
     32 H           2.3656   -8.6474  -30.9438 H       1  UNL1        0.0427
     33 H           6.6503   -5.2673  -32.3594 H       1  UNL1        0.0649
     34 H          -0.6038   -8.5439  -35.8991 H       1  UNL1        0.0649
     35 H           4.7155  -10.1411  -33.3224 H       1  UNL1        0.2923
     36 H          -0.8284   -7.8140  -31.3397 H       1  UNL1        0.2923
     37 H           2.5606  -11.1619  -33.4754 H       1  UNL1        0.0622
     38 H           1.4892  -10.1948  -36.9794 H       1  UNL1        0.0596
     39 H           2.9192   -9.2308  -36.6417 H       1  UNL1        0.0596
     40 H           3.7107   -4.5145  -30.2973 H       1  UNL1        0.0596
     41 H           4.3653   -3.7248  -31.7253 H       1  UNL1        0.0596
     42 H           1.6704   -8.4859  -38.4751 H       1  UNL1        0.2098
     43 H           5.5232   -3.1723  -29.8080 H       1  UNL1        0.2098
     44 H           3.2019  -13.4590  -33.0499 H       1  UNL1        0.0619
     45 H           4.2754  -14.0657  -30.9635 H       1  UNL1        0.0655
     46 H           3.7475   -8.5488  -27.8383 H       1  UNL1        0.0660
     47 H           3.3307  -10.2365  -27.6623 H       1  UNL1        0.0660
     48 H           2.3221   -9.1834  -28.6249 H       1  UNL1        0.0660
     49 H           5.3885  -13.7855  -27.4746 H       1  UNL1        0.0660
     50 H           5.2226  -14.4901  -29.0650 H       1  UNL1        0.0660
     51 H           3.8012  -14.0079  -28.1704 H       1  UNL1        0.0660
@<TRIPOS>BOND
     1     2     3    1
     2     1     3    1
     3     1     4    2
     4     2     5    2
     5     3     6    1
     6     5     7    1
     7     4     8    1
     8     2     9    1
     9     1    10    1
    10    11    15    2
    11    12    14    2
    12     6    13   ar
    13    10    14    1
    14     9    15    1
    15     7    16    2
    16     8    17    2
    17    13    18   ar
    18     5    19    1
    19     4    20    1
    20    13    21    1
    21     6    22   ar
    22    18    23    1
    23    14    24    1
    24    15    25    1
    25    24    26    1
    26    25    27    1
    27    22    28   ar
    28    28    29   ar
    29    21    30    1
    30    23    31    1
    31     8    12    1
    32    18    29   ar
    33     7    11    1
    34     3    32    1
    35    11    33    1
    36    12    34    1
    37    19    35    1
    38    20    36    1
    39    22    37    1
    40    24    38    1
    41    24    39    1
    42    25    40    1
    43    25    41    1
    44    26    42    1
    45    27    43    1
    46    28    44    1
    47    29    45    1
    48    30    46    1
    49    30    47    1
    50    30    48    1
    51    31    49    1
    52    31    50    1
    53    31    51    1
@<TRIPOS>SUBSTRUCTURE
     1 UNL1        1 TEMP              0 ****  ****    0 ROOT


