HTS1710-05122793-01
 OpenBabel03232612353D

 43 44  0  0  0  0  0  0  0  0999 V2000
    1.8205  -14.0964  -27.8488 C   0  0  0  0  0  0  0  0  0  0  0  0
    3.0061  -14.8183  -28.5347 C   0  0  0  0  0  0  0  0  0  0  0  0
    4.2123  -14.9636  -27.5832 C   0  0  0  0  0  0  0  0  0  0  0  0
    3.4397  -14.0289  -29.6625 O   0  0  0  0  0  0  0  0  0  0  0  0
    2.7128  -13.8998  -30.8296 C   0  0  0  0  0  0  0  0  0  0  0  0
    1.7137  -14.8418  -31.1667 C   0  0  0  0  0  0  0  0  0  0  0  0
    0.9962  -14.6772  -32.3609 C   0  0  0  0  0  0  0  0  0  0  0  0
    1.2975  -13.5825  -33.1821 C   0  0  0  0  0  0  0  0  0  0  0  0
    2.3124  -12.6944  -32.7802 C   0  0  0  0  0  0  0  0  0  0  0  0
    2.9966  -12.8504  -31.6278 N   0  0  0  0  0  0  0  0  0  0  0  0
    2.6457  -11.4972  -33.6197 C   0  0  0  0  0  0  0  0  0  0  0  0
    1.9755  -10.4809  -33.5456 O   0  0  0  0  0  0  0  0  0  0  0  0
    3.7444  -11.6203  -34.4750 N   0  0  0  0  0  0  0  0  0  0  0  0
    4.5371  -12.8616  -34.5854 C   0  0  0  0  0  0  0  0  0  0  0  0
    4.1694  -10.5089  -35.3504 C   0  0  0  0  0  0  0  0  0  0  0  0
    4.8918   -9.4427  -34.5738 C   0  0  0  0  0  0  0  0  0  0  0  0
    4.8737   -9.3393  -33.2081 C   0  0  0  0  0  0  0  0  0  0  0  0
    5.6459   -8.1822  -32.9218 C   0  0  0  0  0  0  0  0  0  0  0  0
    5.9293   -7.6323  -31.5737 C   0  0  0  0  0  0  0  0  0  0  0  0
    6.0339   -8.4316  -30.6604 O   0  5  0  0  0  0  0  0  0  0  0  0
    6.0402   -6.4247  -31.4501 O   0  0  0  0  0  0  0  0  0  0  0  0
    6.0365   -7.7293  -34.1665 C   0  0  0  0  0  0  0  0  0  0  0  0
    6.8791   -6.5088  -34.4328 C   0  0  0  0  0  0  0  0  0  0  0  0
    5.5958   -8.4726  -35.2313 O   0  0  0  0  0  0  0  0  0  0  0  0
    1.4893  -14.6722  -27.0100 H   0  0  0  0  0  0  0  0  0  0  0  0
    1.0167  -13.9883  -28.5469 H   0  0  0  0  0  0  0  0  0  0  0  0
    2.1360  -13.1299  -27.5157 H   0  0  0  0  0  0  0  0  0  0  0  0
    2.6714  -15.7910  -28.8291 H   0  0  0  0  0  0  0  0  0  0  0  0
    4.5509  -13.9931  -27.2858 H   0  0  0  0  0  0  0  0  0  0  0  0
    5.0037  -15.4787  -28.0865 H   0  0  0  0  0  0  0  0  0  0  0  0
    3.9187  -15.5197  -26.7174 H   0  0  0  0  0  0  0  0  0  0  0  0
    1.5150  -15.6395  -30.5429 H   0  0  0  0  0  0  0  0  0  0  0  0
    0.2606  -15.3495  -32.6294 H   0  0  0  0  0  0  0  0  0  0  0  0
    0.7849  -13.4305  -34.0647 H   0  0  0  0  0  0  0  0  0  0  0  0
    4.1459  -13.5957  -33.9124 H   0  0  0  0  0  0  0  0  0  0  0  0
    5.5572  -12.6567  -34.3360 H   0  0  0  0  0  0  0  0  0  0  0  0
    4.4825  -13.2317  -35.5878 H   0  0  0  0  0  0  0  0  0  0  0  0
    3.3048  -10.0784  -35.8109 H   0  0  0  0  0  0  0  0  0  0  0  0
    4.8387  -10.8992  -36.0883 H   0  0  0  0  0  0  0  0  0  0  0  0
    4.4028   -9.9644  -32.5354 H   0  0  0  0  0  0  0  0  0  0  0  0
    7.1386   -6.0450  -33.5041 H   0  0  0  0  0  0  0  0  0  0  0  0
    6.3262   -5.8179  -35.0343 H   0  0  0  0  0  0  0  0  0  0  0  0
    7.7711   -6.7968  -34.9490 H   0  0  0  0  0  0  0  0  0  0  0  0
  1  2  1  0  0  0  0
  1 25  1  0  0  0  0
  1 26  1  0  0  0  0
  1 27  1  0  0  0  0
  2  3  1  0  0  0  0
  2  4  1  0  0  0  0
  2 28  1  0  0  0  0
  3 29  1  0  0  0  0
  3 30  1  0  0  0  0
  3 31  1  0  0  0  0
  4  5  1  0  0  0  0
  5  6  2  0  0  0  0
  5 10  1  0  0  0  0
  6  7  1  0  0  0  0
  6 32  1  0  0  0  0
  7  8  2  0  0  0  0
  7 33  1  0  0  0  0
  8  9  1  0  0  0  0
  8 34  1  0  0  0  0
  9 10  2  0  0  0  0
  9 11  1  0  0  0  0
 11 12  2  0  0  0  0
 11 13  1  0  0  0  0
 13 14  1  0  0  0  0
 13 15  1  0  0  0  0
 14 35  1  0  0  0  0
 14 36  1  0  0  0  0
 14 37  1  0  0  0  0
 15 16  1  0  0  0  0
 15 38  1  0  0  0  0
 15 39  1  0  0  0  0
 16 17  2  0  0  0  0
 16 24  1  0  0  0  0
 17 18  1  0  0  0  0
 17 40  1  0  0  0  0
 18 19  1  0  0  0  0
 18 22  2  0  0  0  0
 19 20  1  0  0  0  0
 19 21  2  0  0  0  0
 22 23  1  0  0  0  0
 22 24  1  0  0  0  0
 23 41  1  0  0  0  0
 23 42  1  0  0  0  0
 23 43  1  0  0  0  0
M  CHG  1  20  -1
M  END
$$$$
