##########                                Name: HTS1710-00622168-01
##########                    Molecular_Weight:             329.311
##########                DOCK_Rotatable_Bonds:                   5
##########                       Formal_Charge:                  -3
##########                     HBond_Acceptors:                  10
##########                        HBond_Donors:                   1
##########                         Heavy_Atoms:                  21
##########                          Grid_Score:          -84.901566
##########                     Grid_vdw_energy:          -34.754288
##########                      Grid_es_energy:          -50.147274
##########           Internal_energy_repulsive:            6.101189

@<TRIPOS>MOLECULE
HTS1710-00622168-01
 28 29 1 0 0
SMALL
USER_CHARGES


@<TRIPOS>ATOM
      1 C           4.8009   -9.2503  -35.0077 C.2     1  UNL1        0.0477
      2 C           4.6693   -9.2720  -33.6423 C.2     1  UNL1       -0.0409
      3 S           3.9373  -10.3179  -36.1521 S.O2    1  UNL1        0.0597
      4 O           5.6788   -8.3056  -35.4714 O.co2   1  UNL1       -0.7695
      5 C           5.5299   -8.2542  -33.1554 C.2     1  UNL1       -0.0128
      6 N           2.3736  -10.4048  -35.4938 N.pl3   1  UNL1       -0.2161
      7 O           4.4807  -11.6696  -35.9893 O.2     1  UNL1       -0.1511
      8 O           3.8136   -9.6287  -37.4407 O.2     1  UNL1       -0.1511
      9 C           6.0965   -7.7336  -34.2986 C.2     1  UNL1       -0.1111
     10 C           5.7306   -7.8810  -31.7347 C.2     1  UNL1        0.0708
     11 C           1.4868   -9.3918  -35.1921 C.ar    1  UNL1        0.0639
     12 C           7.1116   -6.6207  -34.3498 C.3     1  UNL1       -0.0524
     13 O           5.4492   -8.6958  -30.8736 O.co2   1  UNL1       -0.5447
     14 O           6.1738   -6.7669  -31.5128 O.co2   1  UNL1       -0.5447
     15 C           1.0356   -9.1105  -33.9156 C.ar    1  UNL1        0.0568
     16 C           0.9459   -8.5255  -36.1893 C.ar    1  UNL1       -0.0316
     17 S          -0.0923   -7.7516  -33.9475 S.2     1  UNL1       -0.0935
     18 C           1.4006   -9.8041  -32.6494 C.2     1  UNL1        0.0801
     19 C           0.0822   -7.5874  -35.6888 C.ar    1  UNL1       -0.0219
     20 O           1.5460  -11.0148  -32.6615 O.co2   1  UNL1       -0.5440
     21 O           1.5384   -9.1083  -31.6586 O.co2   1  UNL1       -0.5440
     22 H           4.0686   -9.8990  -33.0846 H       1  UNL1        0.0632
     23 H           2.0518  -11.3145  -35.2983 H       1  UNL1        0.1737
     24 H           7.3740   -6.4238  -35.3682 H       1  UNL1        0.0266
     25 H           7.9862   -6.9104  -33.8057 H       1  UNL1        0.0266
     26 H           6.6951   -5.7378  -33.9117 H       1  UNL1        0.0266
     27 H           1.1827   -8.5988  -37.1911 H       1  UNL1        0.0642
     28 H          -0.4026   -6.8771  -36.2595 H       1  UNL1        0.0694
@<TRIPOS>BOND
     1     1     2    2
     2     1     3    1
     3     1     4    1
     4     2     5    1
     5     3     6    1
     6     3     7    2
     7     3     8    2
     8     4     9    1
     9     5    10    1
    10     6    11    1
    11     9    12    1
    12    10    13   ar
    13    10    14   ar
    14    11    15   ar
    15    11    16   ar
    16    15    17   ar
    17    15    18    1
    18    16    19   ar
    19    18    20   ar
    20    18    21   ar
    21     5     9    2
    22    17    19   ar
    23     2    22    1
    24     6    23    1
    25    12    24    1
    26    12    25    1
    27    12    26    1
    28    16    27    1
    29    19    28    1
@<TRIPOS>SUBSTRUCTURE
     1 UNL1        1 TEMP              0 ****  ****    0 ROOT


