HTS1710-04762838-01
 OpenBabel03232612353D

 41 43  0  0  1  0  0  0  0  0999 V2000
    2.2465  -14.5326  -28.3598 C   0  0  0  0  0  0  0  0  0  0  0  0
    2.7367  -13.2240  -28.9619 C   0  0  0  0  0  0  0  0  0  0  0  0
    3.2824  -13.1994  -30.2556 C   0  0  0  0  0  0  0  0  0  0  0  0
    3.7367  -11.9930  -30.8108 C   0  0  0  0  0  0  0  0  0  0  0  0
    3.6306  -10.7796  -30.0985 C   0  0  0  0  0  0  0  0  0  0  0  0
    3.1167  -10.8221  -28.7836 C   0  0  0  0  0  0  0  0  0  0  0  0
    2.6637  -12.0295  -28.2268 C   0  0  0  0  0  0  0  0  0  0  0  0
    4.1557   -9.5457  -30.7192 C   0  0  0  0  0  0  0  0  0  0  0  0
    5.4590   -9.1902  -30.5206 O   0  0  0  0  0  0  0  0  0  0  0  0
    5.4186   -7.9241  -31.0588 C   0  0  0  0  0  0  0  0  0  0  0  0
    4.2647   -7.5278  -31.5682 N   0  0  0  0  0  0  0  0  0  0  0  0
    3.4216   -8.5778  -31.3633 C   0  0  0  0  0  0  0  0  0  0  0  0
    2.0446   -8.7172  -31.9511 C   0  0  0  0  0  0  0  0  0  0  0  0
    1.0703   -8.2675  -31.3699 O   0  0  0  0  0  0  0  0  0  0  0  0
    1.9002   -9.4120  -33.1727 N   0  0  0  0  0  0  0  0  0  0  0  0
    0.5993   -9.6274  -33.8708 C   0  0  0  0  0  0  0  0  0  0  0  0
    0.6031  -10.7348  -34.9475 C   0  0  0  0  0  0  0  0  0  0  0  0
    1.7745  -10.5825  -35.7545 O   0  0  0  0  0  0  0  0  0  0  0  0
    2.9736  -10.8552  -35.0158 C   0  0  1  0  0  0  0  0  0  0  0  0
    4.1676  -10.8769  -36.0000 C   0  0  0  0  0  0  0  0  0  0  0  0
    4.4624   -9.4868  -36.5777 C   0  0  0  0  0  0  0  0  0  0  0  0
    3.8148   -9.1415  -37.5506 O   0  5  0  0  0  0  0  0  0  0  0  0
    5.3426   -8.8338  -36.0447 O   0  0  0  0  0  0  0  0  0  0  0  0
    3.1386   -9.7621  -33.9302 C   0  0  0  0  0  0  0  0  0  0  0  0
    2.3839  -15.3240  -29.0666 H   0  0  0  0  0  0  0  0  0  0  0  0
    1.2077  -14.4469  -28.1178 H   0  0  0  0  0  0  0  0  0  0  0  0
    2.8030  -14.7471  -27.4714 H   0  0  0  0  0  0  0  0  0  0  0  0
    3.3498  -14.0730  -30.8009 H   0  0  0  0  0  0  0  0  0  0  0  0
    4.1547  -11.9934  -31.7544 H   0  0  0  0  0  0  0  0  0  0  0  0
    3.0736   -9.9554  -28.2250 H   0  0  0  0  0  0  0  0  0  0  0  0
    2.2746  -12.0390  -27.2711 H   0  0  0  0  0  0  0  0  0  0  0  0
    6.2500   -7.3129  -31.0646 H   0  0  0  0  0  0  0  0  0  0  0  0
    0.3215   -8.7083  -34.3431 H   0  0  0  0  0  0  0  0  0  0  0  0
   -0.0903   -9.9488  -33.1185 H   0  0  0  0  0  0  0  0  0  0  0  0
   -0.2703  -10.6458  -35.5593 H   0  0  0  0  0  0  0  0  0  0  0  0
    0.6028  -11.6980  -34.4814 H   0  0  0  0  0  0  0  0  0  0  0  0
    2.9282  -11.8073  -34.5296 H   0  0  0  0  0  0  0  0  0  0  0  0
    3.9397  -11.5440  -36.8048 H   0  0  0  0  0  0  0  0  0  0  0  0
    5.0336  -11.2010  -35.4615 H   0  0  0  0  0  0  0  0  0  0  0  0
    3.4935   -8.8736  -34.4091 H   0  0  0  0  0  0  0  0  0  0  0  0
    3.8179  -10.1663  -33.2091 H   0  0  0  0  0  0  0  0  0  0  0  0
  1  2  1  0  0  0  0
  1 25  1  0  0  0  0
  1 26  1  0  0  0  0
  1 27  1  0  0  0  0
  2  3  2  0  0  0  0
  2  7  1  0  0  0  0
  3  4  1  0  0  0  0
  3 28  1  0  0  0  0
  4  5  2  0  0  0  0
  4 29  1  0  0  0  0
  5  6  1  0  0  0  0
  5  8  1  0  0  0  0
  6  7  2  0  0  0  0
  6 30  1  0  0  0  0
  7 31  1  0  0  0  0
  8  9  1  0  0  0  0
  8 12  2  0  0  0  0
  9 10  1  0  0  0  0
 10 11  2  0  0  0  0
 10 32  1  0  0  0  0
 11 12  1  0  0  0  0
 12 13  1  0  0  0  0
 13 14  2  0  0  0  0
 13 15  1  0  0  0  0
 15 16  1  0  0  0  0
 15 24  1  0  0  0  0
 16 17  1  0  0  0  0
 16 33  1  0  0  0  0
 16 34  1  0  0  0  0
 17 18  1  0  0  0  0
 17 35  1  0  0  0  0
 17 36  1  0  0  0  0
 18 19  1  0  0  0  0
 19 20  1  0  0  0  0
 19 24  1  0  0  0  0
 19 37  1  1  0  0  0
 20 21  1  0  0  0  0
 20 38  1  0  0  0  0
 20 39  1  0  0  0  0
 21 22  1  0  0  0  0
 21 23  2  0  0  0  0
 24 40  1  0  0  0  0
 24 41  1  0  0  0  0
M  CHG  1  22  -1
M  END
$$$$
