##########                                Name: HTS1710-01681422-01
##########                    Molecular_Weight:             395.322
##########                DOCK_Rotatable_Bonds:                   7
##########                       Formal_Charge:                  -2
##########                     HBond_Acceptors:                  11
##########                        HBond_Donors:                   1
##########                         Heavy_Atoms:                  27
##########                          Grid_Score:          -83.701042
##########                     Grid_vdw_energy:          -44.938980
##########                      Grid_es_energy:          -38.762062
##########           Internal_energy_repulsive:            9.128160

@<TRIPOS>MOLECULE
HTS1710-01681422-01
 37 38 1 0 0
SMALL
USER_CHARGES


@<TRIPOS>ATOM
      1 C           5.9262  -16.4860  -27.4587 C.3     1  UNL1        0.0820
      2 O           5.4288  -15.1969  -27.0578 O.3     1  UNL1       -0.4644
      3 C           5.3241  -14.1928  -27.9826 C.2     1  UNL1        0.3418
      4 O           6.1711  -13.3268  -28.1366 O.2     1  UNL1       -0.2449
      5 C           4.0441  -14.2586  -28.7894 C.ar    1  UNL1        0.0958
      6 C           4.0882  -14.1190  -30.1927 C.ar    1  UNL1       -0.0226
      7 C           2.9087  -14.1408  -30.9620 C.ar    1  UNL1        0.0490
      8 N           2.9467  -13.9584  -32.3294 N.pl3   1  UNL1       -0.2162
      9 S           2.6171  -12.5472  -33.2215 S.O2    1  UNL1        0.0724
     10 O           1.1607  -12.4396  -33.0904 O.2     1  UNL1       -0.1500
     11 O           3.2886  -12.7099  -34.5147 O.2     1  UNL1       -0.1500
     12 C           3.3276  -11.2012  -32.2532 C.ar    1  UNL1        0.1097
     13 C           4.2349  -10.3178  -32.8588 C.ar    1  UNL1       -0.0262
     14 C           4.7612   -9.2264  -32.1396 C.ar    1  UNL1       -0.0002
     15 C           4.3552   -9.0331  -30.8002 C.ar    1  UNL1       -0.0439
     16 C           3.4465   -9.9174  -30.1789 C.ar    1  UNL1       -0.0002
     17 C           2.9420  -11.0064  -30.9179 C.ar    1  UNL1       -0.0262
     18 C           3.0089   -9.6999  -28.7473 C.2     1  UNL1        0.0717
     19 O           2.5598  -10.6575  -28.1417 O.co2   1  UNL1       -0.5446
     20 O           3.1360   -8.5789  -28.2838 O.co2   1  UNL1       -0.5446
     21 C           5.7369   -8.2766  -32.7996 C.2     1  UNL1        0.0717
     22 O           6.1527   -7.3427  -32.1357 O.co2   1  UNL1       -0.5446
     23 O           6.0491   -8.5056  -33.9557 O.co2   1  UNL1       -0.5446
     24 C           1.6730  -14.3547  -30.3330 C.ar    1  UNL1       -0.0366
     25 C           1.6133  -14.5111  -28.9412 C.ar    1  UNL1       -0.0238
     26 C           2.7871  -14.4566  -28.1728 C.ar    1  UNL1        0.1375
     27 F           2.6833  -14.5852  -26.8315 F       1  UNL1       -0.2046
     28 H           5.9394  -17.1418  -26.6135 H       1  UNL1        0.0661
     29 H           6.9188  -16.3811  -27.8444 H       1  UNL1        0.0661
     30 H           5.2904  -16.8937  -28.2167 H       1  UNL1        0.0661
     31 H           4.9991  -13.9991  -30.6628 H       1  UNL1        0.0645
     32 H           3.1977  -14.7495  -32.8589 H       1  UNL1        0.1737
     33 H           4.5191  -10.4691  -33.8393 H       1  UNL1        0.0643
     34 H           4.7291   -8.2324  -30.2671 H       1  UNL1        0.0630
     35 H           2.2840  -11.6657  -30.4737 H       1  UNL1        0.0643
     36 H           0.8083  -14.3968  -30.8948 H       1  UNL1        0.0637
     37 H           0.7034  -14.6669  -28.4798 H       1  UNL1        0.0647
@<TRIPOS>BOND
     1     1     2    1
     2     2     3    1
     3     3     4    2
     4     3     5    1
     5     5     6   ar
     6     6     7   ar
     7     7     8    1
     8     8     9    1
     9     9    10    2
    10     9    11    2
    11     9    12    1
    12    12    13   ar
    13    13    14   ar
    14    14    15   ar
    15    15    16   ar
    16    16    17   ar
    17    12    17   ar
    18    16    18    1
    19    18    19   ar
    20    18    20   ar
    21    14    21    1
    22    21    22   ar
    23    21    23   ar
    24     7    24   ar
    25    24    25   ar
    26    25    26   ar
    27     5    26   ar
    28    26    27    1
    29     1    28    1
    30     1    29    1
    31     1    30    1
    32     6    31    1
    33     8    32    1
    34    13    33    1
    35    15    34    1
    36    17    35    1
    37    24    36    1
    38    25    37    1
@<TRIPOS>SUBSTRUCTURE
     1 UNL1        1 TEMP              0 ****  ****    0 ROOT


