##########                                Name: HTS1710-00097874-01
##########                    Molecular_Weight:              290.23
##########                DOCK_Rotatable_Bonds:                  11
##########                       Formal_Charge:                  -2
##########                     HBond_Acceptors:                  10
##########                        HBond_Donors:                   2
##########                         Heavy_Atoms:                  20
##########                          Grid_Score:          -75.896896
##########                     Grid_vdw_energy:          -27.750357
##########                      Grid_es_energy:          -48.146538
##########           Internal_energy_repulsive:           15.867514

@<TRIPOS>MOLECULE
HTS1710-00097874-01
 34 33 1 0 0
SMALL
USER_CHARGES


@<TRIPOS>ATOM
      1 C           5.6909  -13.5240  -27.9337 C.2     1  UNL1        0.0863
      2 C           2.3607  -13.6912  -28.5998 C.2     1  UNL1        0.0863
      3 C           4.1947  -10.9425  -34.5410 C.2     1  UNL1        0.0863
      4 C           4.6053  -10.1754  -31.0537 C.2     1  UNL1        0.0863
      5 N           4.3894  -14.7635  -29.6204 N.4     1  UNL1        0.2472
      6 N           4.2513  -12.1875  -32.4146 N.4     1  UNL1        0.2472
      7 O           2.1465  -12.6648  -29.2173 O.co2   1  UNL1       -0.5444
      8 O           4.8832  -12.7185  -27.5056 O.co2   1  UNL1       -0.5444
      9 O           3.3152  -10.1389  -34.7907 O.co2   1  UNL1       -0.5444
     10 O           5.4326   -9.6980  -31.8077 O.co2   1  UNL1       -0.5444
     11 C           2.9306  -14.8752  -29.3854 C.3     1  UNL1        0.0092
     12 C           5.1554  -14.8870  -28.3604 C.3     1  UNL1        0.0092
     13 C           3.7829  -12.2200  -33.8182 C.3     1  UNL1        0.0092
     14 C           3.5727  -11.1128  -31.6648 C.3     1  UNL1        0.0092
     15 C           4.0652  -13.4887  -31.7302 C.3     1  UNL1        0.0100
     16 C           4.7058  -13.5028  -30.3209 C.3     1  UNL1        0.0100
     17 O           5.3779  -10.8136  -34.7978 O.co2   1  UNL1       -0.5444
     18 O           6.8885  -13.3417  -28.0470 O.co2   1  UNL1       -0.5444
     19 O           4.5286   -9.9775  -29.8550 O.co2   1  UNL1       -0.5444
     20 O           2.1686  -13.8578  -27.4083 O.co2   1  UNL1       -0.5444
     21 H           4.6715  -15.5398  -30.2188 H       1  UNL1        0.2043
     22 H           5.2530  -11.9968  -32.4386 H       1  UNL1        0.2043
     23 H           2.4353  -14.9265  -30.3325 H       1  UNL1        0.0879
     24 H           2.7662  -15.7566  -28.8015 H       1  UNL1        0.0879
     25 H           5.9754  -15.5580  -28.5096 H       1  UNL1        0.0879
     26 H           4.5098  -15.2637  -27.5948 H       1  UNL1        0.0879
     27 H           4.2158  -13.0627  -34.3156 H       1  UNL1        0.0879
     28 H           2.7158  -12.2981  -33.8281 H       1  UNL1        0.0879
     29 H           2.9414  -10.5605  -32.3292 H       1  UNL1        0.0879
     30 H           2.9841  -11.5460  -30.8832 H       1  UNL1        0.0879
     31 H           4.5166  -14.2574  -32.3220 H       1  UNL1        0.0868
     32 H           3.0142  -13.6532  -31.6158 H       1  UNL1        0.0868
     33 H           4.3253  -12.6796  -29.7531 H       1  UNL1        0.0868
     34 H           5.7678  -13.4215  -30.4232 H       1  UNL1        0.0868
@<TRIPOS>BOND
     1     2    11    1
     2     3    13    1
     3     4    14    1
     4     5    12    1
     5     6    15    1
     6     2     7   ar
     7     1     8   ar
     8     3     9   ar
     9     4    10   ar
    10     5    11    1
    11     1    12    1
    12     6    13    1
    13     6    14    1
    14    15    16    1
    15     5    16    1
    16     3    17   ar
    17     1    18   ar
    18     4    19   ar
    19     2    20   ar
    20     5    21    1
    21     6    22    1
    22    11    23    1
    23    11    24    1
    24    12    25    1
    25    12    26    1
    26    13    27    1
    27    13    28    1
    28    14    29    1
    29    14    30    1
    30    15    31    1
    31    15    32    1
    32    16    33    1
    33    16    34    1
@<TRIPOS>SUBSTRUCTURE
     1 UNL1        1 TEMP              0 ****  ****    0 ROOT


