HTS1710-01227045-01
 OpenBabel03232612343D

 28 28  0  0  0  0  0  0  0  0999 V2000
    3.7054  -10.1042  -30.1121 C   0  0  0  0  0  0  0  0  0  0  0  0
    3.9945   -9.8062  -36.3155 C   0  0  0  0  0  0  0  0  0  0  0  0
    3.3423  -11.2760  -30.7285 C   0  0  0  0  0  0  0  0  0  0  0  0
    3.3861  -10.8787  -35.7100 C   0  0  0  0  0  0  0  0  0  0  0  0
    4.6704   -9.1663  -30.8270 C   0  0  0  0  0  0  0  0  0  0  0  0
    3.4334   -9.1443  -37.5616 C   0  0  0  0  0  0  0  0  0  0  0  0
    5.3227   -9.3073  -35.7604 C   0  0  0  0  0  0  0  0  0  0  0  0
    3.2434   -9.7396  -28.7122 C   0  0  0  0  0  0  0  0  0  0  0  0
    3.7300  -11.6923  -34.5005 C   0  0  0  0  0  0  0  0  0  0  0  0
    3.7086  -11.8870  -32.0453 C   0  0  0  0  0  0  0  0  0  0  0  0
    4.3870   -8.7661  -31.9426 O   0  5  0  0  0  0  0  0  0  0  0  0
    3.0280  -10.6357  -27.9140 O   0  5  0  0  0  0  0  0  0  0  0  0
    5.9003   -9.9767  -34.9209 O   0  5  0  0  0  0  0  0  0  0  0  0
    2.2359   -9.2234  -37.7790 O   0  5  0  0  0  0  0  0  0  0  0  0
    3.4128  -11.1759  -33.2270 C   0  0  0  0  0  0  0  0  0  0  0  0
    5.7466   -8.2422  -36.1771 O   0  0  0  0  0  0  0  0  0  0  0  0
    4.2136   -8.5416  -38.2785 O   0  0  0  0  0  0  0  0  0  0  0  0
    3.0893   -8.5559  -28.4614 O   0  0  0  0  0  0  0  0  0  0  0  0
    5.6888   -8.8454  -30.2359 O   0  0  0  0  0  0  0  0  0  0  0  0
    4.5235  -13.7302  -33.4203 C   0  0  0  0  0  0  0  0  0  0  0  0
    4.2485  -13.1835  -32.1597 C   0  0  0  0  0  0  0  0  0  0  0  0
    4.2686  -12.9916  -34.5836 C   0  0  0  0  0  0  0  0  0  0  0  0
    2.6871  -11.8493  -30.1743 H   0  0  0  0  0  0  0  0  0  0  0  0
    2.5208  -11.1844  -36.1820 H   0  0  0  0  0  0  0  0  0  0  0  0
    2.9528  -10.2548  -33.1579 H   0  0  0  0  0  0  0  0  0  0  0  0
    4.9159  -14.6820  -33.4925 H   0  0  0  0  0  0  0  0  0  0  0  0
    4.4429  -13.7345  -31.3089 H   0  0  0  0  0  0  0  0  0  0  0  0
    4.4767  -13.4022  -35.5073 H   0  0  0  0  0  0  0  0  0  0  0  0
  1  3  2  0  0  0  0
  1  5  1  0  0  0  0
  1  8  1  0  0  0  0
  2  4  2  0  0  0  0
  2  6  1  0  0  0  0
  2  7  1  0  0  0  0
  3 10  1  0  0  0  0
  3 23  1  0  0  0  0
  4  9  1  0  0  0  0
  4 24  1  0  0  0  0
  5 11  1  0  0  0  0
  5 19  2  0  0  0  0
  6 14  1  0  0  0  0
  6 17  2  0  0  0  0
  7 13  1  0  0  0  0
  7 16  2  0  0  0  0
  8 12  1  0  0  0  0
  8 18  2  0  0  0  0
  9 15  2  0  0  0  0
  9 22  1  0  0  0  0
 10 15  1  0  0  0  0
 10 21  2  0  0  0  0
 15 25  1  0  0  0  0
 20 21  1  0  0  0  0
 20 22  2  0  0  0  0
 20 26  1  0  0  0  0
 21 27  1  0  0  0  0
 22 28  1  0  0  0  0
M  CHG  4  11  -1  12  -1  13  -1  14  -1
M  END
$$$$
