##########                                Name: HTS1710-01161277-01
##########                    Molecular_Weight:              339.35
##########                DOCK_Rotatable_Bonds:                   7
##########                       Formal_Charge:                  -2
##########                     HBond_Acceptors:                   9
##########                        HBond_Donors:                   0
##########                         Heavy_Atoms:                  22
##########                          Grid_Score:          -74.736542
##########                     Grid_vdw_energy:          -35.136654
##########                      Grid_es_energy:          -39.599888
##########           Internal_energy_repulsive:           12.479411

@<TRIPOS>MOLECULE
HTS1710-01161277-01
 31 32 1 0 0
SMALL
USER_CHARGES


@<TRIPOS>ATOM
      1 N           3.9367  -10.7961  -30.2669 N.am    1  UNL1       -0.2466
      2 C           2.9316  -10.1308  -29.5730 C.2     1  UNL1        0.1211
      3 C           4.3765  -11.9678  -29.6495 C.2     1  UNL1        0.2590
      4 C           3.6912  -12.1403  -28.3420 C.2     1  UNL1        0.0801
      5 S           2.4425  -10.9460  -28.0615 S.3     1  UNL1       -0.0609
      6 C           4.4691  -10.3595  -31.5888 C.3     1  UNL1        0.0718
      7 C           3.8861  -13.1331  -27.4021 C.2     1  UNL1       -0.0005
      8 C           4.8964   -8.8762  -31.5288 C.2     1  UNL1        0.0626
      9 C           4.8647  -14.2292  -27.4268 C.ar    1  UNL1        0.1289
     10 S           2.1397   -8.7417  -30.0760 S.2     1  UNL1       -0.0272
     11 C           3.5185  -10.7140  -32.7731 C.3     1  UNL1       -0.0235
     12 O           5.1630  -12.7441  -30.1597 O.2     1  UNL1       -0.2690
     13 O           5.9275  -14.1068  -26.5619 O.2     1  UNL1       -0.4635
     14 C           4.9089   -9.8028  -34.7796 C.2     1  UNL1        0.0418
     15 C           4.9704  -15.3348  -28.2415 C.ar    1  UNL1       -0.0164
     16 O           5.7488   -8.5483  -30.7197 O.co2   1  UNL1       -0.5479
     17 C           6.6724  -15.2197  -26.8436 C.ar    1  UNL1        0.0925
     18 C           6.1567  -15.9940  -27.8440 C.ar    1  UNL1       -0.0233
     19 O           4.2619   -9.2348  -35.6433 O.co2   1  UNL1       -0.5498
     20 C           4.2914  -11.0303  -34.0844 C.3     1  UNL1       -0.0112
     21 O           4.3319   -8.1150  -32.2960 O.co2   1  UNL1       -0.5479
     22 O           6.0250   -9.4768  -34.4126 O.co2   1  UNL1       -0.5498
     23 H           5.3533  -10.9230  -31.8018 H       1  UNL1        0.0566
     24 H           3.2658  -13.1013  -26.5779 H       1  UNL1        0.0667
     25 H           2.8674   -9.8837  -32.9506 H       1  UNL1        0.0290
     26 H           2.9716  -11.5919  -32.4988 H       1  UNL1        0.0290
     27 H           4.3184  -15.6228  -28.9879 H       1  UNL1        0.0655
     28 H           7.5454  -15.4530  -26.3451 H       1  UNL1        0.1029
     29 H           6.5476  -16.8692  -28.2263 H       1  UNL1        0.0649
     30 H           5.0815  -11.7126  -33.8492 H       1  UNL1        0.0325
     31 H           3.5745  -11.4357  -34.7674 H       1  UNL1        0.0325
@<TRIPOS>BOND
     1     1     2    1
     2     1     3   am
     3     3     4    1
     4     2     5    1
     5     1     6    1
     6     4     7    2
     7     6     8    1
     8     7     9    1
     9     2    10    2
    10     6    11    1
    11     3    12    2
    12     9    13   ar
    13    14    20    1
    14     9    15   ar
    15     8    16   ar
    16    13    17   ar
    17    15    18   ar
    18    14    19   ar
    19    11    20    1
    20     8    21   ar
    21    14    22   ar
    22     4     5    1
    23    17    18   ar
    24     6    23    1
    25     7    24    1
    26    11    25    1
    27    11    26    1
    28    15    27    1
    29    17    28    1
    30    18    29    1
    31    20    30    1
    32    20    31    1
@<TRIPOS>SUBSTRUCTURE
     1 UNL1        1 TEMP              0 ****  ****    0 ROOT


