##########                                Name: HTS1710-01816850-01
##########                    Molecular_Weight:             404.463
##########                DOCK_Rotatable_Bonds:                   9
##########                       Formal_Charge:                  -2
##########                     HBond_Acceptors:                   8
##########                        HBond_Donors:                   2
##########                         Heavy_Atoms:                  29
##########                          Grid_Score:          -81.085449
##########                     Grid_vdw_energy:          -44.787777
##########                      Grid_es_energy:          -36.297668
##########           Internal_energy_repulsive:           17.934229

@<TRIPOS>MOLECULE
HTS1710-01816850-01
 57 60 1 0 0
SMALL
USER_CHARGES


@<TRIPOS>ATOM
      1 C           4.2134  -10.5012  -33.3654 C.2     1  UNL1        0.2173
      2 C           4.3666  -11.0434  -31.9292 C.3     1  UNL1        0.0465
      3 C           3.6149  -10.2144  -30.8144 C.3     1  UNL1        0.0127
      4 C          -0.4452   -6.8750  -34.7980 C.3     1  UNL1        0.0465
      5 C           3.7243  -12.4572  -31.7792 C.3     1  UNL1       -0.0291
      6 C          -1.9377   -7.2407  -34.4872 C.3     1  UNL1        0.0127
      7 C           2.7119  -11.2974  -30.1475 C.3     1  UNL1       -0.0321
      8 C          -2.0224   -7.0020  -32.9462 C.3     1  UNL1       -0.0321
      9 C           0.1479   -6.6243  -33.3752 C.3     1  UNL1       -0.0291
     10 C           0.2648   -7.9783  -35.6002 C.2     1  UNL1        0.2171
     11 C          -2.9952   -6.4978  -35.3338 C.2     1  UNL1        0.0458
     12 C           4.4985   -9.4420  -29.8078 C.2     1  UNL1        0.0458
     13 N           2.9968  -10.7173  -34.0013 N.am    1  UNL1       -0.3110
     14 C           2.2875  -12.1256  -31.3636 C.3     1  UNL1       -0.0460
     15 C          -0.6742   -7.5684  -32.4900 C.3     1  UNL1       -0.0460
     16 N           0.5116   -9.1818  -34.9572 N.am    1  UNL1       -0.3133
     17 O           5.1020   -9.9056  -33.9515 O.2     1  UNL1       -0.2755
     18 C           4.2800  -13.1208  -30.4901 C.3     1  UNL1       -0.0492
     19 C          -0.3438   -5.2380  -32.8826 C.3     1  UNL1       -0.0492
     20 C          -1.8492   -5.4901  -32.6083 C.3     1  UNL1       -0.0493
     21 C           3.5800  -12.3209  -29.3613 C.3     1  UNL1       -0.0493
     22 O           0.5884   -7.8387  -36.7690 O.2     1  UNL1       -0.2755
     23 O          -3.9765   -7.1287  -35.6862 O.co2   1  UNL1       -0.5495
     24 O           4.1950   -9.4629  -28.6270 O.co2   1  UNL1       -0.5495
     25 O           5.4618   -8.8550  -30.2697 O.co2   1  UNL1       -0.5495
     26 O          -2.7947   -5.3213  -35.5814 O.co2   1  UNL1       -0.5495
     27 C           1.1817  -10.3042  -35.6230 C.3     1  UNL1        0.0298
     28 C           2.7092  -10.2573  -35.3689 C.3     1  UNL1        0.0358
     29 C           3.4688  -11.1627  -36.3618 C.3     1  UNL1       -0.0452
     30 H           5.4271  -11.0112  -31.7905 H       1  UNL1        0.0403
     31 H           3.0794   -9.3919  -31.2406 H       1  UNL1        0.0371
     32 H          -0.3259   -6.0218  -35.4326 H       1  UNL1        0.0403
     33 H           3.8703  -13.0600  -32.6511 H       1  UNL1        0.0308
     34 H          -2.1844   -8.2441  -34.7654 H       1  UNL1        0.0371
     35 H           1.9624  -10.8576  -29.5233 H       1  UNL1        0.0307
     36 H          -2.9309   -7.3906  -32.5358 H       1  UNL1        0.0307
     37 H           1.2130   -6.7256  -33.3611 H       1  UNL1        0.0308
     38 H           2.2929  -11.2021  -33.5127 H       1  UNL1        0.1490
     39 H           1.7144  -12.9910  -31.1040 H       1  UNL1        0.0271
     40 H           1.6456  -11.6678  -32.0870 H       1  UNL1        0.0271
     41 H          -0.4919   -7.4304  -31.4447 H       1  UNL1        0.0271
     42 H          -0.5102   -8.6214  -32.5862 H       1  UNL1        0.0271
     43 H           0.2271   -9.2868  -34.0206 H       1  UNL1        0.1488
     44 H           5.3436  -13.0186  -30.4320 H       1  UNL1        0.0268
     45 H           4.0930  -14.1732  -30.4416 H       1  UNL1        0.0268
     46 H          -0.2085   -4.4903  -33.6360 H       1  UNL1        0.0268
     47 H           0.1895   -4.8765  -32.0283 H       1  UNL1        0.0268
     48 H          -2.4619   -4.8826  -33.2411 H       1  UNL1        0.0268
     49 H          -2.1407   -5.2467  -31.6080 H       1  UNL1        0.0268
     50 H           4.2960  -11.8226  -28.7416 H       1  UNL1        0.0268
     51 H           3.0097  -12.9371  -28.6980 H       1  UNL1        0.0268
     52 H           0.9987  -10.2483  -36.6758 H       1  UNL1        0.0480
     53 H           0.7946  -11.2201  -35.2276 H       1  UNL1        0.0480
     54 H           3.0338   -9.2464  -35.5018 H       1  UNL1        0.0511
     55 H           3.1502  -12.1763  -36.2358 H       1  UNL1        0.0248
     56 H           4.5201  -11.0934  -36.1751 H       1  UNL1        0.0248
     57 H           3.2627  -10.8459  -37.3628 H       1  UNL1        0.0248
@<TRIPOS>BOND
     1     1     2    1
     2     2     3    1
     3     4    10    1
     4     2     5    1
     5     4     6    1
     6     3     7    1
     7     6     8    1
     8     4     9    1
     9    10    16   am
    10     6    11    1
    11     3    12    1
    12     1    13   am
    13     5    14    1
    14     9    15    1
    15    16    27    1
    16     1    17    2
    17     5    18    1
    18     9    19    1
    19    19    20    1
    20    18    21    1
    21    10    22    2
    22    11    23   ar
    23    12    24   ar
    24    12    25   ar
    25    11    26   ar
    26    27    28    1
    27    13    28    1
    28    28    29    1
    29     7    14    1
    30     7    21    1
    31     8    15    1
    32     8    20    1
    33     2    30    1
    34     3    31    1
    35     4    32    1
    36     5    33    1
    37     6    34    1
    38     7    35    1
    39     8    36    1
    40     9    37    1
    41    13    38    1
    42    14    39    1
    43    14    40    1
    44    15    41    1
    45    15    42    1
    46    16    43    1
    47    18    44    1
    48    18    45    1
    49    19    46    1
    50    19    47    1
    51    20    48    1
    52    20    49    1
    53    21    50    1
    54    21    51    1
    55    27    52    1
    56    27    53    1
    57    28    54    1
    58    29    55    1
    59    29    56    1
    60    29    57    1
@<TRIPOS>SUBSTRUCTURE
     1 UNL1        1 TEMP              0 ****  ****    0 ROOT


