##########                                Name: HTS1710-05265090-01
##########                    Molecular_Weight:             355.349
##########                DOCK_Rotatable_Bonds:                   6
##########                       Formal_Charge:                  -2
##########                     HBond_Acceptors:                  10
##########                        HBond_Donors:                   1
##########                         Heavy_Atoms:                  23
##########                          Grid_Score:          -75.101639
##########                     Grid_vdw_energy:          -36.146385
##########                      Grid_es_energy:          -38.955257
##########           Internal_energy_repulsive:            5.969415

@<TRIPOS>MOLECULE
HTS1710-05265090-01
 32 33 1 0 0
SMALL
USER_CHARGES


@<TRIPOS>ATOM
      1 C           5.9967  -16.2960  -27.3317 C.3     1  UNL1        0.0788
      2 O           5.3791  -15.0180  -27.0998 O.3     1  UNL1       -0.4951
      3 C           4.5612  -14.3993  -28.0269 C.ar    1  UNL1        0.1208
      4 C           3.8339  -15.1259  -28.9907 C.ar    1  UNL1       -0.0181
      5 C           3.0237  -14.4495  -29.9134 C.ar    1  UNL1       -0.0352
      6 C           2.9236  -13.0429  -29.8898 C.ar    1  UNL1        0.0571
      7 N           2.1414  -12.3843  -30.8204 N.pl3   1  UNL1       -0.2156
      8 S           2.2044  -12.3885  -32.5181 S.O2    1  UNL1        0.0729
      9 O           0.9567  -11.7629  -32.9671 O.2     1  UNL1       -0.1500
     10 O           2.6296  -13.7442  -32.8834 O.2     1  UNL1       -0.1500
     11 C           3.5538  -11.2691  -32.8673 C.ar    1  UNL1        0.1161
     12 C           4.5659  -11.5915  -33.7397 C.ar    1  UNL1        0.0029
     13 S           5.7530  -10.3034  -33.8893 S.2     1  UNL1       -0.0935
     14 C           4.8559   -9.3147  -32.7454 C.ar    1  UNL1        0.0364
     15 C           3.7325   -9.9701  -32.3024 C.ar    1  UNL1       -0.0191
     16 C           5.2677   -7.9566  -32.3285 C.2     1  UNL1        0.0783
     17 O           5.8847   -7.2834  -33.1372 O.co2   1  UNL1       -0.5441
     18 O           4.9675   -7.5895  -31.2060 O.co2   1  UNL1       -0.5441
     19 C           3.6485  -12.3084  -28.9171 C.ar    1  UNL1        0.0231
     20 C           4.4631  -13.0003  -27.9979 C.ar    1  UNL1       -0.0093
     21 C           3.5938  -10.8011  -28.8394 C.2     1  UNL1        0.0736
     22 O           4.5768  -10.1762  -29.1988 O.co2   1  UNL1       -0.5446
     23 O           2.5554  -10.3081  -28.4353 O.co2   1  UNL1       -0.5446
     24 H           6.5803  -16.5703  -26.4779 H       1  UNL1        0.0660
     25 H           6.6301  -16.2352  -28.1921 H       1  UNL1        0.0660
     26 H           5.2394  -17.0333  -27.4979 H       1  UNL1        0.0660
     27 H           3.8975  -16.1556  -29.0172 H       1  UNL1        0.0655
     28 H           2.4946  -14.9869  -30.6178 H       1  UNL1        0.0638
     29 H           1.4316  -11.8205  -30.4361 H       1  UNL1        0.1737
     30 H           4.6225  -12.4874  -34.2489 H       1  UNL1        0.0713
     31 H           3.0754   -9.5593  -31.6209 H       1  UNL1        0.0649
     32 H           4.9961  -12.4688  -27.2919 H       1  UNL1        0.0661
@<TRIPOS>BOND
     1     1     2    1
     2     2     3    1
     3     3     4   ar
     4     4     5   ar
     5     5     6   ar
     6     6     7    1
     7     7     8    1
     8     8     9    2
     9     8    10    2
    10     8    11    1
    11    11    12   ar
    12    12    13   ar
    13    13    14   ar
    14    14    15   ar
    15    11    15   ar
    16    14    16    1
    17    16    17   ar
    18    16    18   ar
    19     6    19   ar
    20    19    20   ar
    21     3    20   ar
    22    19    21    1
    23    21    22   ar
    24    21    23   ar
    25     1    24    1
    26     1    25    1
    27     1    26    1
    28     4    27    1
    29     5    28    1
    30     7    29    1
    31    12    30    1
    32    15    31    1
    33    20    32    1
@<TRIPOS>SUBSTRUCTURE
     1 UNL1        1 TEMP              0 ****  ****    0 ROOT


