##########                                Name: HTS1710-00617293-01
##########                    Molecular_Weight:             329.352
##########                DOCK_Rotatable_Bonds:                   8
##########                       Formal_Charge:                  -2
##########                     HBond_Acceptors:                   6
##########                        HBond_Donors:                   0
##########                         Heavy_Atoms:                  24
##########                          Grid_Score:          -79.365112
##########                     Grid_vdw_energy:          -42.082561
##########                      Grid_es_energy:          -37.282547
##########           Internal_energy_repulsive:           13.293914

@<TRIPOS>MOLECULE
HTS1710-00617293-01
 43 44 1 0 0
SMALL
USER_CHARGES


@<TRIPOS>ATOM
      1 C           3.8420  -11.0936  -32.3058 C.3     1  UNL1        0.0795
      2 N           3.5374  -11.1738  -30.8539 N.am    1  UNL1       -0.2873
      3 C           4.8645   -9.9528  -32.3564 C.2     1  UNL1        0.0167
      4 C           2.6047  -10.8192  -33.1567 C.ar    1  UNL1       -0.0225
      5 C           4.2183  -10.2143  -30.1261 C.2     1  UNL1        0.2329
      6 C           2.7107  -12.2603  -30.2959 C.3     1  UNL1        0.0159
      7 C           5.0048   -9.4615  -31.1105 C.2     1  UNL1       -0.0358
      8 C           5.3745   -9.4144  -33.6530 C.2     1  UNL1        0.1579
      9 C           2.0741  -11.8315  -33.9761 C.ar    1  UNL1       -0.0565
     10 C           1.9711   -9.5612  -33.1145 C.ar    1  UNL1       -0.0565
     11 O           4.1657  -10.0428  -28.9199 O.2     1  UNL1       -0.2712
     12 C           3.4073  -13.6439  -30.3224 C.3     1  UNL1       -0.0371
     13 O           5.7495   -8.3964  -30.7385 O.co2   1  UNL1       -0.8701
     14 C           5.1717  -10.3004  -34.8854 C.3     1  UNL1       -0.0017
     15 O           6.0367   -8.3931  -33.7117 O.2     1  UNL1       -0.2926
     16 C           0.9254  -11.5901  -34.7467 C.ar    1  UNL1       -0.0614
     17 C           0.8227   -9.3207  -33.8833 C.ar    1  UNL1       -0.0614
     18 C           2.8743  -14.6156  -29.2395 C.3     1  UNL1       -0.0513
     19 C           0.2995  -10.3347  -34.7014 C.ar    1  UNL1       -0.0617
     20 C           3.6012  -14.4301  -27.8866 C.3     1  UNL1       -0.0479
     21 C           4.9272  -15.2235  -27.8265 C.3     1  UNL1       -0.0132
     22 C           6.0971  -14.3462  -27.3692 C.2     1  UNL1        0.0417
     23 O           6.3813  -13.3874  -28.0667 O.co2   1  UNL1       -0.5498
     24 O           6.6543  -14.6543  -26.3304 O.co2   1  UNL1       -0.5498
     25 H           4.2098  -12.0117  -32.7141 H       1  UNL1        0.0602
     26 H           1.8074  -12.3251  -30.8658 H       1  UNL1        0.0465
     27 H           2.5272  -12.0203  -29.2695 H       1  UNL1        0.0465
     28 H           2.5312  -12.7561  -34.0111 H       1  UNL1        0.0621
     29 H           2.3538   -8.8133  -32.5151 H       1  UNL1        0.0621
     30 H           4.4557  -13.5000  -30.1641 H       1  UNL1        0.0280
     31 H           3.2020  -14.0855  -31.2751 H       1  UNL1        0.0280
     32 H           4.5645  -11.1416  -34.6237 H       1  UNL1        0.0309
     33 H           6.1219  -10.6425  -35.2389 H       1  UNL1        0.0309
     34 H           4.6871   -9.7361  -35.6544 H       1  UNL1        0.0309
     35 H           0.5411  -12.3365  -35.3469 H       1  UNL1        0.0618
     36 H           0.3622   -8.3979  -33.8476 H       1  UNL1        0.0618
     37 H           3.0204  -15.6209  -29.5752 H       1  UNL1        0.0266
     38 H           1.8360  -14.4052  -29.0886 H       1  UNL1        0.0266
     39 H          -0.5441  -10.1572  -35.2686 H       1  UNL1        0.0618
     40 H           2.9596  -14.7698  -27.1005 H       1  UNL1        0.0269
     41 H           3.8328  -13.3913  -27.7761 H       1  UNL1        0.0269
     42 H           5.1441  -15.6093  -28.8007 H       1  UNL1        0.0325
     43 H           4.8085  -16.0149  -27.1162 H       1  UNL1        0.0325
@<TRIPOS>BOND
     1     1     2    1
     2     1     3    1
     3     1     4    1
     4     2     5   am
     5     2     6    1
     6     3     7    2
     7     3     8    1
     8     4     9   ar
     9     4    10   ar
    10     5    11    2
    11     6    12    1
    12     7    13    1
    13     8    14    1
    14     8    15    2
    15     9    16   ar
    16    10    17   ar
    17    12    18    1
    18    16    19   ar
    19    18    20    1
    20    20    21    1
    21    21    22    1
    22    22    23   ar
    23    22    24   ar
    24     5     7    1
    25    17    19   ar
    26     1    25    1
    27     6    26    1
    28     6    27    1
    29     9    28    1
    30    10    29    1
    31    12    30    1
    32    12    31    1
    33    14    32    1
    34    14    33    1
    35    14    34    1
    36    16    35    1
    37    17    36    1
    38    18    37    1
    39    18    38    1
    40    19    39    1
    41    20    40    1
    42    20    41    1
    43    21    42    1
    44    21    43    1
@<TRIPOS>SUBSTRUCTURE
     1 UNL1        1 TEMP              0 ****  ****    0 ROOT


