HTS1710-00098401-01
 OpenBabel03232612343D

 48 47  0  0  0  0  0  0  0  0999 V2000
    3.5198  -12.2571  -27.9612 C   0  0  0  0  0  0  0  0  0  0  0  0
    5.9981  -14.7591  -27.0434 C   0  0  0  0  0  0  0  0  0  0  0  0
    3.1806   -9.7521  -35.9147 C   0  0  0  0  0  0  0  0  0  0  0  0
    5.0950   -9.8591  -32.9266 C   0  0  0  0  0  0  0  0  0  0  0  0
    0.2032  -14.6544  -33.2665 C   0  0  0  0  0  0  0  0  0  0  0  0
    4.1468  -14.4964  -28.7229 N   0  3  0  0  0  0  0  0  0  0  0  0
    3.6208  -11.3285  -34.1372 N   0  3  0  0  0  0  0  0  0  0  0  0
    0.0309  -14.1169  -34.3457 O   0  5  0  0  0  0  0  0  0  0  0  0
    4.6161  -11.7830  -28.1942 O   0  5  0  0  0  0  0  0  0  0  0  0
    6.2507  -13.7729  -26.3744 O   0  5  0  0  0  0  0  0  0  0  0  0
    2.2955   -9.2958  -35.2163 O   0  5  0  0  0  0  0  0  0  0  0  0
    5.4387   -8.9497  -33.6591 O   0  5  0  0  0  0  0  0  0  0  0  0
    3.4552  -13.7471  -27.6534 C   0  0  0  0  0  0  0  0  0  0  0  0
    5.6128  -14.5254  -28.5068 C   0  0  0  0  0  0  0  0  0  0  0  0
    3.6606  -11.1601  -35.5966 C   0  0  0  0  0  0  0  0  0  0  0  0
    4.9667  -11.2381  -33.5495 C   0  0  0  0  0  0  0  0  0  0  0  0
    2.0754  -13.8631  -31.8044 N   0  3  0  0  0  0  0  0  0  0  0  0
    0.6275  -13.7605  -32.1021 C   0  0  0  0  0  0  0  0  0  0  0  0
    3.8309  -13.9581  -30.0600 C   0  0  0  0  0  0  0  0  0  0  0  0
    2.9533  -12.5886  -33.7567 C   0  0  0  0  0  0  0  0  0  0  0  0
    2.4657  -11.6469  -27.9420 O   0  0  0  0  0  0  0  0  0  0  0  0
    3.7402   -9.1776  -36.8299 O   0  0  0  0  0  0  0  0  0  0  0  0
    0.0712  -15.8420  -33.0317 O   0  0  0  0  0  0  0  0  0  0  0  0
    4.8340   -9.7691  -31.7401 O   0  0  0  0  0  0  0  0  0  0  0  0
    6.0339  -15.9111  -26.6531 O   0  0  0  0  0  0  0  0  0  0  0  0
    2.3359  -14.1560  -30.3767 C   0  0  0  0  0  0  0  0  0  0  0  0
    2.7650  -12.6211  -32.2219 C   0  0  0  0  0  0  0  0  0  0  0  0
    3.8013  -15.4553  -28.6818 H   0  0  0  0  0  0  0  0  0  0  0  0
    3.0666  -10.5612  -33.7570 H   0  0  0  0  0  0  0  0  0  0  0  0
    3.9331  -13.9395  -26.7156 H   0  0  0  0  0  0  0  0  0  0  0  0
    2.4329  -14.0585  -27.6006 H   0  0  0  0  0  0  0  0  0  0  0  0
    6.0291  -15.3134  -29.0988 H   0  0  0  0  0  0  0  0  0  0  0  0
    5.9966  -13.5674  -28.7893 H   0  0  0  0  0  0  0  0  0  0  0  0
    4.6614  -11.2924  -35.9513 H   0  0  0  0  0  0  0  0  0  0  0  0
    3.0352  -11.8852  -36.0740 H   0  0  0  0  0  0  0  0  0  0  0  0
    5.0905  -11.9915  -32.7998 H   0  0  0  0  0  0  0  0  0  0  0  0
    5.7175  -11.3878  -34.2969 H   0  0  0  0  0  0  0  0  0  0  0  0
    2.4469  -14.6494  -32.3374 H   0  0  0  0  0  0  0  0  0  0  0  0
    0.0771  -14.0483  -31.2308 H   0  0  0  0  0  0  0  0  0  0  0  0
    0.4242  -12.7474  -32.3799 H   0  0  0  0  0  0  0  0  0  0  0  0
    4.4180  -14.4694  -30.7940 H   0  0  0  0  0  0  0  0  0  0  0  0
    4.0545  -12.9119  -30.0756 H   0  0  0  0  0  0  0  0  0  0  0  0
    3.5560  -13.4189  -34.0609 H   0  0  0  0  0  0  0  0  0  0  0  0
    1.9993  -12.6495  -34.2373 H   0  0  0  0  0  0  0  0  0  0  0  0
    2.0608  -15.1687  -30.1674 H   0  0  0  0  0  0  0  0  0  0  0  0
    1.7584  -13.4892  -29.7712 H   0  0  0  0  0  0  0  0  0  0  0  0
    2.1798  -11.7769  -31.9222 H   0  0  0  0  0  0  0  0  0  0  0  0
    3.7281  -12.5899  -31.7569 H   0  0  0  0  0  0  0  0  0  0  0  0
  1  9  1  0  0  0  0
  1 13  1  0  0  0  0
  1 21  2  0  0  0  0
  2 14  1  0  0  0  0
  2 10  1  0  0  0  0
  2 25  2  0  0  0  0
  3 15  1  0  0  0  0
  3 11  1  0  0  0  0
  3 22  2  0  0  0  0
  4 16  1  0  0  0  0
  4 12  1  0  0  0  0
  4 24  2  0  0  0  0
  5 18  1  0  0  0  0
  5  8  1  0  0  0  0
  5 23  2  0  0  0  0
  6 13  1  0  0  0  0
  6 14  1  0  0  0  0
  6 19  1  0  0  0  0
  6 28  1  0  0  0  0
  7 20  1  0  0  0  0
  7 15  1  0  0  0  0
  7 16  1  0  0  0  0
  7 29  1  0  0  0  0
 13 30  1  0  0  0  0
 13 31  1  0  0  0  0
 14 32  1  0  0  0  0
 14 33  1  0  0  0  0
 15 34  1  0  0  0  0
 15 35  1  0  0  0  0
 16 36  1  0  0  0  0
 16 37  1  0  0  0  0
 17 26  1  0  0  0  0
 17 18  1  0  0  0  0
 17 27  1  0  0  0  0
 17 38  1  0  0  0  0
 18 39  1  0  0  0  0
 18 40  1  0  0  0  0
 19 26  1  0  0  0  0
 19 41  1  0  0  0  0
 19 42  1  0  0  0  0
 20 27  1  0  0  0  0
 20 43  1  0  0  0  0
 20 44  1  0  0  0  0
 26 45  1  0  0  0  0
 26 46  1  0  0  0  0
 27 47  1  0  0  0  0
 27 48  1  0  0  0  0
M  CHG  8   6   1   7   1   8  -1   9  -1  10  -1  11  -1  12  -1  17   1
M  END
$$$$
