##########                                Name: HTS1710-01263766-01
##########                    Molecular_Weight:             386.358
##########                DOCK_Rotatable_Bonds:                   9
##########                       Formal_Charge:                  -2
##########                     HBond_Acceptors:                   8
##########                        HBond_Donors:                   4
##########                         Heavy_Atoms:                  28
##########                          Grid_Score:          -77.858948
##########                     Grid_vdw_energy:          -40.160610
##########                      Grid_es_energy:          -37.698334
##########           Internal_energy_repulsive:           10.196686

@<TRIPOS>MOLECULE
HTS1710-01263766-01
 46 48 1 0 0
SMALL
USER_CHARGES


@<TRIPOS>ATOM
      1 C           1.9613   -8.6980  -32.6899 C.2     1  UNL1       -0.0603
      2 C           3.9954   -7.6066  -31.7202 C.2     1  UNL1       -0.0603
      3 C           5.1341   -8.0068  -32.4097 C.2     1  UNL1        0.1535
      4 C           0.6153   -8.3739  -32.6322 C.2     1  UNL1        0.1535
      5 C           2.8398   -8.5603  -31.4557 C.3     1  UNL1        0.0152
      6 C           6.2364   -7.0722  -32.6831 C.2     1  UNL1        0.2184
      7 C          -0.2539   -8.4814  -33.8148 C.2     1  UNL1        0.2184
      8 O           3.8054   -6.3216  -31.2503 O.co2   1  UNL1       -0.7814
      9 O           2.5935   -9.1246  -33.8432 O.co2   1  UNL1       -0.7814
     10 C           5.9808   -5.7297  -32.1642 C.2     1  UNL1       -0.0198
     11 C           0.4656   -8.9386  -35.0038 C.2     1  UNL1       -0.0198
     12 C           1.8134   -9.2248  -34.9736 C.2     1  UNL1       -0.0884
     13 C           4.8179   -5.4169  -31.4953 C.2     1  UNL1       -0.0884
     14 C           3.2453   -9.9192  -30.8529 C.ar    1  UNL1       -0.0376
     15 O           7.2600   -7.3677  -33.2769 O.2     1  UNL1       -0.2841
     16 O          -1.4455   -8.2190  -33.8220 O.2     1  UNL1       -0.2841
     17 O           5.3512   -9.2566  -32.8774 O.2     1  UNL1       -0.5038
     18 O          -0.0169   -7.9276  -31.5217 O.2     1  UNL1       -0.5038
     19 C           3.3158  -11.1050  -31.6177 C.ar    1  UNL1       -0.0575
     20 C           3.5901   -9.9784  -29.4871 C.ar    1  UNL1       -0.0575
     21 C           3.9731  -11.1907  -28.8927 C.ar    1  UNL1       -0.0586
     22 C           3.6996  -12.3171  -31.0209 C.ar    1  UNL1       -0.0586
     23 C           4.0290  -12.3674  -29.6563 C.ar    1  UNL1       -0.0504
     24 C           2.5126   -9.6742  -36.2288 C.3     1  UNL1        0.0566
     25 C           4.6033   -4.0164  -30.9828 C.3     1  UNL1        0.0566
     26 O           3.9160   -9.4414  -36.1439 O.3     1  UNL1       -0.3915
     27 O           3.7832   -4.0161  -29.8191 O.3     1  UNL1       -0.3915
     28 C           4.4429  -13.6817  -29.0092 C.3     1  UNL1       -0.0397
     29 H           2.2579   -8.1087  -30.6795 H       1  UNL1        0.0425
     30 H           6.6920   -4.9949  -32.3031 H       1  UNL1        0.0649
     31 H          -0.0508   -9.0499  -35.8903 H       1  UNL1        0.0649
     32 H           4.7386   -9.9402  -32.6892 H       1  UNL1        0.2923
     33 H          -0.9145   -7.6628  -31.5679 H       1  UNL1        0.2923
     34 H           3.0835  -11.0803  -32.6229 H       1  UNL1        0.0621
     35 H           3.5605   -9.1188  -28.9169 H       1  UNL1        0.0621
     36 H           4.2146  -11.2172  -27.8898 H       1  UNL1        0.0620
     37 H           3.7398  -13.1775  -31.5894 H       1  UNL1        0.0620
     38 H           2.1178   -9.1317  -37.0624 H       1  UNL1        0.0596
     39 H           2.3483  -10.7242  -36.3528 H       1  UNL1        0.0596
     40 H           4.1287   -3.4344  -31.7449 H       1  UNL1        0.0596
     41 H           5.5547   -3.5985  -30.7279 H       1  UNL1        0.0596
     42 H           4.2855   -9.9574  -35.4104 H       1  UNL1        0.2098
     43 H           3.6487   -3.1037  -29.5186 H       1  UNL1        0.2098
     44 H           4.6529  -13.5184  -27.9727 H       1  UNL1        0.0278
     45 H           5.3185  -14.0585  -29.4954 H       1  UNL1        0.0278
     46 H           3.6484  -14.3919  -29.1046 H       1  UNL1        0.0278
@<TRIPOS>BOND
     1     2     5    1
     2     2     3    2
     3     1     4    2
     4     1     5    1
     5     3     6    1
     6     4     7    1
     7     2     8    1
     8     1     9    1
     9    10    13    2
    10    11    12    2
    11     9    12    1
    12     8    13    1
    13     5    14    1
    14     6    15    2
    15     7    16    2
    16     3    17    1
    17     4    18    1
    18    14    19   ar
    19    14    20   ar
    20    20    21   ar
    21    19    22   ar
    22    21    23   ar
    23    12    24    1
    24    13    25    1
    25    24    26    1
    26    25    27    1
    27    23    28    1
    28     7    11    1
    29    22    23   ar
    30     6    10    1
    31     5    29    1
    32    10    30    1
    33    11    31    1
    34    17    32    1
    35    18    33    1
    36    19    34    1
    37    20    35    1
    38    21    36    1
    39    22    37    1
    40    24    38    1
    41    24    39    1
    42    25    40    1
    43    25    41    1
    44    26    42    1
    45    27    43    1
    46    28    44    1
    47    28    45    1
    48    28    46    1
@<TRIPOS>SUBSTRUCTURE
     1 UNL1        1 TEMP              0 ****  ****    0 ROOT


