##########                                Name: HTS1710-03576611-01
##########                    Molecular_Weight:             395.328
##########                DOCK_Rotatable_Bonds:                   8
##########                       Formal_Charge:                  -2
##########                     HBond_Acceptors:                  10
##########                        HBond_Donors:                   0
##########                         Heavy_Atoms:                  29
##########                          Grid_Score:          -78.958748
##########                     Grid_vdw_energy:          -44.078346
##########                      Grid_es_energy:          -34.880402
##########           Internal_energy_repulsive:            8.498862

@<TRIPOS>MOLECULE
HTS1710-03576611-01
 42 44 1 0 0
SMALL
USER_CHARGES


@<TRIPOS>ATOM
      1 C           2.5892  -10.1772  -29.9150 C.ar    1  UNL1        0.3322
      2 C           3.4576  -11.8847  -31.1798 C.ar    1  UNL1        0.3322
      3 N           2.7902  -10.7110  -31.1386 N.ar    1  UNL1       -0.1404
      4 N           2.9810  -10.7664  -28.7649 N.ar    1  UNL1       -0.1408
      5 N           3.8853  -12.5427  -30.0826 N.ar    1  UNL1       -0.1408
      6 C           3.6239  -11.9490  -28.8924 C.ar    1  UNL1        0.3267
      7 C           4.0819   -9.4499  -36.3288 C.2     1  UNL1        0.0718
      8 C           5.6779   -6.5220  -31.9321 C.2     1  UNL1        0.0718
      9 C           3.3392  -10.4999  -35.5361 C.ar    1  UNL1        0.0008
     10 C           4.2457   -6.5783  -31.4497 C.ar    1  UNL1        0.0008
     11 O           3.7109  -12.4603  -32.4081 O.3     1  UNL1       -0.4234
     12 O           1.9362   -8.9667  -29.8224 O.3     1  UNL1       -0.4234
     13 C           3.8918  -11.0184  -34.3471 C.ar    1  UNL1       -0.0104
     14 C           3.7338   -7.7551  -30.8592 C.ar    1  UNL1       -0.0104
     15 O           5.0745   -8.9588  -35.8205 O.co2   1  UNL1       -0.5446
     16 O           6.0708   -5.4716  -32.4098 O.co2   1  UNL1       -0.5446
     17 C           3.1908  -11.9795  -33.5920 C.ar    1  UNL1        0.1325
     18 C           2.4052   -7.8079  -30.4075 C.ar    1  UNL1        0.1325
     19 O           4.0264  -12.5703  -27.7281 O.3     1  UNL1       -0.4625
     20 O           6.3522   -7.5309  -31.8128 O.co2   1  UNL1       -0.5446
     21 O           3.6424   -9.1617  -37.4292 O.co2   1  UNL1       -0.5446
     22 C           2.0821  -10.9756  -35.9667 C.ar    1  UNL1       -0.0527
     23 C           3.3942   -5.4589  -31.5806 C.ar    1  UNL1       -0.0527
     24 C           2.0622   -5.5175  -31.1401 C.ar    1  UNL1       -0.0577
     25 C           1.3964  -11.9524  -35.2259 C.ar    1  UNL1       -0.0577
     26 C           1.9504  -12.4563  -34.0393 C.ar    1  UNL1       -0.0192
     27 C           1.5632   -6.6904  -30.5580 C.ar    1  UNL1       -0.0192
     28 C           4.0275  -14.0044  -27.5828 C.3     1  UNL1        0.0899
     29 C           5.4893  -14.4729  -27.4604 C.3     1  UNL1       -0.0306
     30 H           4.8169  -10.6914  -34.0274 H       1  UNL1        0.0661
     31 H           4.3415   -8.5831  -30.7588 H       1  UNL1        0.0661
     32 H           1.6631  -10.6026  -36.8330 H       1  UNL1        0.0624
     33 H           3.7545   -4.5895  -32.0042 H       1  UNL1        0.0624
     34 H           1.4490   -4.6942  -31.2453 H       1  UNL1        0.0619
     35 H           0.4824  -12.3005  -35.5552 H       1  UNL1        0.0619
     36 H           1.4466  -13.1757  -33.4975 H       1  UNL1        0.0654
     37 H           0.5820   -6.7346  -30.2411 H       1  UNL1        0.0654
     38 H           3.5727  -14.4559  -28.4396 H       1  UNL1        0.0695
     39 H           3.4736  -14.2888  -26.7127 H       1  UNL1        0.0695
     40 H           6.0314  -14.1824  -28.3360 H       1  UNL1        0.0262
     41 H           5.5154  -15.5380  -27.3618 H       1  UNL1        0.0262
     42 H           5.9368  -14.0238  -26.5985 H       1  UNL1        0.0262
@<TRIPOS>BOND
     1     2     3   ar
     2     1     3   ar
     3     1     4   ar
     4     5     6   ar
     5     4     6   ar
     6     7     9    1
     7     8    10    1
     8     9    13   ar
     9    10    14   ar
    10     2    11    1
    11     1    12    1
    12    13    17   ar
    13    14    18   ar
    14     7    15   ar
    15     8    16   ar
    16    11    17    1
    17    12    18    1
    18     6    19    1
    19     8    20   ar
    20     7    21   ar
    21    22    25   ar
    22    23    24   ar
    23    24    27   ar
    24    25    26   ar
    25    17    26   ar
    26    18    27   ar
    27    19    28    1
    28    28    29    1
    29     2     5   ar
    30    10    23   ar
    31     9    22   ar
    32    13    30    1
    33    14    31    1
    34    22    32    1
    35    23    33    1
    36    24    34    1
    37    25    35    1
    38    26    36    1
    39    27    37    1
    40    28    38    1
    41    28    39    1
    42    29    40    1
    43    29    41    1
    44    29    42    1
@<TRIPOS>SUBSTRUCTURE
     1 UNL1        1 TEMP              0 ****  ****    0 ROOT


