##########                                Name: HTS1710-04762208-01
##########                    Molecular_Weight:             308.354
##########                DOCK_Rotatable_Bonds:                   7
##########                       Formal_Charge:                  -2
##########                     HBond_Acceptors:                   6
##########                        HBond_Donors:                   0
##########                         Heavy_Atoms:                  22
##########                          Grid_Score:          -78.359192
##########                     Grid_vdw_energy:          -41.555672
##########                      Grid_es_energy:          -36.803516
##########           Internal_energy_repulsive:           12.880966

@<TRIPOS>MOLECULE
HTS1710-04762208-01
 44 45 1 0 0
SMALL
USER_CHARGES


@<TRIPOS>ATOM
      1 C           3.1338  -12.4433  -27.8428 C.3     1  UNL1       -0.0387
      2 C           3.1832  -13.4465  -29.0142 C.3     1  UNL1        0.0563
      3 C           2.1192  -14.5632  -28.9369 C.3     1  UNL1       -0.0245
      4 C           1.6624  -14.7601  -30.3950 C.3     1  UNL1       -0.0242
      5 C           2.5289  -13.7715  -31.2003 C.3     1  UNL1        0.0596
      6 C           1.8000  -13.1185  -32.4039 C.3     1  UNL1       -0.0183
      7 C           2.7792  -12.4079  -33.3757 C.3     1  UNL1        0.0265
      8 C           2.0768  -11.5046  -34.4154 C.2     1  UNL1        0.2157
      9 O           0.8596  -11.4410  -34.4843 O.2     1  UNL1       -0.2756
     10 N           2.9045  -10.7955  -35.2939 N.am    1  UNL1       -0.3013
     11 C           2.3994   -9.8081  -36.2719 C.3     1  UNL1        0.0035
     12 C           4.3759  -10.9170  -35.2162 C.3     1  UNL1        0.0265
     13 C           4.9930   -9.7336  -34.5198 C.2     1  UNL1       -0.0998
     14 C           4.8727   -9.4751  -33.1794 C.2     1  UNL1       -0.0630
     15 C           5.5793   -8.2614  -32.9771 C.2     1  UNL1       -0.0144
     16 C           5.7424   -7.5490  -31.6865 C.2     1  UNL1        0.0708
     17 O           5.8837   -8.2358  -30.6895 O.co2   1  UNL1       -0.5447
     18 O           5.7251   -6.3307  -31.6868 O.co2   1  UNL1       -0.5447
     19 C           6.0463   -7.9380  -34.2359 C.2     1  UNL1       -0.1120
     20 C           6.8692   -6.7236  -34.5828 C.3     1  UNL1       -0.0524
     21 O           5.7119   -8.8165  -35.2349 O.co2   1  UNL1       -0.7845
     22 O           2.8548  -12.7637  -30.2319 O.3     1  UNL1       -0.3736
     23 H           3.3779  -12.9473  -26.9311 H       1  UNL1        0.0254
     24 H           2.1498  -12.0293  -27.7690 H       1  UNL1        0.0254
     25 H           3.8392  -11.6577  -28.0160 H       1  UNL1        0.0254
     26 H           4.1674  -13.8641  -28.9728 H       1  UNL1        0.0593
     27 H           1.2982  -14.2617  -28.3205 H       1  UNL1        0.0291
     28 H           2.5041  -15.4635  -28.5054 H       1  UNL1        0.0291
     29 H           0.6233  -14.5279  -30.5016 H       1  UNL1        0.0291
     30 H           1.7775  -15.7706  -30.7273 H       1  UNL1        0.0291
     31 H           3.3664  -14.2730  -31.6386 H       1  UNL1        0.0596
     32 H           1.1016  -12.3979  -32.0325 H       1  UNL1        0.0295
     33 H           1.3085  -13.8974  -32.9486 H       1  UNL1        0.0295
     34 H           3.3370  -13.1556  -33.8998 H       1  UNL1        0.0359
     35 H           3.4040  -11.7739  -32.7820 H       1  UNL1        0.0359
     36 H           1.3298   -9.7986  -36.2491 H       1  UNL1        0.0429
     37 H           2.7329  -10.0750  -37.2529 H       1  UNL1        0.0429
     38 H           2.7702   -8.8361  -36.0214 H       1  UNL1        0.0429
     39 H           4.7719  -10.9818  -36.2081 H       1  UNL1        0.0502
     40 H           4.6101  -11.7964  -34.6534 H       1  UNL1        0.0502
     41 H           4.3768  -10.0396  -32.4720 H       1  UNL1        0.0615
     42 H           7.0420   -6.1455  -33.6991 H       1  UNL1        0.0266
     43 H           6.3432   -6.1294  -35.3005 H       1  UNL1        0.0266
     44 H           7.8066   -7.0338  -34.9950 H       1  UNL1        0.0266
@<TRIPOS>BOND
     1     1     2    1
     2     2     3    1
     3     3     4    1
     4     4     5    1
     5     5     6    1
     6     6     7    1
     7     7     8    1
     8     8     9    2
     9     8    10   am
    10    10    11    1
    11    10    12    1
    12    12    13    1
    13    13    14    2
    14    14    15    1
    15    15    16    1
    16    16    17   ar
    17    16    18   ar
    18    15    19    2
    19    19    20    1
    20    19    21    1
    21    13    21    1
    22     5    22    1
    23     2    22    1
    24     1    23    1
    25     1    24    1
    26     1    25    1
    27     2    26    1
    28     3    27    1
    29     3    28    1
    30     4    29    1
    31     4    30    1
    32     5    31    1
    33     6    32    1
    34     6    33    1
    35     7    34    1
    36     7    35    1
    37    11    36    1
    38    11    37    1
    39    11    38    1
    40    12    39    1
    41    12    40    1
    42    14    41    1
    43    20    42    1
    44    20    43    1
    45    20    44    1
@<TRIPOS>SUBSTRUCTURE
     1 UNL1        1 TEMP              0 ****  ****    0 ROOT


