##########                                Name: HTS1710-02483122-01
##########                    Molecular_Weight:             373.362
##########                DOCK_Rotatable_Bonds:                   8
##########                       Formal_Charge:                  -2
##########                     HBond_Acceptors:                   8
##########                        HBond_Donors:                   3
##########                         Heavy_Atoms:                  27
##########                          Grid_Score:          -78.187119
##########                     Grid_vdw_energy:          -42.519241
##########                      Grid_es_energy:          -35.667873
##########           Internal_energy_repulsive:           11.829777

@<TRIPOS>MOLECULE
HTS1710-02483122-01
 46 48 1 0 0
SMALL
USER_CHARGES


@<TRIPOS>ATOM
      1 C           5.8516   -7.6859  -33.5453 C.2     1  UNL1       -0.0555
      2 C           5.2541   -7.5669  -32.3030 C.2     1  UNL1       -0.1091
      3 C           4.6177   -9.9892  -32.5096 C.2     1  UNL1        0.0538
      4 C           5.2551   -9.9742  -33.7197 C.2     1  UNL1       -0.0306
      5 C           4.4039   -8.6776  -31.7513 C.3     1  UNL1        0.0284
      6 O           5.7554   -8.8343  -34.2950 O.co2   1  UNL1       -0.7688
      7 C           6.6171   -6.5712  -34.1198 C.2     1  UNL1        0.1708
      8 O           5.3336   -6.4384  -31.5097 O.co2   1  UNL1       -0.7839
      9 C           6.6716   -5.3980  -33.2499 C.2     1  UNL1       -0.0241
     10 C           2.9273   -8.2831  -31.7700 C.ar    1  UNL1       -0.0331
     11 C           4.0350  -11.2064  -31.8032 C.2     1  UNL1        0.3367
     12 C           6.0522   -5.3793  -32.0202 C.2     1  UNL1       -0.0886
     13 C           2.0752   -8.7641  -32.7821 C.ar    1  UNL1       -0.0159
     14 N           5.4534  -11.1101  -34.4696 N.pl3   1  UNL1       -0.3685
     15 O           7.1567   -6.6135  -35.2118 O.2     1  UNL1       -0.2886
     16 O           3.9173  -12.2900  -32.3537 O.2     1  UNL1       -0.2453
     17 O           3.6592  -10.9901  -30.5042 O.3     1  UNL1       -0.4616
     18 C           0.7133   -8.4219  -32.7966 C.ar    1  UNL1        0.1204
     19 C           2.4015   -7.4435  -30.7693 C.ar    1  UNL1       -0.0575
     20 C           6.1372   -4.1462  -31.1581 C.3     1  UNL1        0.0566
     21 O          -0.0762   -8.9299  -33.8108 O.3     1  UNL1       -0.4951
     22 O           4.9980   -4.0365  -30.3109 O.3     1  UNL1       -0.3915
     23 C           1.0412   -7.0972  -30.7787 C.ar    1  UNL1       -0.0580
     24 C           0.1946   -7.5833  -31.7873 C.ar    1  UNL1       -0.0199
     25 C           3.0394  -12.0362  -29.7259 C.3     1  UNL1        0.0900
     26 C           0.4446   -9.7458  -34.8753 C.3     1  UNL1        0.0788
     27 C           2.8384  -11.5483  -28.2727 C.3     1  UNL1       -0.0306
     28 H           4.7063   -8.8392  -30.7377 H       1  UNL1        0.0437
     29 H           7.1877   -4.5619  -33.5655 H       1  UNL1        0.0647
     30 H           2.4557   -9.3750  -33.5218 H       1  UNL1        0.0657
     31 H           5.7774  -11.0378  -35.3965 H       1  UNL1        0.1413
     32 H           5.2714  -11.9955  -34.0795 H       1  UNL1        0.1413
     33 H           3.0187   -7.0812  -30.0258 H       1  UNL1        0.0621
     34 H           6.1899   -3.2823  -31.7873 H       1  UNL1        0.0596
     35 H           7.0118   -4.2178  -30.5459 H       1  UNL1        0.0596
     36 H           5.0533   -3.2141  -29.7995 H       1  UNL1        0.2098
     37 H           0.6620   -6.4829  -30.0413 H       1  UNL1        0.0619
     38 H          -0.8053   -7.3279  -31.7907 H       1  UNL1        0.0654
     39 H           3.6681  -12.9020  -29.7276 H       1  UNL1        0.0695
     40 H           2.0901  -12.2835  -30.1533 H       1  UNL1        0.0695
     41 H          -0.3506  -10.0187  -35.5373 H       1  UNL1        0.0660
     42 H           0.8855  -10.6298  -34.4641 H       1  UNL1        0.0660
     43 H           1.1860   -9.1958  -35.4162 H       1  UNL1        0.0660
     44 H           3.7876  -11.3009  -27.8450 H       1  UNL1        0.0262
     45 H           2.3788  -12.3239  -27.6964 H       1  UNL1        0.0262
     46 H           2.2099  -10.6824  -28.2708 H       1  UNL1        0.0262
@<TRIPOS>BOND
     1     1     2    2
     2     1     6    1
     3     1     7    1
     4     2     5    1
     5     2     8    1
     6     3     4    2
     7     3     5    1
     8     3    11    1
     9     4     6    1
    10     4    14    1
    11     5    10    1
    12     7     9    1
    13     7    15    2
    14     8    12    1
    15     9    12    2
    16    10    13   ar
    17    10    19   ar
    18    11    16    2
    19    11    17    1
    20    12    20    1
    21    13    18   ar
    22    17    25    1
    23    18    21    1
    24    18    24   ar
    25    19    23   ar
    26    20    22    1
    27    21    26    1
    28    23    24   ar
    29    25    27    1
    30     5    28    1
    31     9    29    1
    32    13    30    1
    33    14    31    1
    34    14    32    1
    35    19    33    1
    36    20    34    1
    37    20    35    1
    38    22    36    1
    39    23    37    1
    40    24    38    1
    41    25    39    1
    42    25    40    1
    43    26    41    1
    44    26    42    1
    45    26    43    1
    46    27    44    1
    47    27    45    1
    48    27    46    1
@<TRIPOS>SUBSTRUCTURE
     1 UNL1        1 TEMP              0 ****  ****    0 ROOT


