##########                                Name: HTS1710-01840168-01
##########                    Molecular_Weight:             439.406
##########                DOCK_Rotatable_Bonds:                   8
##########                       Formal_Charge:                  -1
##########                     HBond_Acceptors:                  14
##########                        HBond_Donors:                   2
##########                         Heavy_Atoms:                  30
##########                          Grid_Score:          -77.249123
##########                     Grid_vdw_energy:          -49.225365
##########                      Grid_es_energy:          -28.023758
##########           Internal_energy_repulsive:           14.801653

@<TRIPOS>MOLECULE
HTS1710-01840168-01
 47 49 1 0 0
SMALL
USER_CHARGES


@<TRIPOS>ATOM
      1 N           4.3576  -11.0880  -32.0189 N.am    1  UNL1       -0.2533
      2 C           4.6377  -10.2470  -33.0833 C.2     1  UNL1        0.2438
      3 C           4.2865  -12.2992  -32.8463 C.3     1  UNL1        0.1041
      4 CA          4.6325  -11.4205  -34.0991 C.3     1  UNL1        0.1284
      5 C          -0.1751   -7.8228  -35.7351 C.ar    1  UNL1        0.2455
      6 N           1.3218   -9.1507  -36.6469 N.ar    1  UNL1       -0.2532
      7 CA          4.0834  -11.1160  -30.5870 C.2     1  UNL1        0.0631
      8 C           0.4595   -9.0288  -35.5699 C.ar    1  UNL1        0.1071
      9 N          -1.1698   -7.1946  -34.8932 N.pl3   1  UNL1       -0.1586
     10 N           1.2482   -8.0718  -37.4876 N.ar    1  UNL1       -0.1722
     11 C           0.3471   -7.2730  -36.9403 C.ar    1  UNL1        0.1203
     12 S           2.5803  -12.9227  -32.5667 S.3     1  UNL1       -0.1310
     13 C           3.4285  -12.2067  -30.0553 C.2     1  UNL1        0.0004
     14 C           2.2548  -10.2544  -36.9339 C.3     1  UNL1        0.1181
     15 N           3.5209  -11.3036  -35.0511 N.am    1  UNL1       -0.3002
     16 C           3.4590  -10.2839  -35.9873 C.2     1  UNL1        0.2352
     17 C           4.5479   -9.9209  -29.7595 C.2     1  UNL1        0.0860
     18 C           3.0249  -13.4440  -30.8670 C.3     1  UNL1        0.0219
     19 O           4.7693   -9.0359  -33.0727 O.2     1  UNL1       -0.2731
     20 O          -1.5995   -6.1030  -35.2545 O.co2   1  UNL1       -0.6334
     21 O          -1.5234   -7.7632  -33.8659 O.2     1  UNL1       -0.0291
     22 C           3.0233  -12.3838  -28.5876 C.3     1  UNL1        0.1164
     23 C           5.0766  -13.5178  -27.8708 C.2     1  UNL1        0.3043
     24 O           5.3703   -9.1531  -30.2233 O.co2   1  UNL1       -0.5433
     25 O           4.3456   -9.4460  -36.0327 O.2     1  UNL1       -0.2738
     26 O           4.2009  -12.4752  -27.7531 O.3     1  UNL1       -0.4603
     27 O           6.2512  -13.4191  -28.1839 O.2     1  UNL1       -0.2512
     28 OXT         4.0497   -9.7664  -28.6598 O.co2   1  UNL1       -0.5433
     29 C           0.2657  -10.0153  -34.4404 C.3     1  UNL1       -0.0163
     30 C           4.3939  -14.8452  -27.5499 C.3     1  UNL1        0.0332
     31 H           4.8559  -13.2023  -32.7745 H       1  UNL1        0.0644
     32 H           5.4385  -11.6486  -34.7648 H       1  UNL1        0.0622
     33 H          -0.5327   -7.7572  -34.3964 H       1  UNL1        0.4510
     34 H           0.0587   -6.3651  -37.3371 H       1  UNL1        0.0915
     35 H           2.6122  -10.1464  -37.9367 H       1  UNL1        0.0605
     36 H           1.7182  -11.1699  -36.7968 H       1  UNL1        0.0605
     37 H           2.7971  -11.9704  -35.0233 H       1  UNL1        0.1496
     38 H           3.8442  -14.1312  -30.9051 H       1  UNL1        0.0424
     39 H           2.1870  -13.9225  -30.4046 H       1  UNL1        0.0424
     40 H           2.4470  -13.2796  -28.4854 H       1  UNL1        0.0746
     41 H           2.4422  -11.5394  -28.2810 H       1  UNL1        0.0746
     42 H          -0.4696   -9.6389  -33.7603 H       1  UNL1        0.0295
     43 H           1.1925  -10.1524  -33.9236 H       1  UNL1        0.0295
     44 H          -0.0629  -10.9527  -34.8382 H       1  UNL1        0.0295
     45 H           3.3674  -14.6683  -27.3051 H       1  UNL1        0.0342
     46 H           4.8845  -15.3067  -26.7186 H       1  UNL1        0.0342
     47 H           4.4514  -15.4908  -28.4013 H       1  UNL1        0.0342
@<TRIPOS>BOND
     1     1     2   am
     2     1     3    1
     3     1     7    1
     4     2     4    1
     5     2    19    2
     6     3     4    1
     7     3    12    1
     8     4    15    1
     9     5     8   ar
    10     5     9    1
    11     5    11   ar
    12     6     8   ar
    13     6    10   ar
    14     6    14    1
    15     7    13    2
    16     7    17    1
    17     8    29    1
    18     9    20    1
    19     9    21    2
    20    10    11   ar
    21    12    18    1
    22    13    18    1
    23    13    22    1
    24    14    16    1
    25    15    16   am
    26    16    25    2
    27    17    24   ar
    28    17    28   ar
    29    22    26    1
    30    23    26    1
    31    23    27    2
    32    23    30    1
    33     3    31    1
    34     4    32    1
    35     9    33    1
    36    11    34    1
    37    14    35    1
    38    14    36    1
    39    15    37    1
    40    18    38    1
    41    18    39    1
    42    22    40    1
    43    22    41    1
    44    29    42    1
    45    29    43    1
    46    29    44    1
    47    30    45    1
    48    30    46    1
    49    30    47    1
@<TRIPOS>SUBSTRUCTURE
     1 UNL1        1 TEMP              0 ****  ****    0 ROOT


