HTS1710-00617506-01
 OpenBabel03232612343D

 51 52  0  0  1  0  0  0  0  0999 V2000
    3.1783  -10.1777  -31.6193 C   0  0  2  0  0  0  0  0  0  0  0  0
    2.1321   -9.7244  -32.6447 C   0  0  0  0  0  0  0  0  0  0  0  0
    2.6480  -11.1499  -30.6290 N   0  0  0  0  0  0  0  0  0  0  0  0
    3.7041   -9.0538  -30.7173 C   0  0  0  0  0  0  0  0  0  0  0  0
    2.2051  -10.0993  -34.0085 C   0  0  0  0  0  0  0  0  0  0  0  0
    1.0903   -8.8813  -32.2179 C   0  0  0  0  0  0  0  0  0  0  0  0
    2.7943  -10.7025  -29.3291 C   0  0  0  0  0  0  0  0  0  0  0  0
    2.1514  -12.4744  -31.0393 C   0  0  0  0  0  0  0  0  0  0  0  0
    3.4286   -9.3827  -29.4403 C   0  0  0  0  0  0  0  0  0  0  0  0
    4.1995   -7.7623  -31.2809 C   0  0  0  0  0  0  0  0  0  0  0  0
    1.2337   -9.6265  -34.9204 C   0  0  0  0  0  0  0  0  0  0  0  0
    3.2439  -10.9132  -34.4242 O   0  0  0  0  0  0  0  0  0  0  0  0
    0.1281   -8.4181  -33.1243 C   0  0  0  0  0  0  0  0  0  0  0  0
    2.4578  -11.2903  -28.3146 O   0  0  0  0  0  0  0  0  0  0  0  0
    3.2768  -13.3744  -31.5967 C   0  0  0  0  0  0  0  0  0  0  0  0
    3.6474   -8.6212  -28.3433 O   0  5  0  0  0  0  0  0  0  0  0  0
    3.2970   -6.5419  -31.0822 C   0  0  0  0  0  0  0  0  0  0  0  0
    5.1972   -7.7039  -31.9790 O   0  0  0  0  0  0  0  0  0  0  0  0
    0.1932   -8.7831  -34.4759 C   0  0  0  0  0  0  0  0  0  0  0  0
    3.3017  -11.5399  -35.7153 C   0  0  0  0  0  0  0  0  0  0  0  0
    4.4078  -13.5967  -30.5639 C   0  0  0  0  0  0  0  0  0  0  0  0
   -0.7757   -8.2929  -35.3304 O   0  0  0  0  0  0  0  0  0  0  0  0
    3.9352  -14.3349  -29.2815 C   0  0  0  0  0  0  0  0  0  0  0  0
   -1.8194   -7.3988  -34.9062 C   0  0  0  0  0  0  0  0  0  0  0  0
    5.0693  -14.6666  -28.2731 C   0  0  0  0  0  0  0  0  0  0  0  0
    5.8746  -13.4297  -27.8552 C   0  0  0  0  0  0  0  0  0  0  0  0
    5.2876  -12.3610  -27.8451 O   0  5  0  0  0  0  0  0  0  0  0  0
    7.0424  -13.5995  -27.5515 O   0  0  0  0  0  0  0  0  0  0  0  0
    3.9356  -10.5844  -32.2565 H   0  0  0  0  0  0  0  0  0  0  0  0
    1.0343   -8.6010  -31.2263 H   0  0  0  0  0  0  0  0  0  0  0  0
    1.4077  -12.3437  -31.7974 H   0  0  0  0  0  0  0  0  0  0  0  0
    1.7457  -12.9550  -30.1736 H   0  0  0  0  0  0  0  0  0  0  0  0
    1.2857   -9.8990  -35.9144 H   0  0  0  0  0  0  0  0  0  0  0  0
   -0.6334   -7.8043  -32.7949 H   0  0  0  0  0  0  0  0  0  0  0  0
    3.6907  -12.9103  -32.4675 H   0  0  0  0  0  0  0  0  0  0  0  0
    2.8515  -14.3279  -31.8310 H   0  0  0  0  0  0  0  0  0  0  0  0
    2.4818   -6.8019  -30.4396 H   0  0  0  0  0  0  0  0  0  0  0  0
    2.9163   -6.2218  -32.0296 H   0  0  0  0  0  0  0  0  0  0  0  0
    3.8619   -5.7488  -30.6385 H   0  0  0  0  0  0  0  0  0  0  0  0
    4.2008  -12.1148  -35.7926 H   0  0  0  0  0  0  0  0  0  0  0  0
    3.2920  -10.7887  -36.4771 H   0  0  0  0  0  0  0  0  0  0  0  0
    2.4555  -12.1831  -35.8377 H   0  0  0  0  0  0  0  0  0  0  0  0
    4.8010  -12.6427  -30.2807 H   0  0  0  0  0  0  0  0  0  0  0  0
    5.1453  -14.2154  -31.0310 H   0  0  0  0  0  0  0  0  0  0  0  0
    3.4714  -15.2530  -29.5764 H   0  0  0  0  0  0  0  0  0  0  0  0
    3.2652  -13.6701  -28.7776 H   0  0  0  0  0  0  0  0  0  0  0  0
   -2.4449   -7.1593  -35.7407 H   0  0  0  0  0  0  0  0  0  0  0  0
   -1.3845   -6.5018  -34.5175 H   0  0  0  0  0  0  0  0  0  0  0  0
   -2.4053   -7.8701  -34.1449 H   0  0  0  0  0  0  0  0  0  0  0  0
    5.7351  -15.3705  -28.7270 H   0  0  0  0  0  0  0  0  0  0  0  0
    4.6104  -15.0646  -27.3922 H   0  0  0  0  0  0  0  0  0  0  0  0
  1  2  1  0  0  0  0
  1  3  1  0  0  0  0
  1  4  1  0  0  0  0
  1 29  1  6  0  0  0
  2  5  2  0  0  0  0
  2  6  1  0  0  0  0
  3  7  1  0  0  0  0
  3  8  1  0  0  0  0
  4  9  2  0  0  0  0
  4 10  1  0  0  0  0
  5 11  1  0  0  0  0
  5 12  1  0  0  0  0
  6 13  2  0  0  0  0
  6 30  1  0  0  0  0
  7 14  2  0  0  0  0
  7  9  1  0  0  0  0
  8 15  1  0  0  0  0
  8 31  1  0  0  0  0
  8 32  1  0  0  0  0
  9 16  1  0  0  0  0
 10 17  1  0  0  0  0
 10 18  2  0  0  0  0
 11 19  2  0  0  0  0
 11 33  1  0  0  0  0
 12 20  1  0  0  0  0
 13 19  1  0  0  0  0
 13 34  1  0  0  0  0
 15 21  1  0  0  0  0
 15 35  1  0  0  0  0
 15 36  1  0  0  0  0
 17 37  1  0  0  0  0
 17 38  1  0  0  0  0
 17 39  1  0  0  0  0
 19 22  1  0  0  0  0
 20 40  1  0  0  0  0
 20 41  1  0  0  0  0
 20 42  1  0  0  0  0
 21 23  1  0  0  0  0
 21 43  1  0  0  0  0
 21 44  1  0  0  0  0
 22 24  1  0  0  0  0
 23 25  1  0  0  0  0
 23 45  1  0  0  0  0
 23 46  1  0  0  0  0
 24 47  1  0  0  0  0
 24 48  1  0  0  0  0
 24 49  1  0  0  0  0
 25 26  1  0  0  0  0
 25 50  1  0  0  0  0
 25 51  1  0  0  0  0
 26 27  1  0  0  0  0
 26 28  2  0  0  0  0
M  CHG  2  16  -1  27  -1
M  END
$$$$
