HTS1710-00566542-01
 OpenBabel03232612363D

 37 38  0  0  0  0  0  0  0  0999 V2000
    3.5816  -10.3270  -30.7798 C   0  0  0  0  0  0  0  0  0  0  0  0
    4.3940   -9.8539  -31.8868 C   0  0  0  0  0  0  0  0  0  0  0  0
    3.7257   -9.2720  -29.8811 C   0  0  0  0  0  0  0  0  0  0  0  0
    2.8166  -11.5953  -30.6745 C   0  0  0  0  0  0  0  0  0  0  0  0
    4.9160   -8.6261  -31.5477 C   0  0  0  0  0  0  0  0  0  0  0  0
    4.6708  -10.4379  -33.1316 C   0  0  0  0  0  0  0  0  0  0  0  0
    4.5230   -8.2284  -30.3008 O   0  0  0  0  0  0  0  0  0  0  0  0
    3.0847   -9.1823  -28.5196 C   0  0  0  0  0  0  0  0  0  0  0  0
    2.9221  -12.2220  -29.4644 O   0  0  0  0  0  0  0  0  0  0  0  0
    2.1472  -12.0390  -31.5925 O   0  0  0  0  0  0  0  0  0  0  0  0
    5.7429   -7.9078  -32.4164 C   0  0  0  0  0  0  0  0  0  0  0  0
    5.4956   -9.7371  -34.0362 C   0  0  0  0  0  0  0  0  0  0  0  0
    2.5399  -13.6062  -29.3414 C   0  0  0  0  0  0  0  0  0  0  0  0
    6.0347   -8.4720  -33.6734 C   0  0  0  0  0  0  0  0  0  0  0  0
    5.7487  -10.3220  -35.2633 O   0  0  0  0  0  0  0  0  0  0  0  0
    2.8627  -14.0869  -27.9070 C   0  0  0  0  0  0  0  0  0  0  0  0
    4.7956  -11.1351  -35.9866 C   0  0  0  0  0  0  0  0  0  0  0  0
    4.2605  -13.8795  -27.6127 O   0  0  0  0  0  0  0  0  0  0  0  0
    3.6769  -10.3015  -36.6390 C   0  0  0  0  0  0  0  0  0  0  0  0
    5.1787  -14.1441  -28.6897 C   0  0  0  0  0  0  0  0  0  0  0  0
    3.9557   -9.1475  -36.9139 O   0  5  0  0  0  0  0  0  0  0  0  0
    2.5937  -10.8282  -36.8310 O   0  0  0  0  0  0  0  0  0  0  0  0
    4.2797  -11.3600  -33.3802 H   0  0  0  0  0  0  0  0  0  0  0  0
    2.5018  -10.0617  -28.3412 H   0  0  0  0  0  0  0  0  0  0  0  0
    2.4516   -8.3206  -28.4795 H   0  0  0  0  0  0  0  0  0  0  0  0
    3.8456   -9.1009  -27.7718 H   0  0  0  0  0  0  0  0  0  0  0  0
    6.1285   -6.9901  -32.1443 H   0  0  0  0  0  0  0  0  0  0  0  0
    3.0858  -14.1944  -30.0492 H   0  0  0  0  0  0  0  0  0  0  0  0
    1.4926  -13.7126  -29.5333 H   0  0  0  0  0  0  0  0  0  0  0  0
    6.6431   -7.9647  -34.3348 H   0  0  0  0  0  0  0  0  0  0  0  0
    2.6353  -15.1292  -27.8243 H   0  0  0  0  0  0  0  0  0  0  0  0
    2.2734  -13.5273  -27.2111 H   0  0  0  0  0  0  0  0  0  0  0  0
    4.3514  -11.8298  -35.3049 H   0  0  0  0  0  0  0  0  0  0  0  0
    5.3260  -11.6338  -36.7708 H   0  0  0  0  0  0  0  0  0  0  0  0
    6.1792  -13.9579  -28.3593 H   0  0  0  0  0  0  0  0  0  0  0  0
    4.9516  -13.5049  -29.5172 H   0  0  0  0  0  0  0  0  0  0  0  0
    5.0877  -15.1662  -28.9930 H   0  0  0  0  0  0  0  0  0  0  0  0
  1  2  1  0  0  0  0
  1  3  2  0  0  0  0
  1  4  1  0  0  0  0
  2  5  2  0  0  0  0
  2  6  1  0  0  0  0
  3  7  1  0  0  0  0
  3  8  1  0  0  0  0
  4  9  1  0  0  0  0
  4 10  2  0  0  0  0
  5 11  1  0  0  0  0
  5  7  1  0  0  0  0
  6 12  2  0  0  0  0
  6 23  1  0  0  0  0
  8 24  1  0  0  0  0
  8 25  1  0  0  0  0
  8 26  1  0  0  0  0
  9 13  1  0  0  0  0
 11 14  2  0  0  0  0
 11 27  1  0  0  0  0
 12 15  1  0  0  0  0
 12 14  1  0  0  0  0
 13 16  1  0  0  0  0
 13 28  1  0  0  0  0
 13 29  1  0  0  0  0
 14 30  1  0  0  0  0
 15 17  1  0  0  0  0
 16 18  1  0  0  0  0
 16 31  1  0  0  0  0
 16 32  1  0  0  0  0
 17 19  1  0  0  0  0
 17 33  1  0  0  0  0
 17 34  1  0  0  0  0
 18 20  1  0  0  0  0
 19 21  1  0  0  0  0
 19 22  2  0  0  0  0
 20 35  1  0  0  0  0
 20 36  1  0  0  0  0
 20 37  1  0  0  0  0
M  CHG  1  21  -1
M  END
$$$$
