##########                                Name: HTS1710-00540184-01
##########                    Molecular_Weight:             380.271
##########                DOCK_Rotatable_Bonds:                   9
##########                       Formal_Charge:                  -1
##########                     HBond_Acceptors:                  12
##########                        HBond_Donors:                   5
##########                         Heavy_Atoms:                  25
##########                          Grid_Score:          -77.921829
##########                     Grid_vdw_energy:          -41.723106
##########                      Grid_es_energy:          -36.198719
##########           Internal_energy_repulsive:           12.215205

@<TRIPOS>MOLECULE
HTS1710-00540184-01
 44 45 1 0 0
SMALL
USER_CHARGES


@<TRIPOS>ATOM
      1 N           2.8200  -13.5195  -31.7319 N.ar    1  UNL1       -0.2454
      2 C           2.8314  -12.7003  -32.9570 C.3     1  UNL1        0.1705
      3 C           3.6851  -13.4256  -30.6413 C.ar    1  UNL1        0.1835
      4 C           1.9107  -14.5381  -31.4237 C.ar    1  UNL1        0.2600
      5 O           4.0676  -11.9680  -33.0466 O.3     1  UNL1       -0.3455
      6 C           1.7219  -11.6148  -33.0022 C.3     1  UNL1        0.1287
      7 C           3.2463  -14.3746  -29.7565 C.ar    1  UNL1        0.3302
      8 N           4.7436  -12.5550  -30.5038 N.pl3   1  UNL1       -0.3389
      9 N           2.1703  -15.0469  -30.2357 N.ar    1  UNL1       -0.1849
     10 C           0.7819  -14.9947  -32.3124 C.3     1  UNL1        0.0389
     11 C           3.8280  -10.8053  -33.8546 C.3     1  UNL1        0.1131
     12 C           2.5124  -10.3101  -33.2448 C.3     1  UNL1        0.1135
     13 O           0.8299  -11.9100  -34.0789 O.3     1  UNL1       -0.3847
     14 C           3.8548  -14.6522  -28.4295 C.2     1  UNL1        0.4078
     15 C           4.9998   -9.7996  -33.6986 C.3     1  UNL1        0.0797
     16 O           1.8284   -9.3614  -34.0653 O.3     1  UNL1       -0.3864
     17 O           5.2234  -14.7181  -28.4632 O.3     1  UNL1       -0.4572
     18 O           3.2034  -14.8174  -27.4102 O.2     1  UNL1       -0.2381
     19 O           5.4330   -9.6824  -32.3243 O.3     1  UNL1       -0.3646
     20 C           5.9963  -14.7456  -27.2436 C.3     1  UNL1        0.0902
     21 P           5.1303   -8.3928  -31.3867 P.3     1  UNL1       -0.0150
     22 C           6.2739  -16.2117  -26.8387 C.3     1  UNL1       -0.0306
     23 O           6.3590   -7.5627  -31.2749 O.2     1  UNL1       -0.6377
     24 O           4.7401   -8.8737  -30.0350 O.co2   1  UNL1       -0.5770
     25 O           4.0149   -7.5918  -31.9593 O.co2   1  UNL1       -0.5770
     26 H           2.6848  -13.4010  -33.7523 H       1  UNL1        0.0868
     27 H           1.1194  -11.5539  -32.1201 H       1  UNL1        0.0665
     28 H           4.9527  -11.9167  -31.2235 H       1  UNL1        0.1439
     29 H           5.2911  -12.5712  -29.6858 H       1  UNL1        0.1439
     30 H           1.6798  -15.7719  -29.7852 H       1  UNL1        0.4550
     31 H           0.7878  -14.4244  -33.2178 H       1  UNL1        0.0353
     32 H          -0.1502  -14.8518  -31.8069 H       1  UNL1        0.0353
     33 H           0.9070  -16.0320  -32.5434 H       1  UNL1        0.0353
     34 H           3.7650  -10.9659  -34.9106 H       1  UNL1        0.0647
     35 H           2.6583   -9.7529  -32.3430 H       1  UNL1        0.0647
     36 H           1.2208  -11.6099  -34.9143 H       1  UNL1        0.2101
     37 H           4.6786   -8.8387  -34.0428 H       1  UNL1        0.0590
     38 H           5.8251  -10.1612  -34.2757 H       1  UNL1        0.0590
     39 H           0.8799   -9.5645  -34.0723 H       1  UNL1        0.2100
     40 H           5.4488  -14.2583  -26.4640 H       1  UNL1        0.0695
     41 H           6.9252  -14.2381  -27.4000 H       1  UNL1        0.0695
     42 H           5.3457  -16.7203  -26.6819 H       1  UNL1        0.0262
     43 H           6.8475  -16.2297  -25.9356 H       1  UNL1        0.0262
     44 H           6.8207  -16.6996  -27.6183 H       1  UNL1        0.0262
@<TRIPOS>BOND
     1     1     2    1
     2     1     3   ar
     3     1     4   ar
     4     2     5    1
     5     2     6    1
     6     3     7   ar
     7     3     8    1
     8     4     9   ar
     9     4    10    1
    10     5    11    1
    11     6    12    1
    12     6    13    1
    13     7    14    1
    14    11    15    1
    15    12    16    1
    16    14    17    1
    17    14    18    2
    18    15    19    1
    19    17    20    1
    20    19    21    1
    21    20    22    1
    22    21    23    2
    23    21    24    1
    24    21    25    1
    25     7     9   ar
    26    11    12    1
    27     2    26    1
    28     6    27    1
    29     8    28    1
    30     8    29    1
    31     9    30    1
    32    10    31    1
    33    10    32    1
    34    10    33    1
    35    11    34    1
    36    12    35    1
    37    13    36    1
    38    15    37    1
    39    15    38    1
    40    16    39    1
    41    20    40    1
    42    20    41    1
    43    22    42    1
    44    22    43    1
    45    22    44    1
@<TRIPOS>SUBSTRUCTURE
     1 UNL1        1 TEMP              0 ****  ****    0 ROOT


