##########                                Name: HTS1710-02098739-01
##########                    Molecular_Weight:             292.291
##########                DOCK_Rotatable_Bonds:                   7
##########                       Formal_Charge:                  -2
##########                     HBond_Acceptors:                   4
##########                        HBond_Donors:                   0
##########                         Heavy_Atoms:                  22
##########                          Grid_Score:          -76.699608
##########                     Grid_vdw_energy:          -32.579163
##########                      Grid_es_energy:          -44.120445
##########           Internal_energy_repulsive:            8.458152

@<TRIPOS>MOLECULE
HTS1710-02098739-01
 34 35 1 0 0
SMALL
USER_CHARGES


@<TRIPOS>ATOM
      1 C           2.1857   -8.2161  -30.6538 C.2     1  UNL1       -0.0226
      2 C           4.2187  -10.8137  -30.8912 C.2     1  UNL1       -0.0226
      3 C           4.3276   -9.5187  -30.4756 C.2     1  UNL1       -0.1127
      4 C           3.2045   -8.7361  -29.9099 C.2     1  UNL1       -0.1127
      5 C           1.9854   -8.3158  -32.1375 C.2     1  UNL1        0.1855
      6 C           3.0015  -11.6921  -30.8705 C.2     1  UNL1        0.1855
      7 O           2.8958   -8.6282  -32.8879 O.2     1  UNL1       -0.2873
      8 O           2.1328  -11.6069  -31.7217 O.2     1  UNL1       -0.2873
      9 C           0.6197   -8.0219  -32.7040 C.ar    1  UNL1        0.0216
     10 C           2.8669  -12.7005  -29.7600 C.ar    1  UNL1        0.0216
     11 O           3.2368   -8.5470  -28.5689 O.co2   1  UNL1       -0.8739
     12 O           5.5137   -8.8704  -30.5634 O.co2   1  UNL1       -0.8739
     13 C           0.2103   -8.5444  -33.9501 C.ar    1  UNL1       -0.0509
     14 C          -0.2598   -7.1805  -31.9944 C.ar    1  UNL1       -0.0509
     15 C           2.4938  -14.0248  -30.0640 C.ar    1  UNL1       -0.0509
     16 C           3.1331  -12.3562  -28.4168 C.ar    1  UNL1       -0.0509
     17 C          -1.0621   -8.2407  -34.4626 C.ar    1  UNL1       -0.0611
     18 C           2.3696  -14.9834  -29.0457 C.ar    1  UNL1       -0.0611
     19 C           3.0103  -13.3168  -27.4005 C.ar    1  UNL1       -0.0611
     20 C          -1.5308   -6.8781  -32.5091 C.ar    1  UNL1       -0.0611
     21 C          -1.9336   -7.4111  -33.7425 C.ar    1  UNL1       -0.0617
     22 C           2.6261  -14.6293  -27.7133 C.ar    1  UNL1       -0.0617
     23 H           1.4660   -7.6908  -30.1331 H       1  UNL1        0.0650
     24 H           5.0794  -11.2423  -31.2659 H       1  UNL1        0.0650
     25 H           0.8485   -9.1523  -34.4869 H       1  UNL1        0.0625
     26 H           0.0327   -6.7828  -31.0881 H       1  UNL1        0.0625
     27 H           2.3104  -14.2924  -31.0437 H       1  UNL1        0.0625
     28 H           3.4195  -11.3933  -28.1809 H       1  UNL1        0.0625
     29 H          -1.3563   -8.6295  -35.3721 H       1  UNL1        0.0618
     30 H           2.0894  -15.9490  -29.2778 H       1  UNL1        0.0618
     31 H           3.2032  -13.0568  -26.4205 H       1  UNL1        0.0618
     32 H          -2.1688   -6.2635  -31.9798 H       1  UNL1        0.0618
     33 H          -2.8693   -7.1930  -34.1192 H       1  UNL1        0.0618
     34 H           2.5324  -15.3329  -26.9641 H       1  UNL1        0.0618
@<TRIPOS>BOND
     1     1     4    2
     2     1     5    1
     3     2     3    2
     4     2     6    1
     5     3     4    1
     6     3    12    1
     7     4    11    1
     8     5     7    2
     9     5     9    1
    10     6     8    2
    11     6    10    1
    12     9    13   ar
    13     9    14   ar
    14    10    15   ar
    15    10    16   ar
    16    13    17   ar
    17    14    20   ar
    18    15    18   ar
    19    16    19   ar
    20    17    21   ar
    21    18    22   ar
    22    19    22   ar
    23    20    21   ar
    24     1    23    1
    25     2    24    1
    26    13    25    1
    27    14    26    1
    28    15    27    1
    29    16    28    1
    30    17    29    1
    31    18    30    1
    32    19    31    1
    33    20    32    1
    34    21    33    1
    35    22    34    1
@<TRIPOS>SUBSTRUCTURE
     1 UNL1        1 TEMP              0 ****  ****    0 ROOT


