##########                                Name: HTS1710-04711385-01
##########                    Molecular_Weight:             329.354
##########                DOCK_Rotatable_Bonds:                   6
##########                       Formal_Charge:                  -2
##########                     HBond_Acceptors:                   9
##########                        HBond_Donors:                   1
##########                         Heavy_Atoms:                  22
##########                          Grid_Score:          -75.518150
##########                     Grid_vdw_energy:          -40.788921
##########                      Grid_es_energy:          -34.729229
##########           Internal_energy_repulsive:            7.727446

@<TRIPOS>MOLECULE
HTS1710-04711385-01
 39 40 1 0 0
SMALL
USER_CHARGES


@<TRIPOS>ATOM
      1 C           6.6874   -6.3764  -33.7030 C.3     1  UNL1       -0.0524
      2 C           5.9532   -7.5680  -33.1433 C.2     1  UNL1       -0.1120
      3 O           5.7562   -7.6472  -31.7881 O.co2   1  UNL1       -0.7845
      4 C           5.0806   -8.8329  -31.7099 C.2     1  UNL1       -0.1000
      5 C           4.6473   -9.3701  -30.3727 C.3     1  UNL1        0.0240
      6 N           4.4411  -10.8191  -30.4645 N.am    1  UNL1       -0.3110
      7 C           3.6352  -11.5070  -29.5702 C.2     1  UNL1        0.2321
      8 O           3.0661  -10.9005  -28.6767 O.2     1  UNL1       -0.2740
      9 C           3.4861  -13.0255  -29.7553 C.3     1  UNL1        0.1074
     10 C           3.5164  -13.7553  -28.3898 C.3     1  UNL1       -0.0260
     11 C           2.1487  -14.4399  -28.2645 C.3     1  UNL1       -0.0366
     12 C           1.6615  -14.5641  -29.7119 C.3     1  UNL1        0.0210
     13 N           2.2195  -13.4088  -30.4263 N.3     1  UNL1       -0.1695
     14 S           2.1154  -13.4140  -32.1061 S.O2    1  UNL1        0.0296
     15 O           3.3099  -14.0716  -32.6077 O.2     1  UNL1       -0.1583
     16 O           1.7832  -12.0688  -32.5455 O.2     1  UNL1       -0.1583
     17 C           0.7409  -14.5370  -32.4609 C.3     1  UNL1        0.0707
     18 C           4.8560   -9.4660  -32.9040 C.2     1  UNL1       -0.0630
     19 C           5.4440   -8.6194  -33.8811 C.2     1  UNL1       -0.0144
     20 C           5.4766   -8.8619  -35.3439 C.2     1  UNL1        0.0708
     21 O           6.0493   -8.0331  -36.0293 O.co2   1  UNL1       -0.5447
     22 O           4.9364   -9.8630  -35.7806 O.co2   1  UNL1       -0.5447
     23 H           6.9662   -5.7216  -32.9039 H       1  UNL1        0.0266
     24 H           6.0510   -5.8541  -34.3864 H       1  UNL1        0.0266
     25 H           7.5661   -6.7075  -34.2160 H       1  UNL1        0.0266
     26 H           3.7325   -8.8987  -30.0796 H       1  UNL1        0.0500
     27 H           5.4060   -9.1658  -29.6463 H       1  UNL1        0.0500
     28 H           4.8892  -11.3195  -31.1843 H       1  UNL1        0.1490
     29 H           4.3118  -13.3150  -30.3713 H       1  UNL1        0.0575
     30 H           3.6590  -13.0547  -27.5938 H       1  UNL1        0.0286
     31 H           4.3208  -14.4586  -28.3318 H       1  UNL1        0.0286
     32 H           1.4756  -13.8416  -27.6868 H       1  UNL1        0.0279
     33 H           2.2059  -15.3854  -27.7670 H       1  UNL1        0.0279
     34 H           0.5923  -14.5425  -29.7475 H       1  UNL1        0.0444
     35 H           1.9746  -15.4871  -30.1534 H       1  UNL1        0.0444
     36 H           0.9936  -15.5242  -32.1345 H       1  UNL1        0.0479
     37 H           0.5512  -14.5471  -33.5139 H       1  UNL1        0.0479
     38 H          -0.1347  -14.2036  -31.9440 H       1  UNL1        0.0479
     39 H           4.3669  -10.3613  -33.0594 H       1  UNL1        0.0615
@<TRIPOS>BOND
     1     1     2    1
     2     2     3    1
     3     3     4    1
     4     4     5    1
     5     5     6    1
     6     6     7   am
     7     7     8    2
     8     7     9    1
     9     9    10    1
    10    10    11    1
    11    11    12    1
    12    12    13    1
    13     9    13    1
    14    13    14    1
    15    14    15    2
    16    14    16    2
    17    14    17    1
    18     4    18    2
    19    18    19    1
    20     2    19    2
    21    19    20    1
    22    20    21   ar
    23    20    22   ar
    24     1    23    1
    25     1    24    1
    26     1    25    1
    27     5    26    1
    28     5    27    1
    29     6    28    1
    30     9    29    1
    31    10    30    1
    32    10    31    1
    33    11    32    1
    34    11    33    1
    35    12    34    1
    36    12    35    1
    37    17    36    1
    38    17    37    1
    39    17    38    1
    40    18    39    1
@<TRIPOS>SUBSTRUCTURE
     1 UNL1        1 TEMP              0 ****  ****    0 ROOT


