##########                                Name: HTS1710-00172314-01
##########                    Molecular_Weight:             204.139
##########                DOCK_Rotatable_Bonds:                   2
##########                       Formal_Charge:                  -3
##########                     HBond_Acceptors:                   5
##########                        HBond_Donors:                   0
##########                         Heavy_Atoms:                  15
##########                          Grid_Score:          -76.966187
##########                     Grid_vdw_energy:          -26.335630
##########                      Grid_es_energy:          -50.630554
##########           Internal_energy_repulsive:            6.849419

@<TRIPOS>MOLECULE
HTS1710-00172314-01
 19 20 1 0 0
SMALL
USER_CHARGES


@<TRIPOS>ATOM
      1 C           4.1457  -12.1435  -33.7213 C.ar    1  UNL1       -0.0612
      2 C           4.2385  -12.1351  -35.1303 C.ar    1  UNL1       -0.0623
      3 C           4.7775  -11.0193  -35.7956 C.ar    1  UNL1       -0.0679
      4 C           4.5869  -11.0362  -32.9674 C.ar    1  UNL1       -0.0545
      5 C           5.1201   -9.9262  -33.6497 C.ar    1  UNL1       -0.0234
      6 C           5.2080   -9.9373  -35.0202 C.ar    1  UNL1       -0.0862
      7 O           5.7566   -8.7918  -35.4986 O.co2   1  UNL1       -0.7784
      8 C           6.0214   -8.0283  -34.3728 C.2     1  UNL1       -0.0615
      9 C           5.6563   -8.6566  -33.1599 C.2     1  UNL1       -0.0011
     10 C           6.6304   -6.6833  -34.6240 C.2     1  UNL1        0.0585
     11 C           5.7497   -8.2380  -31.7226 C.2     1  UNL1        0.0717
     12 O           6.2290   -7.1433  -31.4898 O.co2   1  UNL1       -0.5446
     13 O           5.3523   -8.9840  -30.8502 O.co2   1  UNL1       -0.5446
     14 O           6.9608   -6.4393  -35.7726 O.co2   1  UNL1       -0.5458
     15 O           6.7730   -5.8942  -33.7102 O.co2   1  UNL1       -0.5458
     16 H           3.7518  -12.9666  -33.2392 H       1  UNL1        0.0618
     17 H           3.9101  -12.9492  -35.6729 H       1  UNL1        0.0617
     18 H           4.8531  -10.9994  -36.8247 H       1  UNL1        0.0612
     19 H           4.5203  -11.0395  -31.9376 H       1  UNL1        0.0623
@<TRIPOS>BOND
     1     1     2   ar
     2     2     3   ar
     3     3     6   ar
     4     1     4   ar
     5     4     5   ar
     6     5     6   ar
     7     6     7    1
     8     7     8    1
     9     8     9    2
    10     8    10    1
    11     5     9    1
    12     9    11    1
    13    10    14   ar
    14    10    15   ar
    15    11    12   ar
    16    11    13   ar
    17     1    16    1
    18     2    17    1
    19     3    18    1
    20     4    19    1
@<TRIPOS>SUBSTRUCTURE
     1 UNL1        1 TEMP              0 ****  ****    0 ROOT


