HTS1710-02658384-01
 OpenBabel03232612363D

 38 39  0  0  1  0  0  0  0  0999 V2000
    0.9062   -9.6733  -35.5312 S   0  0  0  0  0  0  0  0  0  0  0  0
    2.1820   -9.3630  -34.2508 C   0  0  1  0  0  0  0  0  0  0  0  0
   -1.0559   -5.1078  -37.4112 N   0  0  0  0  0  0  0  0  0  0  0  0
    2.7026   -8.4737  -31.9018 C   0  0  1  0  0  0  0  0  0  0  0  0
    3.7903   -9.5853  -31.7272 C   0  0  1  0  0  0  0  0  0  0  0  0
    1.5874   -8.9075  -32.8959 C   0  0  0  0  0  0  0  0  0  0  0  0
   -0.2585   -8.2926  -35.4654 C   0  0  0  0  0  0  0  0  0  0  0  0
    3.2037  -10.5230  -34.0667 C   0  0  1  0  0  0  0  0  0  0  0  0
    4.3310  -10.0897  -33.0981 C   0  0  0  0  0  0  0  0  0  0  0  0
   -0.2053   -7.2709  -36.4328 C   0  0  0  0  0  0  0  0  0  0  0  0
    4.9649   -9.1192  -30.8431 C   0  0  0  0  0  0  0  0  0  0  0  0
    2.0870   -8.0514  -30.5524 C   0  0  0  0  0  0  0  0  0  0  0  0
   -1.1058   -6.1840  -36.3768 C   0  0  0  0  0  0  0  0  0  0  0  0
    1.6040   -9.5926  -36.8188 O   0  0  0  0  0  0  0  0  0  0  0  0
    0.2012  -10.8992  -35.1438 O   0  0  0  0  0  0  0  0  0  0  0  0
   -1.8187   -4.1527  -37.2916 O   0  5  0  0  0  0  0  0  0  0  0  0
   -0.2525   -5.2241  -38.3325 O   0  0  0  0  0  0  0  0  0  0  0  0
    5.7309   -8.3011  -31.3226 O   0  5  0  0  0  0  0  0  0  0  0  0
    2.7907   -8.1334  -29.5583 O   0  5  0  0  0  0  0  0  0  0  0  0
    2.4460  -12.0582  -33.4684 Cl  0  0  0  0  0  0  0  0  0  0  0  0
    0.9244   -7.6858  -30.5604 O   0  0  0  0  0  0  0  0  0  0  0  0
    5.0508   -9.5903  -29.7212 O   0  0  0  0  0  0  0  0  0  0  0  0
   -1.1960   -8.2131  -34.4201 C   0  0  0  0  0  0  0  0  0  0  0  0
   -2.0524   -6.1280  -35.3318 C   0  0  0  0  0  0  0  0  0  0  0  0
   -2.0928   -7.1369  -34.3582 C   0  0  0  0  0  0  0  0  0  0  0  0
    2.7436   -8.5406  -34.6423 H   0  0  0  0  0  0  0  0  0  0  0  0
   -1.1542   -5.2977  -36.4502 H   0  0  0  0  0  0  0  0  0  0  0  0
    3.2034   -7.6232  -32.3151 H   0  0  0  0  0  0  0  0  0  0  0  0
    3.3015  -10.3988  -31.2329 H   0  0  0  0  0  0  0  0  0  0  0  0
    1.0360   -9.7184  -32.4677 H   0  0  0  0  0  0  0  0  0  0  0  0
    0.9504   -8.0665  -33.0742 H   0  0  0  0  0  0  0  0  0  0  0  0
    3.6045  -10.7299  -35.0369 H   0  0  0  0  0  0  0  0  0  0  0  0
    4.9731  -10.9278  -32.9246 H   0  0  0  0  0  0  0  0  0  0  0  0
    4.8538   -9.2764  -33.5565 H   0  0  0  0  0  0  0  0  0  0  0  0
    0.4965   -7.3165  -37.1881 H   0  0  0  0  0  0  0  0  0  0  0  0
   -1.2240   -8.9487  -33.6968 H   0  0  0  0  0  0  0  0  0  0  0  0
   -2.7182   -5.3410  -35.2837 H   0  0  0  0  0  0  0  0  0  0  0  0
   -2.7846   -7.0870  -33.5940 H   0  0  0  0  0  0  0  0  0  0  0  0
  1  2  1  0  0  0  0
  1  7  1  0  0  0  0
  1 14  2  0  0  0  0
  1 15  2  0  0  0  0
  2  6  1  0  0  0  0
  2  8  1  0  0  0  0
  2 26  1  6  0  0  0
  3 13  1  0  0  0  0
  3 16  1  0  0  0  0
  3 17  2  0  0  0  0
  3 27  1  0  0  0  0
  4  5  1  0  0  0  0
  4  6  1  0  0  0  0
  4 12  1  0  0  0  0
  4 28  1  6  0  0  0
  5  9  1  0  0  0  0
  5 11  1  0  0  0  0
  5 29  1  1  0  0  0
  6 30  1  0  0  0  0
  6 31  1  0  0  0  0
  7 10  2  0  0  0  0
  7 23  1  0  0  0  0
  8  9  1  0  0  0  0
  8 20  1  0  0  0  0
  8 32  1  6  0  0  0
  9 33  1  0  0  0  0
  9 34  1  0  0  0  0
 10 13  1  0  0  0  0
 10 35  1  0  0  0  0
 11 18  1  0  0  0  0
 11 22  2  0  0  0  0
 12 19  1  0  0  0  0
 12 21  2  0  0  0  0
 13 24  2  0  0  0  0
 23 25  2  0  0  0  0
 23 36  1  0  0  0  0
 24 25  1  0  0  0  0
 24 37  1  0  0  0  0
 25 38  1  0  0  0  0
M  CHG  3  16  -1  18  -1  19  -1
M  END
$$$$
