HTS1710-05077824-01
 OpenBabel03232612363D

 35 36  0  0  0  0  0  0  0  0999 V2000
    3.8272  -10.0095  -30.6671 O   0  5  0  0  0  0  0  0  0  0  0  0
    4.7648   -9.3103  -31.0118 C   0  0  0  0  0  0  0  0  0  0  0  0
    5.5269   -8.7410  -30.2490 O   0  0  0  0  0  0  0  0  0  0  0  0
    4.9986   -9.1326  -32.4988 C   0  0  0  0  0  0  0  0  0  0  0  0
    4.3925  -10.0052  -33.4263 C   0  0  0  0  0  0  0  0  0  0  0  0
    4.6170   -9.8511  -34.8078 C   0  0  0  0  0  0  0  0  0  0  0  0
    4.0411  -10.6984  -35.7349 N   0  0  0  0  0  0  0  0  0  0  0  0
    2.6576  -10.4920  -36.7021 S   0  0  0  0  0  0  0  0  0  0  0  0
    2.2948  -11.8439  -37.1382 O   0  0  0  0  0  0  0  0  0  0  0  0
    2.9731   -9.3869  -37.6125 O   0  0  0  0  0  0  0  0  0  0  0  0
    1.4344   -9.9079  -35.5311 C   0  0  0  0  0  0  0  0  0  0  0  0
    0.9185   -8.6553  -35.5472 C   0  0  0  0  0  0  0  0  0  0  0  0
   -0.0951   -8.0652  -34.6307 C   0  0  0  0  0  0  0  0  0  0  0  0
   -1.2253   -7.3806  -35.1253 C   0  0  0  0  0  0  0  0  0  0  0  0
   -2.1662   -6.8289  -34.2394 C   0  0  0  0  0  0  0  0  0  0  0  0
   -1.9879   -6.9557  -32.8542 C   0  0  0  0  0  0  0  0  0  0  0  0
   -0.8679   -7.6351  -32.3532 C   0  0  0  0  0  0  0  0  0  0  0  0
    0.0738   -8.1878  -33.2373 C   0  0  0  0  0  0  0  0  0  0  0  0
    5.4489   -8.8174  -35.2662 C   0  0  0  0  0  0  0  0  0  0  0  0
    6.0608   -7.9273  -34.3611 C   0  0  0  0  0  0  0  0  0  0  0  0
    5.8273   -8.0952  -32.9787 C   0  0  0  0  0  0  0  0  0  0  0  0
    6.9539   -6.8126  -34.8674 C   0  0  0  0  0  0  0  0  0  0  0  0
    7.1451   -6.7427  -36.0691 O   0  5  0  0  0  0  0  0  0  0  0  0
    7.4289   -6.0524  -34.0407 O   0  0  0  0  0  0  0  0  0  0  0  0
    3.7789  -10.7635  -33.0895 H   0  0  0  0  0  0  0  0  0  0  0  0
    4.5054  -11.5582  -35.8545 H   0  0  0  0  0  0  0  0  0  0  0  0
    1.1044  -10.5617  -34.8039 H   0  0  0  0  0  0  0  0  0  0  0  0
    1.2731   -8.0313  -36.2888 H   0  0  0  0  0  0  0  0  0  0  0  0
   -1.3618   -7.2845  -36.1437 H   0  0  0  0  0  0  0  0  0  0  0  0
   -2.9902   -6.3294  -34.6089 H   0  0  0  0  0  0  0  0  0  0  0  0
   -2.6796   -6.5498  -32.2047 H   0  0  0  0  0  0  0  0  0  0  0  0
   -0.7354   -7.7291  -31.3341 H   0  0  0  0  0  0  0  0  0  0  0  0
    0.8955   -8.6875  -32.8631 H   0  0  0  0  0  0  0  0  0  0  0  0
    5.6144   -8.7078  -36.2790 H   0  0  0  0  0  0  0  0  0  0  0  0
    6.2701   -7.4483  -32.3075 H   0  0  0  0  0  0  0  0  0  0  0  0
  1  2  1  0  0  0  0
  2  3  2  0  0  0  0
  2  4  1  0  0  0  0
  4  5  2  0  0  0  0
  4 21  1  0  0  0  0
  5  6  1  0  0  0  0
  5 25  1  0  0  0  0
  6  7  1  0  0  0  0
  6 19  2  0  0  0  0
  7  8  1  0  0  0  0
  7 26  1  0  0  0  0
  8  9  2  0  0  0  0
  8 10  2  0  0  0  0
  8 11  1  0  0  0  0
 11 12  2  0  0  0  0
 11 27  1  0  0  0  0
 12 13  1  0  0  0  0
 12 28  1  0  0  0  0
 13 14  2  0  0  0  0
 13 18  1  0  0  0  0
 14 15  1  0  0  0  0
 14 29  1  0  0  0  0
 15 16  2  0  0  0  0
 15 30  1  0  0  0  0
 16 17  1  0  0  0  0
 16 31  1  0  0  0  0
 17 18  2  0  0  0  0
 17 32  1  0  0  0  0
 18 33  1  0  0  0  0
 19 20  1  0  0  0  0
 19 34  1  0  0  0  0
 20 21  2  0  0  0  0
 20 22  1  0  0  0  0
 21 35  1  0  0  0  0
 22 23  1  0  0  0  0
 22 24  2  0  0  0  0
M  CHG  2   1  -1  23  -1
M  END
$$$$
