##########                                Name: HTS1710-00277855-01
##########                    Molecular_Weight:             338.302
##########                DOCK_Rotatable_Bonds:                   6
##########                       Formal_Charge:                  -2
##########                     HBond_Acceptors:                   9
##########                        HBond_Donors:                   1
##########                         Heavy_Atoms:                  25
##########                          Grid_Score:          -76.365997
##########                     Grid_vdw_energy:          -41.347038
##########                      Grid_es_energy:          -35.018955
##########           Internal_energy_repulsive:           13.185260

@<TRIPOS>MOLECULE
HTS1710-00277855-01
 37 39 1 0 0
SMALL
USER_CHARGES


@<TRIPOS>ATOM
      1 C           3.8611  -12.2579  -32.7032 C.3     1  UNL1       -0.0435
      2 C           3.8942  -11.5850  -31.3123 C.3     1  UNL1        0.0345
      3 N           4.7152  -12.3622  -30.3760 N.am    1  UNL1       -0.3045
      4 C           4.1715  -13.1622  -29.3780 C.2     1  UNL1        0.2643
      5 O           2.9597  -13.2344  -29.2556 O.2     1  UNL1       -0.2685
      6 C           5.0983  -13.9220  -28.4659 C.ar    1  UNL1        0.1433
      7 N           6.2540  -13.3300  -28.0859 N.ar    1  UNL1       -0.2473
      8 C           7.0596  -14.0360  -27.2680 C.ar    1  UNL1        0.0465
      9 C           6.7217  -15.3281  -26.8278 C.ar    1  UNL1        0.0457
     10 N           5.5740  -15.9281  -27.2002 N.ar    1  UNL1       -0.2595
     11 C           4.7665  -15.2207  -28.0187 C.ar    1  UNL1        0.0580
     12 C           4.3265  -10.1296  -31.3665 C.2     1  UNL1       -0.0752
     13 C           4.7292   -9.3801  -32.4442 C.2     1  UNL1        0.0144
     14 C           4.7747   -9.7640  -33.8923 C.2     1  UNL1        0.0729
     15 O           3.7638   -9.6164  -34.5549 O.co2   1  UNL1       -0.5446
     16 O           5.7978  -10.2443  -34.3409 O.co2   1  UNL1       -0.5446
     17 C           4.9748   -8.0979  -31.8270 C.2     1  UNL1        0.0709
     18 N           4.6235   -8.0836  -30.5442 N.2     1  UNL1       -0.3024
     19 O           4.2191   -9.4110  -30.2219 O.co2   1  UNL1       -0.7128
     20 C           5.6347   -6.9777  -32.5268 C.ar    1  UNL1        0.0183
     21 C           5.4172   -5.6583  -32.0802 C.ar    1  UNL1       -0.0497
     22 C           6.1029   -4.6023  -32.6982 C.ar    1  UNL1       -0.0430
     23 C           7.0124   -4.8956  -33.7253 C.ar    1  UNL1        0.0276
     24 N           7.2707   -6.1536  -34.1313 N.ar    1  UNL1       -0.2626
     25 C           6.6033   -7.1659  -33.5396 C.ar    1  UNL1        0.0367
     26 H           3.5507  -13.2766  -32.5993 H       1  UNL1        0.0250
     27 H           4.8380  -12.2253  -33.1385 H       1  UNL1        0.0250
     28 H           3.1716  -11.7376  -33.3347 H       1  UNL1        0.0250
     29 H           2.8882  -11.5766  -30.9479 H       1  UNL1        0.0535
     30 H           5.6951  -12.3148  -30.4587 H       1  UNL1        0.1496
     31 H           7.9495  -13.6165  -26.9560 H       1  UNL1        0.0845
     32 H           7.3707  -15.8308  -26.2022 H       1  UNL1        0.0845
     33 H           3.8769  -15.6425  -28.3283 H       1  UNL1        0.0853
     34 H           4.7602   -5.4713  -31.3066 H       1  UNL1        0.0625
     35 H           5.9412   -3.6269  -32.4025 H       1  UNL1        0.0633
     36 H           7.5038   -4.1154  -34.1887 H       1  UNL1        0.0829
     37 H           6.8110   -8.1302  -33.8428 H       1  UNL1        0.0836
@<TRIPOS>BOND
     1     1     2    1
     2     2     3    1
     3     3     4   am
     4     4     5    2
     5     4     6    1
     6     6     7   ar
     7     7     8   ar
     8     8     9   ar
     9     9    10   ar
    10    10    11   ar
    11     6    11   ar
    12     2    12    1
    13    12    13    2
    14    13    14    1
    15    14    15   ar
    16    14    16   ar
    17    13    17    1
    18    17    18    2
    19    18    19    1
    20    12    19    1
    21    17    20    1
    22    20    21   ar
    23    21    22   ar
    24    22    23   ar
    25    23    24   ar
    26    24    25   ar
    27    20    25   ar
    28     1    26    1
    29     1    27    1
    30     1    28    1
    31     2    29    1
    32     3    30    1
    33     8    31    1
    34     9    32    1
    35    11    33    1
    36    21    34    1
    37    22    35    1
    38    23    36    1
    39    25    37    1
@<TRIPOS>SUBSTRUCTURE
     1 UNL1        1 TEMP              0 ****  ****    0 ROOT


