HTS1710-02529943-01
 OpenBabel03232612353D

 29 28  0  0  1  0  0  0  0  0999 V2000
    3.3377  -11.2795  -34.6840 C   0  0  0  0  0  0  0  0  0  0  0  0
    3.8589  -10.0114  -33.8784 C   0  0  2  0  0  0  0  0  0  0  0  0
    5.3127   -9.6144  -34.2547 C   0  0  0  0  0  0  0  0  0  0  0  0
    3.1452   -9.6942  -36.7715 C   0  0  0  0  0  0  0  0  0  0  0  0
    3.5340  -11.0857  -36.2328 C   0  0  0  0  0  0  0  0  0  0  0  0
    3.7108  -10.1285  -32.3216 C   0  0  0  0  0  0  0  0  0  0  0  0
    4.0756   -9.0219  -30.0497 C   0  0  0  0  0  0  0  0  0  0  0  0
    6.2222  -10.3146  -33.8435 O   0  5  0  0  0  0  0  0  0  0  0  0
    2.0155   -9.3005  -36.5356 O   0  5  0  0  0  0  0  0  0  0  0  0
    3.1631   -8.3599  -29.5847 O   0  5  0  0  0  0  0  0  0  0  0  0
    4.3194   -8.9219  -31.5622 C   0  0  0  0  0  0  0  0  0  0  0  0
    5.4602   -8.5915  -34.9012 O   0  0  0  0  0  0  0  0  0  0  0  0
    3.9714   -9.0965  -37.4384 O   0  0  0  0  0  0  0  0  0  0  0  0
    4.7952   -9.7754  -29.4172 O   0  0  0  0  0  0  0  0  0  0  0  0
    4.1040  -12.5741  -34.2689 C   0  0  0  0  0  0  0  0  0  0  0  0
    1.8217  -11.5255  -34.4029 C   0  0  0  0  0  0  0  0  0  0  0  0
    3.2035   -9.2249  -34.1894 H   0  0  0  0  0  0  0  0  0  0  0  0
    2.9356  -11.8156  -36.7369 H   0  0  0  0  0  0  0  0  0  0  0  0
    4.5825  -11.1945  -36.4166 H   0  0  0  0  0  0  0  0  0  0  0  0
    4.2063  -11.0199  -31.9981 H   0  0  0  0  0  0  0  0  0  0  0  0
    2.6641  -10.1505  -32.1007 H   0  0  0  0  0  0  0  0  0  0  0  0
    3.8717   -8.0210  -31.9268 H   0  0  0  0  0  0  0  0  0  0  0  0
    5.3761   -8.9201  -31.7305 H   0  0  0  0  0  0  0  0  0  0  0  0
    5.1506  -12.4420  -34.4481 H   0  0  0  0  0  0  0  0  0  0  0  0
    3.7451  -13.4012  -34.8450 H   0  0  0  0  0  0  0  0  0  0  0  0
    3.9417  -12.7666  -33.2289 H   0  0  0  0  0  0  0  0  0  0  0  0
    1.2624  -10.6553  -34.6766 H   0  0  0  0  0  0  0  0  0  0  0  0
    1.6801  -11.7276  -33.3617 H   0  0  0  0  0  0  0  0  0  0  0  0
    1.4835  -12.3622  -34.9778 H   0  0  0  0  0  0  0  0  0  0  0  0
  1  2  1  0  0  0  0
  1  5  1  0  0  0  0
  1 15  1  0  0  0  0
  1 16  1  0  0  0  0
  2  3  1  0  0  0  0
  2  6  1  0  0  0  0
  2 17  1  6  0  0  0
  3  8  1  0  0  0  0
  3 12  2  0  0  0  0
  4  5  1  0  0  0  0
  4  9  1  0  0  0  0
  4 13  2  0  0  0  0
  5 18  1  0  0  0  0
  5 19  1  0  0  0  0
  6 11  1  0  0  0  0
  6 20  1  0  0  0  0
  6 21  1  0  0  0  0
  7 10  1  0  0  0  0
  7 11  1  0  0  0  0
  7 14  2  0  0  0  0
 11 22  1  0  0  0  0
 11 23  1  0  0  0  0
 15 24  1  0  0  0  0
 15 25  1  0  0  0  0
 15 26  1  0  0  0  0
 16 27  1  0  0  0  0
 16 28  1  0  0  0  0
 16 29  1  0  0  0  0
M  CHG  3   8  -1   9  -1  10  -1
M  END
$$$$
