##########                                Name: HTS1710-04760568-01
##########                    Molecular_Weight:             329.332
##########                DOCK_Rotatable_Bonds:                   6
##########                       Formal_Charge:                  -2
##########                     HBond_Acceptors:                   7
##########                        HBond_Donors:                   0
##########                         Heavy_Atoms:                  24
##########                          Grid_Score:          -75.553520
##########                     Grid_vdw_energy:          -39.848331
##########                      Grid_es_energy:          -35.705189
##########           Internal_energy_repulsive:            7.035426

@<TRIPOS>MOLECULE
HTS1710-04760568-01
 41 43 1 0 0
SMALL
USER_CHARGES


@<TRIPOS>ATOM
      1 C           3.0334  -10.4675  -34.1648 C.3     1  UNL1        0.0039
      2 N           1.9776   -9.7371  -33.4275 N.am    1  UNL1       -0.2950
      3 C           0.6163   -9.9263  -33.9856 C.3     1  UNL1        0.0397
      4 C           0.1532   -8.7331  -34.8140 C.ar    1  UNL1       -0.0301
      5 C           0.7613   -8.4420  -36.0469 C.ar    1  UNL1       -0.0565
      6 C           0.3381   -7.3382  -36.8060 C.ar    1  UNL1       -0.0526
      7 C          -0.7046   -6.5052  -36.3453 C.ar    1  UNL1       -0.0027
      8 C          -1.3099   -6.8044  -35.1060 C.ar    1  UNL1       -0.0526
      9 C          -0.8854   -7.9083  -34.3498 C.ar    1  UNL1       -0.0565
     10 C          -1.1659   -5.3173  -37.1619 C.2     1  UNL1        0.0717
     11 O          -0.4977   -5.0081  -38.1337 O.co2   1  UNL1       -0.5446
     12 O          -2.1774   -4.7431  -36.7989 O.co2   1  UNL1       -0.5446
     13 C           2.1608   -8.8763  -32.3203 C.2     1  UNL1        0.2641
     14 O           1.2052   -8.2976  -31.8322 O.2     1  UNL1       -0.2683
     15 C           3.5472   -8.6894  -31.7591 C.2     1  UNL1        0.1160
     16 N           4.3933   -7.6481  -31.9835 N.2     1  UNL1       -0.2657
     17 C           5.4713   -7.9456  -31.2836 C.2     1  UNL1       -0.0365
     18 O           5.4447   -9.1262  -30.5818 O.co2   1  UNL1       -0.7724
     19 C           4.1933   -9.5667  -30.9212 C.2     1  UNL1       -0.0569
     20 C           3.6591  -10.8756  -30.3668 C.3     1  UNL1        0.0731
     21 C           3.3679  -10.9057  -28.8499 C.3     1  UNL1       -0.0214
     22 C           3.6543  -12.3645  -28.4456 C.3     1  UNL1       -0.0268
     23 C           4.1861  -13.0268  -29.7314 C.3     1  UNL1        0.0485
     24 O           4.6359  -11.9158  -30.5194 O.3     1  UNL1       -0.3730
     25 H           2.5883  -11.0383  -34.9529 H       1  UNL1        0.0429
     26 H           3.5470  -11.1248  -33.4946 H       1  UNL1        0.0429
     27 H           3.7280   -9.7674  -34.5799 H       1  UNL1        0.0429
     28 H          -0.0692  -10.0691  -33.1767 H       1  UNL1        0.0514
     29 H           0.6458  -10.7786  -34.6319 H       1  UNL1        0.0514
     30 H           1.5236   -9.0430  -36.3971 H       1  UNL1        0.0621
     31 H           0.7938   -7.1341  -37.7092 H       1  UNL1        0.0624
     32 H          -2.0724   -6.2056  -34.7521 H       1  UNL1        0.0624
     33 H          -1.3394   -8.1156  -33.4465 H       1  UNL1        0.0621
     34 H           6.2937   -7.3224  -31.2643 H       1  UNL1        0.0668
     35 H           2.7500  -11.0022  -30.9165 H       1  UNL1        0.0635
     36 H           2.3479  -10.6495  -28.6531 H       1  UNL1        0.0294
     37 H           3.9598  -10.2023  -28.3024 H       1  UNL1        0.0294
     38 H           2.7589  -12.8475  -28.1145 H       1  UNL1        0.0288
     39 H           4.3510  -12.4320  -27.6364 H       1  UNL1        0.0288
     40 H           3.4089  -13.5630  -30.2349 H       1  UNL1        0.0560
     41 H           4.9580  -13.7432  -29.5424 H       1  UNL1        0.0560
@<TRIPOS>BOND
     1     1     2    1
     2     2     3    1
     3     3     4    1
     4     4     5   ar
     5     5     6   ar
     6     6     7   ar
     7     7     8   ar
     8     8     9   ar
     9     4     9   ar
    10     7    10    1
    11    10    11   ar
    12    10    12   ar
    13     2    13   am
    14    13    14    2
    15    13    15    1
    16    15    16    1
    17    16    17    2
    18    17    18    1
    19    18    19    1
    20    15    19    2
    21    19    20    1
    22    20    21    1
    23    21    22    1
    24    22    23    1
    25    23    24    1
    26    20    24    1
    27     1    25    1
    28     1    26    1
    29     1    27    1
    30     3    28    1
    31     3    29    1
    32     5    30    1
    33     6    31    1
    34     8    32    1
    35     9    33    1
    36    17    34    1
    37    20    35    1
    38    21    36    1
    39    21    37    1
    40    22    38    1
    41    22    39    1
    42    23    40    1
    43    23    41    1
@<TRIPOS>SUBSTRUCTURE
     1 UNL1        1 TEMP              0 ****  ****    0 ROOT


