##########                                Name: HTS1710-01378563-01
##########                    Molecular_Weight:             438.481
##########                DOCK_Rotatable_Bonds:                   8
##########                       Formal_Charge:                  -1
##########                     HBond_Acceptors:                  11
##########                        HBond_Donors:                   1
##########                         Heavy_Atoms:                  30
##########                          Grid_Score:          -77.320648
##########                     Grid_vdw_energy:          -49.152973
##########                      Grid_es_energy:          -28.167675
##########           Internal_energy_repulsive:           17.496576

@<TRIPOS>MOLECULE
HTS1710-01378563-01
 54 56 1 0 0
SMALL
USER_CHARGES


@<TRIPOS>ATOM
      1 C           3.4508  -10.3769  -32.2859 C.ar    1  UNL1        0.0312
      2 S           2.5151  -14.1098  -27.6373 S.O2    1  UNL1        0.0293
      3 C           2.4910   -9.2985  -32.3215 C.ar    1  UNL1        0.0122
      4 C           3.3529  -11.0251  -33.5162 C.ar    1  UNL1        0.0146
      5 N           2.3654  -10.3827  -34.2897 N.ar    1  UNL1       -0.3458
      6 N           3.1230  -14.4348  -29.1762 N.3     1  UNL1       -0.1713
      7 C           1.8743   -9.3382  -33.5341 C.ar    1  UNL1        0.0498
      8 C           4.3945  -10.8552  -31.2088 C.3     1  UNL1        0.0474
      9 N           4.0309  -12.2447  -30.8310 N.4     1  UNL1        0.2467
     10 C           4.5649   -9.8660  -30.0371 C.2     1  UNL1        0.0944
     11 C           4.5660  -14.2086  -29.4214 C.3     1  UNL1        0.0604
     12 C           2.3193  -13.9524  -30.3190 C.3     1  UNL1        0.0604
     13 C           3.0744  -10.9167  -36.6565 C.3     1  UNL1        0.0048
     14 C           1.9195  -10.7697  -35.6366 C.3     1  UNL1        0.0284
     15 O           2.0222  -12.7430  -27.6471 O.2     1  UNL1       -0.1583
     16 O           3.4942  -14.5248  -26.6469 O.2     1  UNL1       -0.1583
     17 C           3.6415   -9.5689  -37.1277 C.2     1  UNL1        0.0434
     18 C           0.8799   -8.4216  -33.8975 C.ar    1  UNL1       -0.0341
     19 C           2.1535   -8.3385  -31.3584 C.ar    1  UNL1       -0.0103
     20 C           2.5815  -12.4514  -30.5755 C.3     1  UNL1       -0.0162
     21 C           4.8562  -12.7129  -29.6923 C.3     1  UNL1       -0.0162
     22 O           3.9357  -10.0463  -29.0099 O.co2   1  UNL1       -0.5439
     23 O           3.0547   -8.9959  -38.0299 O.co2   1  UNL1       -0.5498
     24 C           1.0417  -15.1602  -27.5335 C.3     1  UNL1        0.0707
     25 C           1.1520   -7.3915  -31.6878 C.ar    1  UNL1        0.1208
     26 C           0.5228   -7.4383  -32.9551 C.ar    1  UNL1       -0.0180
     27 O           5.3447   -8.9512  -30.2256 O.co2   1  UNL1       -0.5439
     28 O           4.6467   -9.1648  -36.5709 O.co2   1  UNL1       -0.5498
     29 O           0.7581   -6.4074  -30.8022 O.3     1  UNL1       -0.4951
     30 C          -0.2400   -5.4228  -31.1254 C.3     1  UNL1        0.0788
     31 H           3.9115  -11.8409  -33.8119 H       1  UNL1        0.0814
     32 H           5.3890  -10.8845  -31.6023 H       1  UNL1        0.0970
     33 H           4.2379  -12.8179  -31.6489 H       1  UNL1        0.2045
     34 H           4.8706  -14.7834  -30.2709 H       1  UNL1        0.0497
     35 H           5.1103  -14.5086  -28.5504 H       1  UNL1        0.0497
     36 H           2.5825  -14.5095  -31.1937 H       1  UNL1        0.0497
     37 H           1.2823  -14.0867  -30.0917 H       1  UNL1        0.0497
     38 H           2.7087  -11.4487  -37.5099 H       1  UNL1        0.0342
     39 H           3.8674  -11.4408  -36.1653 H       1  UNL1        0.0342
     40 H           1.4090  -11.7075  -35.5670 H       1  UNL1        0.0495
     41 H           1.2855   -9.9850  -35.9933 H       1  UNL1        0.0495
     42 H           0.4251   -8.4654  -34.8229 H       1  UNL1        0.0639
     43 H           2.6197   -8.3215  -30.4379 H       1  UNL1        0.0661
     44 H           2.2851  -11.8847  -29.7177 H       1  UNL1        0.0828
     45 H           2.0173  -12.1282  -31.4252 H       1  UNL1        0.0828
     46 H           5.8924  -12.5882  -29.9286 H       1  UNL1        0.0828
     47 H           4.6164  -12.1407  -28.8206 H       1  UNL1        0.0828
     48 H           0.3277  -14.8466  -28.2662 H       1  UNL1        0.0479
     49 H           0.6116  -15.0759  -26.5574 H       1  UNL1        0.0479
     50 H           1.3161  -16.1783  -27.7157 H       1  UNL1        0.0479
     51 H          -0.2045   -6.7450  -33.1905 H       1  UNL1        0.0655
     52 H          -0.3789   -4.7684  -30.2904 H       1  UNL1        0.0660
     53 H          -1.1638   -5.9126  -31.3522 H       1  UNL1        0.0660
     54 H           0.0805   -4.8551  -31.9739 H       1  UNL1        0.0660
@<TRIPOS>BOND
     1     2     6    1
     2     1     3   ar
     3     1     4   ar
     4     4     5   ar
     5     6    11    1
     6     3     7   ar
     7     1     8    1
     8     8     9    1
     9     8    10    1
    10    11    21    1
    11    12    20    1
    12    13    14    1
    13     5    14    1
    14     2    15    2
    15     2    16    2
    16    13    17    1
    17     7    18   ar
    18     3    19   ar
    19     9    20    1
    20     9    21    1
    21    10    22   ar
    22    17    23   ar
    23     2    24    1
    24    19    25   ar
    25    25    26   ar
    26    10    27   ar
    27    17    28   ar
    28    25    29    1
    29    29    30    1
    30     5     7   ar
    31     6    12    1
    32    18    26   ar
    33     4    31    1
    34     8    32    1
    35     9    33    1
    36    11    34    1
    37    11    35    1
    38    12    36    1
    39    12    37    1
    40    13    38    1
    41    13    39    1
    42    14    40    1
    43    14    41    1
    44    18    42    1
    45    19    43    1
    46    20    44    1
    47    20    45    1
    48    21    46    1
    49    21    47    1
    50    24    48    1
    51    24    49    1
    52    24    50    1
    53    26    51    1
    54    30    52    1
    55    30    53    1
    56    30    54    1
@<TRIPOS>SUBSTRUCTURE
     1 UNL1        1 TEMP              0 ****  ****    0 ROOT


