##########                                Name: HTS1710-00634942-01
##########                    Molecular_Weight:             331.325
##########                DOCK_Rotatable_Bonds:                   7
##########                       Formal_Charge:                  -2
##########                     HBond_Acceptors:                   7
##########                        HBond_Donors:                   0
##########                         Heavy_Atoms:                  24
##########                          Grid_Score:          -75.196823
##########                     Grid_vdw_energy:          -39.124630
##########                      Grid_es_energy:          -36.072197
##########           Internal_energy_repulsive:           10.983378

@<TRIPOS>MOLECULE
HTS1710-00634942-01
 41 42 1 0 0
SMALL
USER_CHARGES


@<TRIPOS>ATOM
      1 C           3.4286   -9.5709  -32.0542 C.3     1  UNL1        0.0796
      2 N           4.7434   -9.5022  -32.7432 N.am    1  UNL1       -0.2870
      3 C           3.3379   -8.1927  -31.3893 C.2     1  UNL1        0.0167
      4 C           3.3196  -10.7401  -31.0793 C.ar    1  UNL1       -0.0223
      5 C           5.3528   -8.2722  -32.5693 C.2     1  UNL1        0.2329
      6 C           5.1203  -10.5116  -33.7484 C.3     1  UNL1        0.0209
      7 C           4.4651   -7.5165  -31.6768 C.2     1  UNL1       -0.0358
      8 C           2.2383   -7.8552  -30.4368 C.2     1  UNL1        0.1579
      9 C           2.4254  -11.7902  -31.3502 C.ar    1  UNL1       -0.0530
     10 C           4.1070  -10.7892  -29.9134 C.ar    1  UNL1       -0.0530
     11 O           6.4043   -7.9058  -33.0654 O.2     1  UNL1       -0.2712
     12 C           4.1665  -10.5409  -34.9660 C.3     1  UNL1        0.0027
     13 O           4.8100   -6.2877  -31.2285 O.co2   1  UNL1       -0.8701
     14 C           0.8642   -7.5883  -31.0565 C.3     1  UNL1       -0.0017
     15 O           2.4467   -7.6642  -29.2514 O.2     1  UNL1       -0.2926
     16 C           2.3218  -12.8781  -30.4699 C.ar    1  UNL1       -0.0196
     17 C           4.0061  -11.8766  -29.0305 C.ar    1  UNL1       -0.0196
     18 C           4.5196   -9.5062  -36.0399 C.2     1  UNL1        0.0432
     19 C           3.1088  -12.9298  -29.3084 C.ar    1  UNL1        0.1205
     20 O           5.4809   -8.7886  -35.8273 O.co2   1  UNL1       -0.5498
     21 O           3.7970   -9.4526  -37.0197 O.co2   1  UNL1       -0.5498
     22 O           2.9743  -14.0237  -28.4762 O.3     1  UNL1       -0.4922
     23 C           3.8895  -14.3065  -27.4037 C.3     1  UNL1        0.0868
     24 C           5.1451  -14.9664  -28.0041 C.3     1  UNL1       -0.0307
     25 H           2.6100   -9.7654  -32.7151 H       1  UNL1        0.0602
     26 H           5.1093  -11.4754  -33.2839 H       1  UNL1        0.0468
     27 H           6.0932  -10.2530  -34.1113 H       1  UNL1        0.0468
     28 H           1.8419  -11.7610  -32.2009 H       1  UNL1        0.0622
     29 H           4.7633  -10.0203  -29.7059 H       1  UNL1        0.0622
     30 H           3.1718  -10.3475  -34.6225 H       1  UNL1        0.0340
     31 H           4.2579  -11.5073  -35.4159 H       1  UNL1        0.0340
     32 H           0.8933   -7.8183  -32.1011 H       1  UNL1        0.0309
     33 H           0.6077   -6.5578  -30.9252 H       1  UNL1        0.0309
     34 H           0.1310   -8.2022  -30.5765 H       1  UNL1        0.0309
     35 H           1.6631  -13.6448  -30.6775 H       1  UNL1        0.0654
     36 H           4.5880  -11.9056  -28.1786 H       1  UNL1        0.0654
     37 H           3.4309  -14.9718  -26.7022 H       1  UNL1        0.0694
     38 H           4.1540  -13.4028  -26.8955 H       1  UNL1        0.0694
     39 H           4.8674  -15.8680  -28.5089 H       1  UNL1        0.0262
     40 H           5.8371  -15.1950  -27.2207 H       1  UNL1        0.0262
     41 H           5.6030  -14.2947  -28.6998 H       1  UNL1        0.0262
@<TRIPOS>BOND
     1     1     2    1
     2     1     3    1
     3     1     4    1
     4     2     5   am
     5     2     6    1
     6     3     7    2
     7     3     8    1
     8     4     9   ar
     9     4    10   ar
    10     5    11    2
    11     6    12    1
    12     7    13    1
    13     8    14    1
    14     8    15    2
    15     9    16   ar
    16    10    17   ar
    17    12    18    1
    18    16    19   ar
    19    18    20   ar
    20    18    21   ar
    21    19    22    1
    22    22    23    1
    23    23    24    1
    24     5     7    1
    25    17    19   ar
    26     1    25    1
    27     6    26    1
    28     6    27    1
    29     9    28    1
    30    10    29    1
    31    12    30    1
    32    12    31    1
    33    14    32    1
    34    14    33    1
    35    14    34    1
    36    16    35    1
    37    17    36    1
    38    23    37    1
    39    23    38    1
    40    24    39    1
    41    24    40    1
    42    24    41    1
@<TRIPOS>SUBSTRUCTURE
     1 UNL1        1 TEMP              0 ****  ****    0 ROOT


