HTS1710-03158099-01
 OpenBabel03232612353D

 34 35  0  0  0  0  0  0  0  0999 V2000
    4.6982  -11.8540  -35.5025 S   0  0  0  0  0  0  0  0  0  0  0  0
    4.5513  -10.6110  -31.5820 C   0  0  0  0  0  0  0  0  0  0  0  0
    4.5264  -11.8487  -33.7070 C   0  0  0  0  0  0  0  0  0  0  0  0
    4.6791  -10.6505  -32.9919 C   0  0  0  0  0  0  0  0  0  0  0  0
    4.7298   -9.2710  -30.8721 C   0  0  0  0  0  0  0  0  0  0  0  0
    3.0285  -12.0886  -35.7553 O   0  0  0  0  0  0  0  0  0  0  0  0
   -0.5992   -7.7083  -35.2183 C   0  0  0  0  0  0  0  0  0  0  0  0
    5.0327  -10.5065  -35.9728 O   0  0  0  0  0  0  0  0  0  0  0  0
    5.4249  -13.0523  -35.9375 O   0  0  0  0  0  0  0  0  0  0  0  0
    4.2648  -11.8282  -30.8957 C   0  0  0  0  0  0  0  0  0  0  0  0
    0.3628   -8.8676  -35.3616 C   0  0  0  0  0  0  0  0  0  0  0  0
    4.5808   -9.2577  -29.6622 O   0  5  0  0  0  0  0  0  0  0  0  0
   -1.6581   -7.9196  -34.6505 O   0  5  0  0  0  0  0  0  0  0  0  0
    4.2305  -13.0346  -33.0231 C   0  0  0  0  0  0  0  0  0  0  0  0
    4.1035  -13.0256  -31.6292 C   0  0  0  0  0  0  0  0  0  0  0  0
    0.3936   -9.9024  -34.3998 C   0  0  0  0  0  0  0  0  0  0  0  0
    1.2493   -8.9354  -36.4597 C   0  0  0  0  0  0  0  0  0  0  0  0
    2.1535  -11.0369  -35.6346 C   0  0  0  0  0  0  0  0  0  0  0  0
    5.0120   -8.2871  -31.5330 O   0  0  0  0  0  0  0  0  0  0  0  0
   -0.2593   -6.6322  -35.6799 O   0  0  0  0  0  0  0  0  0  0  0  0
    2.1415  -10.0110  -36.5932 C   0  0  0  0  0  0  0  0  0  0  0  0
    1.2856  -10.9791  -34.5353 C   0  0  0  0  0  0  0  0  0  0  0  0
    4.1453  -11.8358  -29.5159 O   0  0  0  0  0  0  0  0  0  0  0  0
    3.9322  -13.0216  -28.7313 C   0  0  0  0  0  0  0  0  0  0  0  0
    4.8889   -9.7797  -33.5045 H   0  0  0  0  0  0  0  0  0  0  0  0
    4.1062  -13.9151  -33.5469 H   0  0  0  0  0  0  0  0  0  0  0  0
    3.8896  -13.9037  -31.1311 H   0  0  0  0  0  0  0  0  0  0  0  0
   -0.2452   -9.8667  -33.5901 H   0  0  0  0  0  0  0  0  0  0  0  0
    1.2408   -8.1871  -37.1703 H   0  0  0  0  0  0  0  0  0  0  0  0
    2.7887  -10.0477  -37.3962 H   0  0  0  0  0  0  0  0  0  0  0  0
    1.3018  -11.7279  -33.8253 H   0  0  0  0  0  0  0  0  0  0  0  0
    3.8755  -12.7586  -27.6956 H   0  0  0  0  0  0  0  0  0  0  0  0
    4.7453  -13.7004  -28.8828 H   0  0  0  0  0  0  0  0  0  0  0  0
    3.0173  -13.4882  -29.0314 H   0  0  0  0  0  0  0  0  0  0  0  0
  1  3  1  0  0  0  0
  1  6  1  0  0  0  0
  1  8  2  0  0  0  0
  1  9  2  0  0  0  0
  2  4  2  0  0  0  0
  2  5  1  0  0  0  0
  2 10  1  0  0  0  0
  3  4  1  0  0  0  0
  3 14  2  0  0  0  0
  4 25  1  0  0  0  0
  5 12  1  0  0  0  0
  5 19  2  0  0  0  0
  6 18  1  0  0  0  0
  7 11  1  0  0  0  0
  7 13  1  0  0  0  0
  7 20  2  0  0  0  0
 10 15  2  0  0  0  0
 10 23  1  0  0  0  0
 11 16  2  0  0  0  0
 11 17  1  0  0  0  0
 14 15  1  0  0  0  0
 14 26  1  0  0  0  0
 15 27  1  0  0  0  0
 16 22  1  0  0  0  0
 16 28  1  0  0  0  0
 17 21  2  0  0  0  0
 17 29  1  0  0  0  0
 18 21  1  0  0  0  0
 18 22  2  0  0  0  0
 21 30  1  0  0  0  0
 22 31  1  0  0  0  0
 23 24  1  0  0  0  0
 24 32  1  0  0  0  0
 24 33  1  0  0  0  0
 24 34  1  0  0  0  0
M  CHG  2  12  -1  13  -1
M  END
$$$$
