HTS1710-01721973-01
 OpenBabel03232612353D

 26 26  0  0  1  0  0  0  0  0999 V2000
    5.4558   -8.3452  -32.8499 C   0  0  0  0  0  0  0  0  0  0  0  0
    6.0280   -7.8224  -33.9936 C   0  0  0  0  0  0  0  0  0  0  0  0
    5.8928   -8.5860  -35.1245 O   0  0  0  0  0  0  0  0  0  0  0  0
    4.9025   -9.5796  -33.2813 C   0  0  0  0  0  0  0  0  0  0  0  0
    5.4026   -7.7948  -31.4729 C   0  0  0  0  0  0  0  0  0  0  0  0
    5.2040   -9.6524  -34.6155 C   0  0  0  0  0  0  0  0  0  0  0  0
    1.6338  -10.5453  -33.9736 C   0  0  0  0  0  0  0  0  0  0  0  0
    3.1813  -10.6018  -36.2918 S   0  0  0  0  0  0  0  0  0  0  0  0
    4.9881   -6.6602  -31.3146 O   0  5  0  0  0  0  0  0  0  0  0  0
    1.5414   -9.3655  -34.2607 O   0  5  0  0  0  0  0  0  0  0  0  0
    2.1025  -11.4982  -35.0835 C   0  0  2  0  0  0  0  0  0  0  0  0
    4.8387  -10.8072  -35.5074 C   0  0  0  0  0  0  0  0  0  0  0  0
    5.7798   -8.5219  -30.5701 O   0  0  0  0  0  0  0  0  0  0  0  0
    1.3692  -11.0302  -32.8861 O   0  0  0  0  0  0  0  0  0  0  0  0
    6.7752   -6.5165  -34.0831 C   0  0  0  0  0  0  0  0  0  0  0  0
    0.9008  -12.1374  -35.8110 C   0  0  0  0  0  0  0  0  0  0  0  0
    4.3865  -10.2703  -32.7141 H   0  0  0  0  0  0  0  0  0  0  0  0
    2.6712  -12.2818  -34.6278 H   0  0  0  0  0  0  0  0  0  0  0  0
    5.5750  -10.8903  -36.2792 H   0  0  0  0  0  0  0  0  0  0  0  0
    4.8026  -11.6871  -34.8997 H   0  0  0  0  0  0  0  0  0  0  0  0
    6.7902   -6.0476  -33.1215 H   0  0  0  0  0  0  0  0  0  0  0  0
    6.2872   -5.8738  -34.7858 H   0  0  0  0  0  0  0  0  0  0  0  0
    7.7786   -6.7010  -34.4057 H   0  0  0  0  0  0  0  0  0  0  0  0
    0.3162  -11.3709  -36.2754 H   0  0  0  0  0  0  0  0  0  0  0  0
    0.2970  -12.6676  -35.1044 H   0  0  0  0  0  0  0  0  0  0  0  0
    1.2559  -12.8168  -36.5575 H   0  0  0  0  0  0  0  0  0  0  0  0
  1  2  2  0  0  0  0
  1  4  1  0  0  0  0
  1  5  1  0  0  0  0
  2  3  1  0  0  0  0
  2 15  1  0  0  0  0
  3  6  1  0  0  0  0
  4  6  2  0  0  0  0
  4 17  1  0  0  0  0
  5  9  1  0  0  0  0
  5 13  2  0  0  0  0
  6 12  1  0  0  0  0
  7 11  1  0  0  0  0
  7 10  1  0  0  0  0
  7 14  2  0  0  0  0
  8 12  1  0  0  0  0
  8 11  1  0  0  0  0
 11 16  1  0  0  0  0
 11 18  1  1  0  0  0
 12 19  1  0  0  0  0
 12 20  1  0  0  0  0
 15 21  1  0  0  0  0
 15 22  1  0  0  0  0
 15 23  1  0  0  0  0
 16 24  1  0  0  0  0
 16 25  1  0  0  0  0
 16 26  1  0  0  0  0
M  CHG  2   9  -1  10  -1
M  END
$$$$
