HTS1710-00206618-01
 OpenBabel03232612353D

 27 28  0  0  0  0  0  0  0  0999 V2000
    3.4521   -7.4762  -30.7955 C   0  0  0  0  0  0  0  0  0  0  0  0
    3.0394   -8.4996  -30.0051 N   0  0  0  0  0  0  0  0  0  0  0  0
    4.5631   -7.8789  -31.4888 C   0  0  0  0  0  0  0  0  0  0  0  0
    3.9160   -9.4555  -30.2619 C   0  0  0  0  0  0  0  0  0  0  0  0
    4.9086   -9.1664  -31.1755 O   0  0  0  0  0  0  0  0  0  0  0  0
    2.7776   -6.1533  -30.8649 C   0  0  0  0  0  0  0  0  0  0  0  0
    3.9170  -10.7978  -29.6575 C   0  0  0  0  0  0  0  0  0  0  0  0
    3.1663   -5.3454  -31.6905 O   0  5  0  0  0  0  0  0  0  0  0  0
    5.2527   -7.1066  -32.3851 O   0  0  0  0  0  0  0  0  0  0  0  0
    1.8645   -5.9509  -30.0819 O   0  0  0  0  0  0  0  0  0  0  0  0
    3.2745  -11.0216  -28.4210 C   0  0  0  0  0  0  0  0  0  0  0  0
    4.5546  -11.8834  -30.2975 C   0  0  0  0  0  0  0  0  0  0  0  0
    6.4145   -7.6463  -33.0358 C   0  0  0  0  0  0  0  0  0  0  0  0
    6.9750   -6.5741  -33.9884 C   0  0  0  0  0  0  0  0  0  0  0  0
    4.5475  -13.1599  -29.7127 C   0  0  0  0  0  0  0  0  0  0  0  0
    3.2696  -12.2993  -27.8379 C   0  0  0  0  0  0  0  0  0  0  0  0
    3.9060  -13.3693  -28.4833 C   0  0  0  0  0  0  0  0  0  0  0  0
    2.8037  -10.2389  -27.9407 H   0  0  0  0  0  0  0  0  0  0  0  0
    5.0294  -11.7373  -31.2020 H   0  0  0  0  0  0  0  0  0  0  0  0
    6.1451   -8.5197  -33.5922 H   0  0  0  0  0  0  0  0  0  0  0  0
    7.1522   -7.9171  -32.3096 H   0  0  0  0  0  0  0  0  0  0  0  0
    6.2288   -6.3120  -34.7091 H   0  0  0  0  0  0  0  0  0  0  0  0
    7.8369   -6.9595  -34.4916 H   0  0  0  0  0  0  0  0  0  0  0  0
    7.2486   -5.7056  -33.4264 H   0  0  0  0  0  0  0  0  0  0  0  0
    5.0159  -13.9466  -30.1891 H   0  0  0  0  0  0  0  0  0  0  0  0
    2.7968  -12.4509  -26.9332 H   0  0  0  0  0  0  0  0  0  0  0  0
    3.9023  -14.3081  -28.0548 H   0  0  0  0  0  0  0  0  0  0  0  0
  1  2  1  0  0  0  0
  1  3  2  0  0  0  0
  1  6  1  0  0  0  0
  2  4  2  0  0  0  0
  3  5  1  0  0  0  0
  3  9  1  0  0  0  0
  4  7  1  0  0  0  0
  4  5  1  0  0  0  0
  6  8  1  0  0  0  0
  6 10  2  0  0  0  0
  7 11  2  0  0  0  0
  7 12  1  0  0  0  0
  9 13  1  0  0  0  0
 11 16  1  0  0  0  0
 11 18  1  0  0  0  0
 12 15  2  0  0  0  0
 12 19  1  0  0  0  0
 13 14  1  0  0  0  0
 13 20  1  0  0  0  0
 13 21  1  0  0  0  0
 14 22  1  0  0  0  0
 14 23  1  0  0  0  0
 14 24  1  0  0  0  0
 15 17  1  0  0  0  0
 15 25  1  0  0  0  0
 16 17  2  0  0  0  0
 16 26  1  0  0  0  0
 17 27  1  0  0  0  0
M  CHG  1   8  -1
M  END
$$$$
