##########                                Name: HTS1710-02663578-01
##########                    Molecular_Weight:             268.223
##########                DOCK_Rotatable_Bonds:                  11
##########                       Formal_Charge:                  -2
##########                     HBond_Acceptors:                   7
##########                        HBond_Donors:                   1
##########                         Heavy_Atoms:                  19
##########                          Grid_Score:          -76.309784
##########                     Grid_vdw_energy:          -32.270191
##########                      Grid_es_energy:          -44.039597
##########           Internal_energy_repulsive:            6.107634

@<TRIPOS>MOLECULE
HTS1710-02663578-01
 31 30 1 0 0
SMALL
USER_CHARGES


@<TRIPOS>ATOM
      1 C           3.6749   -9.5988  -29.4983 C.2     1  UNL1       -0.0206
      2 C           4.0363   -9.5037  -31.9520 C.2     1  UNL1       -0.0232
      3 C           3.2980  -10.8295  -29.0351 C.2     1  UNL1        0.2012
      4 C           2.8047  -10.0339  -34.7407 C.2     1  UNL1       -0.0236
      5 C           4.0453   -9.4887  -34.5562 C.2     1  UNL1       -0.0570
      6 C           4.7538   -9.2207  -33.2462 C.2     1  UNL1        0.1709
      7 C           4.4893   -9.2702  -30.6883 C.2     1  UNL1       -0.1012
      8 C           3.6544  -12.1399  -29.6741 C.2     1  UNL1        0.3740
      9 C           2.0364  -10.3299  -36.0001 C.2     1  UNL1        0.1526
     10 O           4.7945  -12.5751  -29.7404 O.2     1  UNL1       -0.2415
     11 O           5.8942   -8.7843  -33.2457 O.2     1  UNL1       -0.2886
     12 O           2.1853   -9.6316  -36.9886 O.2     1  UNL1       -0.2930
     13 O           2.5436  -10.9656  -27.9182 O.2     1  UNL1       -0.5010
     14 O           4.7921   -9.1122  -35.6224 O.co2   1  UNL1       -0.8712
     15 O           5.7101   -8.7267  -30.4772 O.co2   1  UNL1       -0.8735
     16 O           2.5593  -12.7908  -30.1726 O.3     1  UNL1       -0.4593
     17 C           1.0614  -11.5132  -36.0336 C.3     1  UNL1       -0.0020
     18 C           2.7330  -14.0468  -30.8534 C.3     1  UNL1        0.0901
     19 C           1.3736  -14.4652  -31.4423 C.3     1  UNL1       -0.0306
     20 H           3.3475   -8.7924  -28.9437 H       1  UNL1        0.0650
     21 H           3.0959   -9.9214  -32.0316 H       1  UNL1        0.0649
     22 H           2.3124  -10.2847  -33.8691 H       1  UNL1        0.0647
     23 H           2.3283  -11.8200  -27.5994 H       1  UNL1        0.2924
     24 H           1.0643  -12.0047  -35.0832 H       1  UNL1        0.0309
     25 H           1.3642  -12.2035  -36.7931 H       1  UNL1        0.0309
     26 H           0.0755  -11.1570  -36.2480 H       1  UNL1        0.0309
     27 H           3.0727  -14.7897  -30.1623 H       1  UNL1        0.0695
     28 H           3.4594  -13.9479  -31.6328 H       1  UNL1        0.0695
     29 H           0.6571  -14.5603  -30.6533 H       1  UNL1        0.0262
     30 H           1.4766  -15.4038  -31.9456 H       1  UNL1        0.0262
     31 H           1.0422  -13.7222  -32.1374 H       1  UNL1        0.0262
@<TRIPOS>BOND
     1     1     3    2
     2     1     7    1
     3     2     6    1
     4     2     7    2
     5     3     8    1
     6     3    13    1
     7     4     5    2
     8     4     9    1
     9     5     6    1
    10     5    14    1
    11     6    11    2
    12     7    15    1
    13     8    10    2
    14     8    16    1
    15     9    12    2
    16     9    17    1
    17    16    18    1
    18    18    19    1
    19     1    20    1
    20     2    21    1
    21     4    22    1
    22    13    23    1
    23    17    24    1
    24    17    25    1
    25    17    26    1
    26    18    27    1
    27    18    28    1
    28    19    29    1
    29    19    30    1
    30    19    31    1
@<TRIPOS>SUBSTRUCTURE
     1 UNL1        1 TEMP              0 ****  ****    0 ROOT


