##########                                Name: HTS1710-04760466-01
##########                    Molecular_Weight:             359.315
##########                DOCK_Rotatable_Bonds:                   4
##########                       Formal_Charge:                  -2
##########                     HBond_Acceptors:                   9
##########                        HBond_Donors:                   0
##########                         Heavy_Atoms:                  26
##########                          Grid_Score:          -77.212097
##########                     Grid_vdw_energy:          -42.302925
##########                      Grid_es_energy:          -34.909176
##########           Internal_energy_repulsive:            6.066209

@<TRIPOS>MOLECULE
HTS1710-04760466-01
 41 44 1 0 0
SMALL
USER_CHARGES


@<TRIPOS>ATOM
      1 O          -1.3677   -8.2519  -33.9530 O.co2   1  UNL1       -0.5471
      2 C          -0.1705   -8.1042  -33.7801 C.2     1  UNL1        0.0719
      3 O           0.3423   -7.1781  -33.1741 O.co2   1  UNL1       -0.5471
      4 C           0.7494   -9.1980  -34.3530 C.3     1  UNL1        0.1134
      5 C           2.0138   -9.3773  -33.4773 C.3     1  UNL1        0.0466
      6 N           2.8820  -10.5164  -33.9024 N.am    1  UNL1       -0.2913
      7 C           2.1293  -11.7438  -34.2736 C.3     1  UNL1        0.0386
      8 C           0.8523  -11.4683  -35.1022 C.3     1  UNL1        0.0643
      9 O           0.0762  -10.4707  -34.4253 O.3     1  UNL1       -0.3677
     10 C           4.1922  -10.6704  -33.4169 C.2     1  UNL1        0.2645
     11 O           4.9208  -11.5616  -33.8226 O.2     1  UNL1       -0.2683
     12 C           4.6743   -9.6343  -32.4514 C.2     1  UNL1        0.1182
     13 N           5.2981   -8.4799  -32.8163 N.2     1  UNL1       -0.2654
     14 C           5.7503   -7.9793  -31.6785 C.2     1  UNL1       -0.0363
     15 O           5.5121   -8.7116  -30.5363 O.co2   1  UNL1       -0.7709
     16 C           4.8035   -9.7406  -31.0878 C.2     1  UNL1       -0.0549
     17 C           4.1448  -10.7348  -30.2159 C.ar    1  UNL1       -0.0259
     18 C           3.5628  -10.2906  -29.0079 C.ar    1  UNL1       -0.0514
     19 C           2.8992  -11.1843  -28.1513 C.ar    1  UNL1       -0.0157
     20 C           2.7871  -12.5349  -28.5055 C.ar    1  UNL1        0.1621
     21 O           2.1474  -13.4203  -27.6660 O.3     1  UNL1       -0.4849
     22 C           2.2938  -14.8368  -27.8992 C.3     1  UNL1        0.1237
     23 C           2.1560  -15.1009  -29.4169 C.3     1  UNL1        0.1237
     24 O           3.1293  -14.2940  -30.1124 O.3     1  UNL1       -0.4849
     25 C           3.3057  -12.9808  -29.7338 C.ar    1  UNL1        0.1626
     26 C           3.9811  -12.0903  -30.5823 C.ar    1  UNL1       -0.0096
     27 H           1.0240   -8.8784  -35.3365 H       1  UNL1        0.0674
     28 H           1.7040   -9.5474  -32.4674 H       1  UNL1        0.0494
     29 H           2.5953   -8.4851  -33.5811 H       1  UNL1        0.0494
     30 H           1.8452  -12.2497  -33.3746 H       1  UNL1        0.0487
     31 H           2.7779  -12.3324  -34.8882 H       1  UNL1        0.0487
     32 H           0.2812  -12.3684  -35.1947 H       1  UNL1        0.0576
     33 H           1.1173  -11.1249  -36.0803 H       1  UNL1        0.0576
     34 H           6.2583   -7.0814  -31.6478 H       1  UNL1        0.0668
     35 H           3.6261   -9.2932  -28.7506 H       1  UNL1        0.0624
     36 H           2.4953  -10.8469  -27.2635 H       1  UNL1        0.0655
     37 H           1.5326  -15.3704  -27.3694 H       1  UNL1        0.0731
     38 H           3.2511  -15.1681  -27.5546 H       1  UNL1        0.0731
     39 H           1.1709  -14.8374  -29.7412 H       1  UNL1        0.0731
     40 H           2.3228  -16.1371  -29.6253 H       1  UNL1        0.0731
     41 H           4.3612  -12.4274  -31.4806 H       1  UNL1        0.0661
@<TRIPOS>BOND
     1     1     2   ar
     2     2     3   ar
     3     2     4    1
     4     4     5    1
     5     5     6    1
     6     6     7    1
     7     7     8    1
     8     8     9    1
     9     4     9    1
    10     6    10   am
    11    10    11    2
    12    10    12    1
    13    12    13    1
    14    13    14    2
    15    14    15    1
    16    15    16    1
    17    12    16    2
    18    16    17    1
    19    17    18   ar
    20    18    19   ar
    21    19    20   ar
    22    20    21    1
    23    21    22    1
    24    22    23    1
    25    23    24    1
    26    24    25    1
    27    20    25   ar
    28    25    26   ar
    29    17    26   ar
    30     4    27    1
    31     5    28    1
    32     5    29    1
    33     7    30    1
    34     7    31    1
    35     8    32    1
    36     8    33    1
    37    14    34    1
    38    18    35    1
    39    19    36    1
    40    22    37    1
    41    22    38    1
    42    23    39    1
    43    23    40    1
    44    26    41    1
@<TRIPOS>SUBSTRUCTURE
     1 UNL1        1 TEMP              0 ****  ****    0 ROOT


