##########                                Name: HTS1710-05472863-01
##########                    Molecular_Weight:             331.348
##########                DOCK_Rotatable_Bonds:                  10
##########                       Formal_Charge:                  -2
##########                     HBond_Acceptors:                   7
##########                        HBond_Donors:                   0
##########                         Heavy_Atoms:                  24
##########                          Grid_Score:          -81.423973
##########                     Grid_vdw_energy:          -42.297371
##########                      Grid_es_energy:          -39.126602
##########           Internal_energy_repulsive:           10.468000

@<TRIPOS>MOLECULE
HTS1710-05472863-01
 43 44 1 0 0
SMALL
USER_CHARGES


@<TRIPOS>ATOM
      1 C           3.0772  -12.5396  -34.6739 C.3     1  UNL1        0.0032
      2 N           2.6978  -11.4297  -35.5712 N.am    1  UNL1       -0.3026
      3 C           1.2492  -11.2574  -35.8038 C.3     1  UNL1        0.0147
      4 C           0.6675  -10.1776  -34.8677 C.3     1  UNL1       -0.0332
      5 C           0.7844   -8.7537  -35.4497 C.3     1  UNL1       -0.0263
      6 C          -0.3592   -7.8693  -34.9686 C.ar    1  UNL1       -0.0473
      7 C          -1.0618   -7.0527  -35.8727 C.ar    1  UNL1       -0.0586
      8 C          -2.1004   -6.2230  -35.4177 C.ar    1  UNL1       -0.0615
      9 C          -2.4390   -6.2040  -34.0550 C.ar    1  UNL1       -0.0617
     10 C          -1.7398   -7.0148  -33.1481 C.ar    1  UNL1       -0.0615
     11 C          -0.7039   -7.8458  -33.6029 C.ar    1  UNL1       -0.0586
     12 C           3.6326  -10.6145  -36.2177 C.2     1  UNL1        0.2411
     13 O           3.3048   -9.7852  -37.0495 O.2     1  UNL1       -0.2731
     14 C           5.1150  -10.8904  -35.8941 C.3     1  UNL1        0.1242
     15 O           5.7307   -9.7575  -35.2454 O.3     1  UNL1       -0.3671
     16 C           5.4201   -9.5834  -33.8433 C.3     1  UNL1        0.0625
     17 C           5.7701   -8.1918  -33.3616 C.2     1  UNL1       -0.0634
     18 O           6.4783   -7.3472  -34.1711 O.co2   1  UNL1       -0.7726
     19 C           6.5981   -6.2658  -33.3231 C.2     1  UNL1       -0.0366
     20 N           6.0464   -6.3783  -32.1277 N.2     1  UNL1       -0.2691
     21 CA          5.5111   -7.6276  -32.1404 C.2     1  UNL1        0.0763
     22 C           4.7846   -8.2308  -30.9901 C.2     1  UNL1        0.0890
     23 O           3.8108   -7.6296  -30.5691 O.co2   1  UNL1       -0.5431
     24 OXT         5.1910   -9.2831  -30.5293 O.co2   1  UNL1       -0.5431
     25 H           2.1939  -13.0144  -34.3007 H       1  UNL1        0.0428
     26 H           3.6493  -12.1566  -33.8549 H       1  UNL1        0.0428
     27 H           3.6632  -13.2521  -35.2160 H       1  UNL1        0.0428
     28 H           0.7514  -12.1864  -35.6193 H       1  UNL1        0.0464
     29 H           1.0993  -10.9489  -36.8173 H       1  UNL1        0.0464
     30 H           1.1959  -10.2110  -33.9379 H       1  UNL1        0.0283
     31 H          -0.3739  -10.3888  -34.7412 H       1  UNL1        0.0283
     32 H           0.7576   -8.8094  -36.5179 H       1  UNL1        0.0314
     33 H           1.7075   -8.3258  -35.1185 H       1  UNL1        0.0314
     34 H          -0.8136   -7.0630  -36.8744 H       1  UNL1        0.0620
     35 H          -2.6146   -5.6272  -36.0852 H       1  UNL1        0.0618
     36 H          -3.2015   -5.5941  -33.7209 H       1  UNL1        0.0618
     37 H          -1.9872   -7.0002  -32.1463 H       1  UNL1        0.0618
     38 H          -0.1925   -8.4421  -32.9336 H       1  UNL1        0.0620
     39 H           5.6377  -11.0971  -36.8046 H       1  UNL1        0.0657
     40 H           5.1651  -11.7277  -35.2298 H       1  UNL1        0.0657
     41 H           5.9766  -10.2979  -33.2734 H       1  UNL1        0.0599
     42 H           4.3676   -9.7265  -33.7143 H       1  UNL1        0.0599
     43 H           7.0959   -5.4082  -33.6091 H       1  UNL1        0.0668
@<TRIPOS>BOND
     1     1     2    1
     2     2     3    1
     3     3     4    1
     4     4     5    1
     5     5     6    1
     6     6     7   ar
     7     7     8   ar
     8     8     9   ar
     9     9    10   ar
    10    10    11   ar
    11     6    11   ar
    12     2    12   am
    13    12    13    2
    14    12    14    1
    15    14    15    1
    16    15    16    1
    17    16    17    1
    18    17    18    1
    19    18    19    1
    20    19    20    2
    21    20    21    1
    22    17    21    2
    23    21    22    1
    24    22    23   ar
    25    22    24   ar
    26     1    25    1
    27     1    26    1
    28     1    27    1
    29     3    28    1
    30     3    29    1
    31     4    30    1
    32     4    31    1
    33     5    32    1
    34     5    33    1
    35     7    34    1
    36     8    35    1
    37     9    36    1
    38    10    37    1
    39    11    38    1
    40    14    39    1
    41    14    40    1
    42    16    41    1
    43    16    42    1
    44    19    43    1
@<TRIPOS>SUBSTRUCTURE
     1 UNL1        1 TEMP              0 ****  ****    0 ROOT


