##########                                Name: HTS1710-05203822-01
##########                    Molecular_Weight:             364.314
##########                DOCK_Rotatable_Bonds:                   9
##########                       Formal_Charge:                  -2
##########                     HBond_Acceptors:                   8
##########                        HBond_Donors:                   1
##########                         Heavy_Atoms:                  27
##########                          Grid_Score:          -77.217949
##########                     Grid_vdw_energy:          -40.476219
##########                      Grid_es_energy:          -36.741730
##########           Internal_energy_repulsive:           12.338855

@<TRIPOS>MOLECULE
HTS1710-05203822-01
 39 40 1 0 0
SMALL
USER_CHARGES


@<TRIPOS>ATOM
      1 O           4.5614  -10.3154  -28.9567 O.co2   1  UNL1       -0.5463
      2 C           4.6910   -9.8046  -30.0571 C.2     1  UNL1        0.0789
      3 O           5.0854   -8.6709  -30.2638 O.co2   1  UNL1       -0.5463
      4 C           4.2852  -10.6240  -31.2910 C.3     1  UNL1        0.1287
      5 O           4.6606  -12.0100  -31.1502 O.3     1  UNL1       -0.4856
      6 C           3.8726  -12.9577  -30.5258 C.ar    1  UNL1        0.1282
      7 C           4.4013  -13.7598  -29.4875 C.ar    1  UNL1       -0.0193
      8 C           3.6614  -14.8303  -28.9696 C.ar    1  UNL1       -0.0583
      9 C           2.4016  -15.1300  -29.4997 C.ar    1  UNL1       -0.0610
     10 C           1.8667  -14.3367  -30.5239 C.ar    1  UNL1       -0.0511
     11 C           2.5654  -13.2162  -31.0197 C.ar    1  UNL1        0.0181
     12 C           1.8942  -12.4217  -32.0999 C.2     1  UNL1       -0.0286
     13 C           2.1636  -12.2327  -33.4270 C.2     1  UNL1        0.1143
     14 C           3.3900  -12.7766  -33.9371 C.1     1  UNL1        0.1044
     15 N           4.3959  -13.1639  -34.3591 N.1     1  UNL1       -0.1907
     16 C           1.3413  -11.3763  -34.3452 C.2     1  UNL1        0.2586
     17 O           0.6214  -11.8816  -35.1904 O.2     1  UNL1       -0.2691
     18 N           1.3803   -9.9905  -34.1911 N.am    1  UNL1       -0.2804
     19 C           0.6897   -9.0396  -34.9444 C.ar    1  UNL1        0.0426
     20 C          -0.5671   -8.5212  -34.5518 C.ar    1  UNL1       -0.0398
     21 C          -1.2250   -7.5659  -35.3415 C.ar    1  UNL1       -0.0600
     22 C          -0.6478   -7.1232  -36.5373 C.ar    1  UNL1       -0.0610
     23 C           0.5834   -7.6482  -36.9528 C.ar    1  UNL1       -0.0511
     24 C           1.2521   -8.6131  -36.1740 C.ar    1  UNL1        0.0185
     25 C           2.5716   -9.1459  -36.6705 C.2     1  UNL1        0.0734
     26 O           2.6811   -9.3612  -37.8655 O.co2   1  UNL1       -0.5446
     27 O           3.4477   -9.3108  -35.8383 O.co2   1  UNL1       -0.5446
     28 H           4.7708  -10.2178  -32.1536 H       1  UNL1        0.0760
     29 H           3.2214  -10.5725  -31.3942 H       1  UNL1        0.0760
     30 H           5.3391  -13.5548  -29.1089 H       1  UNL1        0.0654
     31 H           4.0451  -15.3976  -28.1977 H       1  UNL1        0.0619
     32 H           1.8666  -15.9345  -29.1368 H       1  UNL1        0.0618
     33 H           0.9454  -14.5766  -30.9224 H       1  UNL1        0.0625
     34 H           1.0570  -11.9132  -31.7749 H       1  UNL1        0.0639
     35 H           1.9582   -9.6453  -33.4726 H       1  UNL1        0.1552
     36 H          -1.0041   -8.8488  -33.6762 H       1  UNL1        0.0636
     37 H          -2.1370   -7.1887  -35.0398 H       1  UNL1        0.0618
     38 H          -1.1274   -6.4123  -37.1113 H       1  UNL1        0.0618
     39 H           1.0042   -7.3248  -37.8379 H       1  UNL1        0.0625
@<TRIPOS>BOND
     1     1     2   ar
     2     2     3   ar
     3     2     4    1
     4     4     5    1
     5     5     6    1
     6     6     7   ar
     7     7     8   ar
     8     8     9   ar
     9     9    10   ar
    10    10    11   ar
    11     6    11   ar
    12    11    12    1
    13    12    13    2
    14    13    14    1
    15    14    15    3
    16    13    16    1
    17    16    17    2
    18    16    18   am
    19    18    19    1
    20    19    20   ar
    21    20    21   ar
    22    21    22   ar
    23    22    23   ar
    24    23    24   ar
    25    19    24   ar
    26    24    25    1
    27    25    26   ar
    28    25    27   ar
    29     4    28    1
    30     4    29    1
    31     7    30    1
    32     8    31    1
    33     9    32    1
    34    10    33    1
    35    12    34    1
    36    18    35    1
    37    20    36    1
    38    21    37    1
    39    22    38    1
    40    23    39    1
@<TRIPOS>SUBSTRUCTURE
     1 UNL1        1 TEMP              0 ****  ****    0 ROOT


