##########                                Name: HTS1710-04525361-01
##########                    Molecular_Weight:             343.341
##########                DOCK_Rotatable_Bonds:                   7
##########                       Formal_Charge:                  -2
##########                     HBond_Acceptors:                  11
##########                        HBond_Donors:                   1
##########                         Heavy_Atoms:                  22
##########                          Grid_Score:          -75.755058
##########                     Grid_vdw_energy:          -34.681980
##########                      Grid_es_energy:          -41.073078
##########           Internal_energy_repulsive:            8.317630

@<TRIPOS>MOLECULE
HTS1710-04525361-01
 31 32 1 0 0
SMALL
USER_CHARGES


@<TRIPOS>ATOM
      1 S           2.9213  -12.5305  -31.2385 S.O2    1  UNL1        0.0611
      2 S           6.0609  -13.3636  -27.7629 S.3     1  UNL1        0.1165
      3 C           2.8490  -13.4839  -29.7058 C.ar    1  UNL1        0.1333
      4 C           3.9474  -13.5699  -28.8292 C.ar    1  UNL1        0.1261
      5 N           5.1587  -13.0042  -28.9819 N.2     1  UNL1       -0.1888
      6 N           3.0982  -10.9046  -30.7584 N.3     1  UNL1       -0.1813
      7 N           5.0292  -14.2236  -26.9723 N.2     1  UNL1       -0.1907
      8 C           3.8981  -10.0054  -31.6192 C.3     1  UNL1        0.0683
      9 C           3.8749  -14.2744  -27.6566 C.ar    1  UNL1        0.1018
     10 C           4.4792   -8.8331  -30.8031 C.2     1  UNL1        0.0603
     11 O           4.2016  -12.7879  -31.9059 O.2     1  UNL1       -0.1530
     12 O           1.6557  -12.5956  -31.9767 O.2     1  UNL1       -0.1530
     13 C           4.6264   -9.2543  -34.7641 C.2     1  UNL1        0.0418
     14 C           3.0176   -9.5179  -32.8000 C.3     1  UNL1       -0.0256
     15 O           3.7016   -7.9609  -30.4549 O.co2   1  UNL1       -0.5481
     16 O           5.4470   -8.7908  -33.9899 O.co2   1  UNL1       -0.5498
     17 C           3.4834  -10.0832  -34.1639 C.3     1  UNL1       -0.0114
     18 C           1.6594  -14.1458  -29.3312 C.ar    1  UNL1       -0.0331
     19 O           5.6756   -8.8453  -30.5645 O.co2   1  UNL1       -0.5481
     20 O           4.6530   -9.1362  -35.9764 O.co2   1  UNL1       -0.5498
     21 C           2.7089  -14.9427  -27.2664 C.ar    1  UNL1       -0.0334
     22 C           1.5907  -14.8724  -28.1200 C.ar    1  UNL1       -0.0577
     23 H           3.5338  -10.9071  -29.8361 H       1  UNL1        0.1487
     24 H           4.7345  -10.5392  -32.0196 H       1  UNL1        0.0538
     25 H           3.0590   -8.4494  -32.8400 H       1  UNL1        0.0288
     26 H           2.0215   -9.8685  -32.6274 H       1  UNL1        0.0288
     27 H           3.8210  -11.0890  -34.0248 H       1  UNL1        0.0325
     28 H           2.6548  -10.0456  -34.8399 H       1  UNL1        0.0325
     29 H           0.8325  -14.0989  -29.9468 H       1  UNL1        0.0638
     30 H           2.6695  -15.4708  -26.3806 H       1  UNL1        0.0640
     31 H           0.7159  -15.3540  -27.8599 H       1  UNL1        0.0619
@<TRIPOS>BOND
     1     2     5    2
     2     1     3    1
     3     3     4   ar
     4     4     5    1
     5     1     6    1
     6     7     9    1
     7     6     8    1
     8     4     9   ar
     9     8    10    1
    10     1    11    2
    11     1    12    2
    12    13    17    1
    13     8    14    1
    14    10    15   ar
    15    13    16   ar
    16    14    17    1
    17     3    18   ar
    18    10    19   ar
    19    13    20   ar
    20    21    22   ar
    21    18    22   ar
    22     9    21   ar
    23     2     7    2
    24     6    23    1
    25     8    24    1
    26    14    25    1
    27    14    26    1
    28    17    27    1
    29    17    28    1
    30    18    29    1
    31    21    30    1
    32    22    31    1
@<TRIPOS>SUBSTRUCTURE
     1 UNL1        1 TEMP              0 ****  ****    0 ROOT


