##########                                Name: HTS1710-02008132-01
##########                    Molecular_Weight:             296.237
##########                DOCK_Rotatable_Bonds:                   8
##########                       Formal_Charge:                  -3
##########                     HBond_Acceptors:                   9
##########                        HBond_Donors:                   2
##########                         Heavy_Atoms:                  21
##########                          Grid_Score:          -82.720863
##########                     Grid_vdw_energy:          -35.435303
##########                      Grid_es_energy:          -47.285561
##########           Internal_energy_repulsive:            8.236670

@<TRIPOS>MOLECULE
HTS1710-02008132-01
 33 33 1 0 0
SMALL
USER_CHARGES


@<TRIPOS>ATOM
      1 C           4.0583  -11.0867  -31.3799 C.2     1  UNL1        0.0370
      2 C           4.6969  -10.1626  -32.2970 C.2     1  UNL1        0.0370
      3 C           4.1098  -10.4245  -30.1622 C.2     1  UNL1       -0.1080
      4 C           5.0350   -9.0861  -31.4911 C.2     1  UNL1       -0.1080
      5 O           4.6976   -9.1965  -30.1774 O.co2   1  UNL1       -0.7851
      6 C           4.9591  -10.3050  -33.7671 C.2     1  UNL1        0.2442
      7 C           3.4624  -12.4379  -31.6458 C.2     1  UNL1        0.2442
      8 N           2.0815  -12.5924  -31.6318 N.am    1  UNL1       -0.3061
      9 N           3.9532  -10.7813  -34.5995 N.am    1  UNL1       -0.3061
     10 C           0.6908  -13.8645  -33.2357 C.2     1  UNL1        0.0588
     11 C           4.0549   -9.6036  -36.7714 C.2     1  UNL1        0.0588
     12 O           4.1291  -13.4296  -31.8765 O.2     1  UNL1       -0.2702
     13 O           6.0220  -10.0207  -34.2882 O.2     1  UNL1       -0.2702
     14 O           1.0609  -13.0451  -34.0585 O.co2   1  UNL1       -0.5482
     15 O           4.9980   -8.8458  -36.6221 O.co2   1  UNL1       -0.5482
     16 C           1.4070  -13.8745  -31.8804 C.3     1  UNL1        0.0515
     17 C           4.1174  -10.9542  -36.0503 C.3     1  UNL1        0.0515
     18 C           3.5657  -10.9109  -28.8402 C.3     1  UNL1       -0.0523
     19 C           5.7486   -7.8243  -31.9139 C.3     1  UNL1       -0.0523
     20 O           3.0662   -9.3800  -37.4488 O.co2   1  UNL1       -0.5482
     21 O          -0.1993  -14.6808  -33.3984 O.co2   1  UNL1       -0.5482
     22 H           1.5257  -11.8015  -31.4455 H       1  UNL1        0.1494
     23 H           3.0858  -11.0151  -34.1968 H       1  UNL1        0.1494
     24 H           0.6888  -14.0480  -31.1064 H       1  UNL1        0.0523
     25 H           2.1431  -14.6510  -31.8894 H       1  UNL1        0.0523
     26 H           3.3354  -11.5849  -36.4188 H       1  UNL1        0.0523
     27 H           5.0733  -11.3977  -36.2361 H       1  UNL1        0.0523
     28 H           3.1340  -11.8816  -28.9677 H       1  UNL1        0.0266
     29 H           2.8172  -10.2309  -28.4907 H       1  UNL1        0.0266
     30 H           4.3602  -10.9649  -28.1257 H       1  UNL1        0.0266
     31 H           5.9543   -7.8653  -32.9631 H       1  UNL1        0.0266
     32 H           6.6679   -7.7362  -31.3734 H       1  UNL1        0.0266
     33 H           5.1294   -6.9771  -31.7048 H       1  UNL1        0.0266
@<TRIPOS>BOND
     1     1     2    1
     2     1     3    2
     3     1     7    1
     4     2     4    2
     5     2     6    1
     6     3     5    1
     7     3    18    1
     8     4     5    1
     9     4    19    1
    10     6     9   am
    11     6    13    2
    12     7     8   am
    13     7    12    2
    14     8    16    1
    15     9    17    1
    16    10    14   ar
    17    10    16    1
    18    10    21   ar
    19    11    15   ar
    20    11    17    1
    21    11    20   ar
    22     8    22    1
    23     9    23    1
    24    16    24    1
    25    16    25    1
    26    17    26    1
    27    17    27    1
    28    18    28    1
    29    18    29    1
    30    18    30    1
    31    19    31    1
    32    19    32    1
    33    19    33    1
@<TRIPOS>SUBSTRUCTURE
     1 UNL1        1 TEMP              0 ****  ****    0 ROOT


