##########                                Name: HTS1710-01262603-01
##########                    Molecular_Weight:             396.356
##########                DOCK_Rotatable_Bonds:                   8
##########                       Formal_Charge:                  -2
##########                     HBond_Acceptors:                   9
##########                        HBond_Donors:                   1
##########                         Heavy_Atoms:                  29
##########                          Grid_Score:          -78.849976
##########                     Grid_vdw_energy:          -48.595608
##########                      Grid_es_energy:          -30.254370
##########           Internal_energy_repulsive:           15.821380

@<TRIPOS>MOLECULE
HTS1710-01262603-01
 45 47 1 0 0
SMALL
USER_CHARGES


@<TRIPOS>ATOM
      1 C           3.6234  -10.7869  -35.2553 C.3     1  UNL1        0.1910
      2 N           4.6674  -12.5196  -34.0492 N.2     1  UNL1       -0.0879
      3 O           4.5122  -11.9398  -35.3396 O.2     1  UNL1       -0.3801
      4 C           2.2611  -11.1919  -35.9232 C.3     1  UNL1        0.0724
      5 C           3.5052  -10.5073  -33.7361 C.3     1  UNL1        0.0417
      6 C           4.1020  -11.7662  -33.1763 C.2     1  UNL1        0.0915
      7 C           4.2531   -9.5812  -35.9957 C.2     1  UNL1        0.0885
      8 C           1.1076  -10.2043  -35.6784 C.2     1  UNL1        0.2215
      9 C          -1.2299   -4.8677  -37.6429 C.2     1  UNL1        0.0717
     10 C          -0.8777   -5.8623  -36.5568 C.ar    1  UNL1       -0.0009
     11 N           1.3115   -8.8573  -35.9583 N.am    1  UNL1       -0.2854
     12 C           3.9336  -12.1806  -31.7501 C.ar    1  UNL1       -0.0002
     13 C           0.0289   -6.9166  -36.8078 C.ar    1  UNL1       -0.0316
     14 C           0.3723   -7.8408  -35.7919 C.ar    1  UNL1        0.0340
     15 O           4.9792   -8.8470  -35.3471 O.co2   1  UNL1       -0.5456
     16 O           0.0468  -10.5817  -35.2099 O.2     1  UNL1       -0.2753
     17 O          -0.5204   -4.8382  -38.6329 O.co2   1  UNL1       -0.5446
     18 C           4.0649  -11.2457  -30.7030 C.ar    1  UNL1       -0.0493
     19 C           3.5973  -13.5131  -31.4271 C.ar    1  UNL1       -0.0493
     20 O           3.9877   -9.4331  -37.1774 O.co2   1  UNL1       -0.5456
     21 O          -2.2042   -4.1556  -37.4628 O.co2   1  UNL1       -0.5446
     22 C           3.5106  -12.9586  -29.0582 C.ar    1  UNL1        0.1201
     23 C           3.3894  -13.8966  -30.0931 C.ar    1  UNL1       -0.0193
     24 C           3.8548  -11.6271  -29.3676 C.ar    1  UNL1       -0.0193
     25 O           3.2792  -13.3797  -27.7628 O.3     1  UNL1       -0.4951
     26 C          -1.4356   -5.7403  -35.2665 C.ar    1  UNL1       -0.0528
     27 C          -1.0871   -6.6427  -34.2529 C.ar    1  UNL1       -0.0594
     28 C          -0.1830   -7.6814  -34.5128 C.ar    1  UNL1       -0.0404
     29 C           3.0205  -14.7534  -27.4279 C.3     1  UNL1        0.0788
     30 H           1.9707  -12.1463  -35.5363 H       1  UNL1        0.0403
     31 H           2.4328  -11.2009  -36.9793 H       1  UNL1        0.0403
     32 H           2.4855  -10.3864  -33.4353 H       1  UNL1        0.0373
     33 H           3.9819   -9.6062  -33.4112 H       1  UNL1        0.0373
     34 H           2.1964   -8.5992  -36.3041 H       1  UNL1        0.1548
     35 H           0.4472   -7.0145  -37.7462 H       1  UNL1        0.0642
     36 H           4.3184  -10.2693  -30.9203 H       1  UNL1        0.0625
     37 H           3.5034  -14.2128  -32.1799 H       1  UNL1        0.0625
     38 H           3.1459  -14.8749  -29.8726 H       1  UNL1        0.0654
     39 H           3.9526  -10.9314  -28.6117 H       1  UNL1        0.0654
     40 H          -2.1054   -4.9807  -35.0679 H       1  UNL1        0.0624
     41 H          -1.4976   -6.5420  -33.3114 H       1  UNL1        0.0618
     42 H           0.0766   -8.3347  -33.7573 H       1  UNL1        0.0636
     43 H           2.8721  -14.8412  -26.3719 H       1  UNL1        0.0660
     44 H           3.8546  -15.3555  -27.7221 H       1  UNL1        0.0660
     45 H           2.1421  -15.0861  -27.9404 H       1  UNL1        0.0660
@<TRIPOS>BOND
     1     2     3    1
     2     1     3    1
     3     1     4    1
     4     1     5    1
     5     5     6    1
     6     1     7    1
     7     4     8    1
     8     9    10    1
     9    10    13   ar
    10     8    11   am
    11     6    12    1
    12    13    14   ar
    13    11    14    1
    14     7    15   ar
    15     8    16    2
    16     9    17   ar
    17    12    18   ar
    18    12    19   ar
    19     7    20   ar
    20     9    21   ar
    21    22    23   ar
    22    19    23   ar
    23    18    24   ar
    24    22    25    1
    25    26    27   ar
    26    27    28   ar
    27    14    28   ar
    28    25    29    1
    29     2     6    2
    30    22    24   ar
    31    10    26   ar
    32     4    30    1
    33     4    31    1
    34     5    32    1
    35     5    33    1
    36    11    34    1
    37    13    35    1
    38    18    36    1
    39    19    37    1
    40    23    38    1
    41    24    39    1
    42    26    40    1
    43    27    41    1
    44    28    42    1
    45    29    43    1
    46    29    44    1
    47    29    45    1
@<TRIPOS>SUBSTRUCTURE
     1 UNL1        1 TEMP              0 ****  ****    0 ROOT


