HTS1710-01248354-01
 OpenBabel03232612353D

 55 55  0  0  1  0  0  0  0  0999 V2000
    0.9057   -9.1578  -35.6589 C   0  0  0  0  0  0  0  0  0  0  0  0
   -0.0095   -8.4743  -34.8709 N   0  0  0  0  0  0  0  0  0  0  0  0
   -0.2432   -7.0278  -34.9854 C   0  0  1  0  0  0  0  0  0  0  0  0
   -1.6945   -6.7751  -35.4727 C   0  0  0  0  0  0  0  0  0  0  0  0
    2.6984  -13.9646  -31.3323 C   0  0  0  0  0  0  0  0  0  0  0  0
    0.0550   -6.3559  -33.6319 C   0  0  0  0  0  0  0  0  0  0  0  0
   -2.7290   -7.5205  -34.6174 C   0  0  0  0  0  0  0  0  0  0  0  0
    3.5299  -13.0244  -31.9249 N   0  0  0  0  0  0  0  0  0  0  0  0
    1.0535  -10.6786  -35.4361 C   0  0  2  0  0  0  0  0  0  0  0  0
    1.5467   -8.5501  -36.5025 O   0  0  0  0  0  0  0  0  0  0  0  0
    1.9211  -14.6157  -32.0123 O   0  0  0  0  0  0  0  0  0  0  0  0
    0.6468   -7.0089  -32.7886 O   0  5  0  0  0  0  0  0  0  0  0  0
   -2.3664   -7.9250  -33.5259 O   0  5  0  0  0  0  0  0  0  0  0  0
    2.7899  -14.1352  -29.8114 C   0  0  1  0  0  0  0  0  0  0  0  0
    0.8964  -11.0474  -33.9340 C   0  0  0  0  0  0  0  0  0  0  0  0
    2.3825  -11.2561  -36.0092 C   0  0  0  0  0  0  0  0  0  0  0  0
    3.5433  -12.7610  -33.3710 C   0  0  0  0  0  0  0  0  0  0  0  0
   -0.3254   -5.2063  -33.4901 O   0  0  0  0  0  0  0  0  0  0  0  0
   -3.8521   -7.6383  -35.0780 O   0  0  0  0  0  0  0  0  0  0  0  0
    2.2297  -15.4402  -29.4112 N   0  3  0  0  0  0  0  0  0  0  0  0
    6.1283  -13.7256  -27.2853 S   0  0  0  0  0  0  0  0  0  0  0  0
    3.6255  -10.8808  -35.1560 C   0  0  0  0  0  0  0  0  0  0  0  0
    2.1326  -10.6358  -33.0943 C   0  0  0  0  0  0  0  0  0  0  0  0
    4.2582  -14.0169  -29.3321 C   0  0  0  0  0  0  0  0  0  0  0  0
    3.4571  -11.2316  -33.6482 C   0  0  1  0  0  0  0  0  0  0  0  0
    4.3648  -13.8390  -27.8016 C   0  0  0  0  0  0  0  0  0  0  0  0
    6.5565  -15.5143  -27.2706 C   0  0  0  0  0  0  0  0  0  0  0  0
   -0.5262   -8.9819  -34.2042 H   0  0  0  0  0  0  0  0  0  0  0  0
    0.4138   -6.5935  -35.7099 H   0  0  0  0  0  0  0  0  0  0  0  0
   -1.7809   -7.1073  -36.4862 H   0  0  0  0  0  0  0  0  0  0  0  0
   -1.8921   -5.7268  -35.3894 H   0  0  0  0  0  0  0  0  0  0  0  0
    4.1401  -12.5093  -31.3491 H   0  0  0  0  0  0  0  0  0  0  0  0
    0.2581  -11.1358  -35.9868 H   0  0  0  0  0  0  0  0  0  0  0  0
    2.2206  -13.3551  -29.3509 H   0  0  0  0  0  0  0  0  0  0  0  0
    0.7617  -12.1057  -33.8519 H   0  0  0  0  0  0  0  0  0  0  0  0
    0.0502  -10.5147  -33.5532 H   0  0  0  0  0  0  0  0  0  0  0  0
    2.5210  -10.8750  -36.9994 H   0  0  0  0  0  0  0  0  0  0  0  0
    2.2982  -12.3227  -35.9998 H   0  0  0  0  0  0  0  0  0  0  0  0
    2.7064  -13.2487  -33.8255 H   0  0  0  0  0  0  0  0  0  0  0  0
    4.4573  -13.1358  -33.7823 H   0  0  0  0  0  0  0  0  0  0  0  0
    2.7678  -16.1892  -29.8468 H   0  0  0  0  0  0  0  0  0  0  0  0
    1.2574  -15.4999  -29.7136 H   0  0  0  0  0  0  0  0  0  0  0  0
    2.2765  -15.5336  -28.3966 H   0  0  0  0  0  0  0  0  0  0  0  0
    3.7944   -9.8279  -35.2443 H   0  0  0  0  0  0  0  0  0  0  0  0
    4.4520  -11.4504  -35.5267 H   0  0  0  0  0  0  0  0  0  0  0  0
    1.9952  -10.9804  -32.0907 H   0  0  0  0  0  0  0  0  0  0  0  0
    2.2137   -9.5698  -33.1381 H   0  0  0  0  0  0  0  0  0  0  0  0
    4.7083  -13.1712  -29.8086 H   0  0  0  0  0  0  0  0  0  0  0  0
    4.7603  -14.9256  -29.5909 H   0  0  0  0  0  0  0  0  0  0  0  0
    4.2797  -10.7849  -33.1298 H   0  0  0  0  0  0  0  0  0  0  0  0
    3.8560  -12.9424  -27.5152 H   0  0  0  0  0  0  0  0  0  0  0  0
    3.9186  -14.6858  -27.3234 H   0  0  0  0  0  0  0  0  0  0  0  0
    7.5800  -15.6336  -26.9822 H   0  0  0  0  0  0  0  0  0  0  0  0
    6.4113  -15.9239  -28.2483 H   0  0  0  0  0  0  0  0  0  0  0  0
    5.9273  -16.0259  -26.5726 H   0  0  0  0  0  0  0  0  0  0  0  0
  1  2  1  0  0  0  0
  1  9  1  0  0  0  0
  1 10  2  0  0  0  0
  2  3  1  0  0  0  0
  2 28  1  0  0  0  0
  3  4  1  0  0  0  0
  3  6  1  0  0  0  0
  3 29  1  6  0  0  0
  4  7  1  0  0  0  0
  4 30  1  0  0  0  0
  4 31  1  0  0  0  0
  5  8  1  0  0  0  0
  5 11  2  0  0  0  0
  5 14  1  0  0  0  0
  6 12  1  0  0  0  0
  6 18  2  0  0  0  0
  7 13  1  0  0  0  0
  7 19  2  0  0  0  0
  8 17  1  0  0  0  0
  8 32  1  0  0  0  0
  9 15  1  0  0  0  0
  9 16  1  0  0  0  0
  9 33  1  6  0  0  0
 14 20  1  0  0  0  0
 14 24  1  0  0  0  0
 14 34  1  1  0  0  0
 15 23  1  0  0  0  0
 15 35  1  0  0  0  0
 15 36  1  0  0  0  0
 16 22  1  0  0  0  0
 16 37  1  0  0  0  0
 16 38  1  0  0  0  0
 17 25  1  0  0  0  0
 17 39  1  0  0  0  0
 17 40  1  0  0  0  0
 20 41  1  0  0  0  0
 20 42  1  0  0  0  0
 20 43  1  0  0  0  0
 21 26  1  0  0  0  0
 21 27  1  0  0  0  0
 22 25  1  0  0  0  0
 22 44  1  0  0  0  0
 22 45  1  0  0  0  0
 23 25  1  0  0  0  0
 23 46  1  0  0  0  0
 23 47  1  0  0  0  0
 24 26  1  0  0  0  0
 24 48  1  0  0  0  0
 24 49  1  0  0  0  0
 25 50  1  1  0  0  0
 26 51  1  0  0  0  0
 26 52  1  0  0  0  0
 27 53  1  0  0  0  0
 27 54  1  0  0  0  0
 27 55  1  0  0  0  0
M  CHG  3  12  -1  13  -1  20   1
M  END
$$$$
