HTS1710-01489149-01
 OpenBabel03232612343D

 30 31  0  0  0  0  0  0  0  0999 V2000
    4.9137   -9.4059  -32.6195 C   0  0  0  0  0  0  0  0  0  0  0  0
    5.4816   -8.5719  -33.5631 C   0  0  0  0  0  0  0  0  0  0  0  0
    5.0979   -8.7997  -34.8596 O   0  0  0  0  0  0  0  0  0  0  0  0
    4.0748  -10.2599  -33.3828 C   0  0  0  0  0  0  0  0  0  0  0  0
    5.0916   -9.4464  -31.1475 C   0  0  0  0  0  0  0  0  0  0  0  0
    4.2315   -9.8415  -34.6774 C   0  0  0  0  0  0  0  0  0  0  0  0
   -2.2806   -7.4477  -34.7444 C   0  0  0  0  0  0  0  0  0  0  0  0
   -0.9457   -7.9630  -35.2376 C   0  0  0  0  0  0  0  0  0  0  0  0
    5.6627   -8.5171  -30.6044 O   0  5  0  0  0  0  0  0  0  0  0  0
   -2.5505   -7.6155  -33.5675 O   0  5  0  0  0  0  0  0  0  0  0  0
   -0.3771   -7.4631  -36.4288 C   0  0  0  0  0  0  0  0  0  0  0  0
   -0.2438   -8.9540  -34.5181 C   0  0  0  0  0  0  0  0  0  0  0  0
    3.5105  -10.4459  -35.8567 C   0  0  0  0  0  0  0  0  0  0  0  0
    2.7820   -9.4229  -36.5676 O   0  0  0  0  0  0  0  0  0  0  0  0
    4.6513  -10.4209  -30.5634 O   0  0  0  0  0  0  0  0  0  0  0  0
    1.5584   -8.9229  -36.1598 C   0  0  0  0  0  0  0  0  0  0  0  0
   -3.0057   -6.8943  -35.5541 O   0  0  0  0  0  0  0  0  0  0  0  0
    0.8613   -7.9373  -36.8891 C   0  0  0  0  0  0  0  0  0  0  0  0
    0.9955   -9.4286  -34.9782 C   0  0  0  0  0  0  0  0  0  0  0  0
    6.4585   -7.4588  -33.2779 C   0  0  0  0  0  0  0  0  0  0  0  0
    3.4779  -11.0277  -33.0376 H   0  0  0  0  0  0  0  0  0  0  0  0
   -0.8781   -6.7399  -36.9682 H   0  0  0  0  0  0  0  0  0  0  0  0
   -0.6448   -9.3332  -33.6461 H   0  0  0  0  0  0  0  0  0  0  0  0
    2.8262  -11.1915  -35.5094 H   0  0  0  0  0  0  0  0  0  0  0  0
    4.2268  -10.8894  -36.5163 H   0  0  0  0  0  0  0  0  0  0  0  0
    1.2627   -7.5637  -37.7634 H   0  0  0  0  0  0  0  0  0  0  0  0
    1.4960  -10.1552  -34.4429 H   0  0  0  0  0  0  0  0  0  0  0  0
    6.6517   -7.4145  -32.2264 H   0  0  0  0  0  0  0  0  0  0  0  0
    6.0437   -6.5279  -33.6038 H   0  0  0  0  0  0  0  0  0  0  0  0
    7.3733   -7.6443  -33.8011 H   0  0  0  0  0  0  0  0  0  0  0  0
  1  2  2  0  0  0  0
  1  4  1  0  0  0  0
  1  5  1  0  0  0  0
  2  3  1  0  0  0  0
  2 20  1  0  0  0  0
  3  6  1  0  0  0  0
  4  6  2  0  0  0  0
  4 21  1  0  0  0  0
  5  9  1  0  0  0  0
  5 15  2  0  0  0  0
  6 13  1  0  0  0  0
  7  8  1  0  0  0  0
  7 10  1  0  0  0  0
  7 17  2  0  0  0  0
  8 12  2  0  0  0  0
  8 11  1  0  0  0  0
 11 18  2  0  0  0  0
 11 22  1  0  0  0  0
 12 19  1  0  0  0  0
 12 23  1  0  0  0  0
 13 14  1  0  0  0  0
 13 24  1  0  0  0  0
 13 25  1  0  0  0  0
 14 16  1  0  0  0  0
 16 18  1  0  0  0  0
 16 19  2  0  0  0  0
 18 26  1  0  0  0  0
 19 27  1  0  0  0  0
 20 28  1  0  0  0  0
 20 29  1  0  0  0  0
 20 30  1  0  0  0  0
M  CHG  2   9  -1  10  -1
M  END
$$$$
