##########                                Name: HTS1710-05118261-01
##########                    Molecular_Weight:             308.335
##########                DOCK_Rotatable_Bonds:                   6
##########                       Formal_Charge:                  -2
##########                     HBond_Acceptors:                   7
##########                        HBond_Donors:                   0
##########                         Heavy_Atoms:                  21
##########                          Grid_Score:          -76.806862
##########                     Grid_vdw_energy:          -36.759247
##########                      Grid_es_energy:          -40.047615
##########           Internal_energy_repulsive:           12.659341

@<TRIPOS>MOLECULE
HTS1710-05118261-01
 35 36 1 0 0
SMALL
USER_CHARGES


@<TRIPOS>ATOM
      1 C           7.0689  -15.8020  -26.8284 C.3     1  UNL1        0.0788
      2 O           6.7095  -14.4711  -27.2377 O.3     1  UNL1       -0.4946
      3 C           5.4516  -14.1942  -27.7040 C.ar    1  UNL1        0.1278
      4 C           4.4750  -15.1232  -27.9555 C.ar    1  UNL1        0.0181
      5 S           3.0010  -14.3216  -28.4789 S.2     1  UNL1       -0.0884
      6 C           3.7783  -12.7329  -28.4333 C.ar    1  UNL1        0.0776
      7 C           5.0687  -12.8481  -27.9561 C.ar    1  UNL1       -0.0007
      8 C           3.0078  -11.5010  -28.7792 C.2     1  UNL1        0.2534
      9 O           2.1726  -11.0628  -28.0045 O.2     1  UNL1       -0.2694
     10 N           3.2670  -10.8638  -30.0059 N.am    1  UNL1       -0.2969
     11 C           2.8084   -9.5073  -30.3741 C.3     1  UNL1        0.0038
     12 C           4.2859  -11.4135  -30.9271 C.3     1  UNL1        0.0269
     13 C           4.6536  -10.4437  -32.0197 C.2     1  UNL1       -0.0998
     14 C           4.2722  -10.5745  -33.3291 C.2     1  UNL1       -0.0630
     15 C           4.8451   -9.4560  -33.9897 C.2     1  UNL1       -0.0144
     16 C           4.7291   -9.1369  -35.4335 C.2     1  UNL1        0.0708
     17 O           5.6642   -8.5471  -35.9465 O.co2   1  UNL1       -0.5447
     18 O           3.7201   -9.4766  -36.0252 O.co2   1  UNL1       -0.5447
     19 C           5.5066   -8.7818  -32.9816 C.2     1  UNL1       -0.1120
     20 C           6.3019   -7.5121  -33.1477 C.3     1  UNL1       -0.0524
     21 O           5.4183   -9.3467  -31.7352 O.co2   1  UNL1       -0.7845
     22 H           8.0867  -15.8110  -26.4985 H       1  UNL1        0.0660
     23 H           6.9559  -16.4720  -27.6550 H       1  UNL1        0.0660
     24 H           6.4314  -16.1131  -26.0274 H       1  UNL1        0.0660
     25 H           4.5888  -16.1437  -27.8524 H       1  UNL1        0.0730
     26 H           5.6913  -12.0403  -27.7985 H       1  UNL1        0.0667
     27 H           2.0763   -9.1745  -29.6683 H       1  UNL1        0.0429
     28 H           2.3759   -9.5304  -31.3525 H       1  UNL1        0.0429
     29 H           3.6410   -8.8354  -30.3680 H       1  UNL1        0.0429
     30 H           3.8994  -12.3053  -31.3746 H       1  UNL1        0.0502
     31 H           5.1687  -11.6128  -30.3563 H       1  UNL1        0.0502
     32 H           3.6949  -11.3224  -33.7443 H       1  UNL1        0.0615
     33 H           6.2721   -7.2040  -34.1719 H       1  UNL1        0.0266
     34 H           7.3168   -7.6863  -32.8570 H       1  UNL1        0.0266
     35 H           5.8812   -6.7447  -32.5320 H       1  UNL1        0.0266
@<TRIPOS>BOND
     1     1     2    1
     2     2     3    1
     3     3     4   ar
     4     4     5   ar
     5     5     6   ar
     6     6     7   ar
     7     3     7   ar
     8     6     8    1
     9     8     9    2
    10     8    10   am
    11    10    11    1
    12    10    12    1
    13    12    13    1
    14    13    14    2
    15    14    15    1
    16    15    16    1
    17    16    17   ar
    18    16    18   ar
    19    15    19    2
    20    19    20    1
    21    19    21    1
    22    13    21    1
    23     1    22    1
    24     1    23    1
    25     1    24    1
    26     4    25    1
    27     7    26    1
    28    11    27    1
    29    11    28    1
    30    11    29    1
    31    12    30    1
    32    12    31    1
    33    14    32    1
    34    20    33    1
    35    20    34    1
    36    20    35    1
@<TRIPOS>SUBSTRUCTURE
     1 UNL1        1 TEMP              0 ****  ****    0 ROOT


