##########                                Name: HTS1710-01416419-01
##########                    Molecular_Weight:             305.287
##########                DOCK_Rotatable_Bonds:                   7
##########                       Formal_Charge:                  -2
##########                     HBond_Acceptors:                   7
##########                        HBond_Donors:                   1
##########                         Heavy_Atoms:                  22
##########                          Grid_Score:          -75.641647
##########                     Grid_vdw_energy:          -40.100849
##########                      Grid_es_energy:          -35.540802
##########           Internal_energy_repulsive:           14.177000

@<TRIPOS>MOLECULE
HTS1710-01416419-01
 37 38 1 0 0
SMALL
USER_CHARGES


@<TRIPOS>ATOM
      1 C           2.7867  -12.6223  -29.6550 C.3     1  UNL1        0.0500
      2 C           3.5470  -12.7948  -28.3509 C.3     1  UNL1       -0.0146
      3 C           2.9257  -11.4513  -28.6916 C.3     1  UNL1        0.0160
      4 C           3.5173  -12.6628  -30.9797 C.2     1  UNL1        0.2215
      5 C           3.8098  -10.2600  -28.9891 C.2     1  UNL1        0.0461
      6 N           3.2834  -11.6186  -31.8728 N.am    1  UNL1       -0.2851
      7 O           4.3172  -13.5475  -31.2203 O.2     1  UNL1       -0.2751
      8 C           6.6558   -6.4366  -34.5281 C.2     1  UNL1        0.0789
      9 C           3.8235  -11.4192  -33.1449 C.ar    1  UNL1        0.0369
     10 O           4.8221  -10.4630  -29.6379 O.co2   1  UNL1       -0.5495
     11 C           4.3606  -10.1404  -33.3898 C.ar    1  UNL1        0.0013
     12 O           6.8886   -6.4344  -35.7240 O.co2   1  UNL1       -0.5463
     13 C           2.8990  -13.6227  -27.2409 C.3     1  UNL1       -0.0585
     14 C           5.0726  -12.9753  -28.3396 C.3     1  UNL1       -0.0585
     15 O           5.4651   -8.5694  -34.9121 O.3     1  UNL1       -0.4861
     16 C           6.1449   -7.7580  -33.9285 C.3     1  UNL1        0.1286
     17 C           4.9322   -9.8167  -34.6401 C.ar    1  UNL1        0.1228
     18 O           3.4839   -9.1872  -28.5120 O.co2   1  UNL1       -0.5495
     19 O           6.8410   -5.4979  -33.7720 O.co2   1  UNL1       -0.5463
     20 C           4.4572  -12.0690  -35.4166 C.ar    1  UNL1       -0.0566
     21 C           3.8888  -12.3900  -34.1739 C.ar    1  UNL1       -0.0402
     22 C           4.9744  -10.7880  -35.6505 C.ar    1  UNL1       -0.0198
     23 H           1.9588  -13.1068  -30.1293 H       1  UNL1        0.0406
     24 H           2.2310  -10.7842  -28.2256 H       1  UNL1        0.0373
     25 H           2.6521  -10.9285  -31.5653 H       1  UNL1        0.1548
     26 H           4.3362   -9.4282  -32.6434 H       1  UNL1        0.0673
     27 H           3.4416  -14.5362  -27.1143 H       1  UNL1        0.0235
     28 H           1.8860  -13.8434  -27.5055 H       1  UNL1        0.0235
     29 H           2.9159  -13.0680  -26.3261 H       1  UNL1        0.0235
     30 H           5.3103  -13.9852  -28.0780 H       1  UNL1        0.0235
     31 H           5.5051  -12.3098  -27.6221 H       1  UNL1        0.0235
     32 H           5.4649  -12.7566  -29.3108 H       1  UNL1        0.0235
     33 H           5.4646   -7.5365  -33.1329 H       1  UNL1        0.0760
     34 H           6.9901   -8.3086  -33.5717 H       1  UNL1        0.0760
     35 H           4.4943  -12.7810  -36.1627 H       1  UNL1        0.0619
     36 H           3.5166  -13.3385  -34.0093 H       1  UNL1        0.0636
     37 H           5.3872  -10.5589  -36.5682 H       1  UNL1        0.0654
@<TRIPOS>BOND
     1     1     2    1
     2     1     3    1
     3     1     4    1
     4     3     5    1
     5     4     6   am
     6     4     7    2
     7     8    16    1
     8     6     9    1
     9     5    10   ar
    10     9    11   ar
    11     8    12   ar
    12     2    13    1
    13     2    14    1
    14    15    17    1
    15    15    16    1
    16    11    17   ar
    17     5    18   ar
    18     8    19   ar
    19    20    21   ar
    20     9    21   ar
    21    20    22   ar
    22     2     3    1
    23    17    22   ar
    24     1    23    1
    25     3    24    1
    26     6    25    1
    27    11    26    1
    28    13    27    1
    29    13    28    1
    30    13    29    1
    31    14    30    1
    32    14    31    1
    33    14    32    1
    34    16    33    1
    35    16    34    1
    36    20    35    1
    37    21    36    1
    38    22    37    1
@<TRIPOS>SUBSTRUCTURE
     1 UNL1        1 TEMP              0 ****  ****    0 ROOT


