##########                                Name: HTS1710-01296697-01
##########                    Molecular_Weight:             308.271
##########                DOCK_Rotatable_Bonds:                   5
##########                       Formal_Charge:                  -2
##########                     HBond_Acceptors:                   9
##########                        HBond_Donors:                   1
##########                         Heavy_Atoms:                  21
##########                          Grid_Score:          -74.953613
##########                     Grid_vdw_energy:          -36.377243
##########                      Grid_es_energy:          -38.576366
##########           Internal_energy_repulsive:            9.177711

@<TRIPOS>MOLECULE
HTS1710-01296697-01
 29 30 1 0 0
SMALL
USER_CHARGES


@<TRIPOS>ATOM
      1 N           2.8072  -11.8629  -35.2996 N.am    1  UNL1       -0.2252
      2 C           1.4799  -12.2218  -35.1222 C.2     1  UNL1        0.2833
      3 S           1.2918  -12.9336  -33.4877 S.3     1  UNL1       -0.0352
      4 C           3.7192  -12.1041  -34.2792 C.2     1  UNL1        0.2538
      5 C           3.0703  -12.7578  -33.0577 C.3     1  UNL1        0.1536
      6 C           3.3550  -11.6358  -29.4531 C.ar    1  UNL1        0.0182
      7 N           3.2310  -11.9141  -31.8612 N.pl3   1  UNL1       -0.3240
      8 C           3.0201  -12.4119  -30.5896 C.ar    1  UNL1        0.0372
      9 C           3.9665  -10.2636  -29.5733 C.2     1  UNL1        0.0734
     10 C           3.2469  -11.2510  -36.5746 C.3     1  UNL1        0.0625
     11 C           3.3887   -9.7351  -36.4154 C.2     1  UNL1        0.0595
     12 O           0.5860  -12.0846  -35.9400 O.2     1  UNL1       -0.2623
     13 O           4.9098  -11.8442  -34.3449 O.2     1  UNL1       -0.2721
     14 O           4.8140  -10.1116  -30.4358 O.co2   1  UNL1       -0.5446
     15 O           2.4989   -9.1526  -35.8204 O.co2   1  UNL1       -0.5482
     16 O           3.5628   -9.3969  -28.8163 O.co2   1  UNL1       -0.5446
     17 O           4.3822   -9.2141  -36.8924 O.co2   1  UNL1       -0.5482
     18 C           3.0972  -12.1489  -28.1662 C.ar    1  UNL1       -0.0511
     19 C           2.4555  -13.6925  -30.4170 C.ar    1  UNL1       -0.0402
     20 C           2.5262  -13.4193  -28.0048 C.ar    1  UNL1       -0.0610
     21 C           2.2083  -14.1920  -29.1290 C.ar    1  UNL1       -0.0600
     22 H           3.5227  -13.6999  -32.8285 H       1  UNL1        0.0717
     23 H           3.4951  -10.9720  -31.9702 H       1  UNL1        0.1476
     24 H           2.5231  -11.4599  -37.3345 H       1  UNL1        0.0531
     25 H           4.1957  -11.6624  -36.8492 H       1  UNL1        0.0531
     26 H           3.3308  -11.5843  -27.3346 H       1  UNL1        0.0625
     27 H           2.2226  -14.2658  -31.2429 H       1  UNL1        0.0636
     28 H           2.3402  -13.7851  -27.0579 H       1  UNL1        0.0618
     29 H           1.7922  -15.1289  -29.0102 H       1  UNL1        0.0618
@<TRIPOS>BOND
     1     1     2   am
     2     2     3    1
     3     1     4   am
     4     4     5    1
     5     6     8   ar
     6     5     7    1
     7     7     8    1
     8     6     9    1
     9     1    10    1
    10    10    11    1
    11     2    12    2
    12     4    13    2
    13     9    14   ar
    14    11    15   ar
    15     9    16   ar
    16    11    17   ar
    17     6    18   ar
    18     8    19   ar
    19    20    21   ar
    20    19    21   ar
    21     3     5    1
    22    18    20   ar
    23     5    22    1
    24     7    23    1
    25    10    24    1
    26    10    25    1
    27    18    26    1
    28    19    27    1
    29    20    28    1
    30    21    29    1
@<TRIPOS>SUBSTRUCTURE
     1 UNL1        1 TEMP              0 ****  ****    0 ROOT


