##########                                Name: HTS1710-01189738-01
##########                    Molecular_Weight:             313.331
##########                DOCK_Rotatable_Bonds:                   7
##########                       Formal_Charge:                  -2
##########                     HBond_Acceptors:                   8
##########                        HBond_Donors:                   0
##########                         Heavy_Atoms:                  21
##########                          Grid_Score:          -74.873779
##########                     Grid_vdw_energy:          -36.601086
##########                      Grid_es_energy:          -38.272694
##########           Internal_energy_repulsive:           13.377547

@<TRIPOS>MOLECULE
HTS1710-01189738-01
 36 36 1 0 0
SMALL
USER_CHARGES


@<TRIPOS>ATOM
      1 S           2.4250  -13.2772  -32.4543 S.O2    1  UNL1        0.0609
      2 C           2.6182  -12.6363  -30.7627 C.ar    1  UNL1        0.1090
      3 C           3.0666  -11.3072  -30.6033 C.ar    1  UNL1       -0.0262
      4 N           2.7537  -11.9257  -33.4451 N.3     1  UNL1       -0.1796
      5 C           3.2363  -10.7384  -29.3245 C.ar    1  UNL1       -0.0008
      6 C           3.7118   -9.3101  -29.1692 C.2     1  UNL1        0.0717
      7 O           3.5227  -14.2245  -32.6755 O.2     1  UNL1       -0.1528
      8 O           1.0272  -13.6557  -32.6827 O.2     1  UNL1       -0.1528
      9 C           2.3424  -13.4208  -29.6125 C.ar    1  UNL1       -0.0241
     10 C           5.7562   -8.6407  -34.1286 C.2     1  UNL1        0.0418
     11 O           3.3995   -8.7183  -28.1493 O.co2   1  UNL1       -0.5446
     12 C           2.9525  -11.5265  -28.1931 C.ar    1  UNL1       -0.0525
     13 O           5.7337   -8.2444  -35.2824 O.co2   1  UNL1       -0.5498
     14 C           2.5124  -12.8486  -28.3379 C.ar    1  UNL1       -0.0564
     15 O           4.3794   -8.8372  -30.0735 O.co2   1  UNL1       -0.5446
     16 O           6.0094   -7.9519  -33.1552 O.co2   1  UNL1       -0.5498
     17 C           3.8878  -12.1172  -34.3823 C.3     1  UNL1        0.0205
     18 C           5.4429  -10.1217  -33.8546 C.3     1  UNL1       -0.0120
     19 C           4.5083  -10.7911  -34.9002 C.3     1  UNL1       -0.0335
     20 C           1.5795  -11.2467  -34.0377 C.3     1  UNL1        0.0089
     21 C           1.8686  -14.8718  -29.6925 C.3     1  UNL1       -0.0379
     22 H           3.2744  -10.7402  -31.4401 H       1  UNL1        0.0643
     23 H           3.0698  -11.1269  -27.2488 H       1  UNL1        0.0624
     24 H           2.3097  -13.4116  -27.4972 H       1  UNL1        0.0621
     25 H           3.5377  -12.6767  -35.2246 H       1  UNL1        0.0444
     26 H           4.6557  -12.6280  -33.8397 H       1  UNL1        0.0444
     27 H           4.9740  -10.1914  -32.8953 H       1  UNL1        0.0325
     28 H           6.3760  -10.6428  -33.9054 H       1  UNL1        0.0325
     29 H           5.0755  -10.9997  -35.7832 H       1  UNL1        0.0282
     30 H           3.7050  -10.1128  -35.0989 H       1  UNL1        0.0282
     31 H           0.8125  -11.1498  -33.2979 H       1  UNL1        0.0408
     32 H           1.2110  -11.8239  -34.8598 H       1  UNL1        0.0408
     33 H           1.8660  -10.2756  -34.3837 H       1  UNL1        0.0408
     34 H           1.7868  -15.1642  -30.7185 H       1  UNL1        0.0278
     35 H           0.9135  -14.9619  -29.2187 H       1  UNL1        0.0278
     36 H           2.5740  -15.5052  -29.1962 H       1  UNL1        0.0278
@<TRIPOS>BOND
     1     1     2    1
     2     2     3   ar
     3     1     4    1
     4     3     5   ar
     5     5     6    1
     6     1     7    2
     7     1     8    2
     8     2     9   ar
     9    10    18    1
    10     6    11   ar
    11    12    14   ar
    12    10    13   ar
    13     9    14   ar
    14     6    15   ar
    15    10    16   ar
    16     4    17    1
    17    18    19    1
    18    17    19    1
    19     4    20    1
    20     9    21    1
    21     5    12   ar
    22     3    22    1
    23    12    23    1
    24    14    24    1
    25    17    25    1
    26    17    26    1
    27    18    27    1
    28    18    28    1
    29    19    29    1
    30    19    30    1
    31    20    31    1
    32    20    32    1
    33    20    33    1
    34    21    34    1
    35    21    35    1
    36    21    36    1
@<TRIPOS>SUBSTRUCTURE
     1 UNL1        1 TEMP              0 ****  ****    0 ROOT


