HTS1710-00384838-01
 OpenBabel03232612353D

 45 47  0  0  1  0  0  0  0  0999 V2000
    4.4091  -13.3373  -30.2024 C   0  0  0  0  0  0  0  0  0  0  0  0
    3.5890  -12.1267  -30.4209 N   0  0  0  0  0  0  0  0  0  0  0  0
    3.7343  -11.0612  -29.4100 C   0  0  0  0  0  0  0  0  0  0  0  0
    3.9701   -9.7264  -30.0655 C   0  0  0  0  0  0  0  0  0  0  0  0
    3.0568   -8.7060  -30.0809 C   0  0  0  0  0  0  0  0  0  0  0  0
    3.6661   -7.6826  -30.8508 C   0  0  0  0  0  0  0  0  0  0  0  0
    3.0740   -6.3611  -31.1679 C   0  0  0  0  0  0  0  0  0  0  0  0
    1.9351   -6.3222  -31.5984 O   0  5  0  0  0  0  0  0  0  0  0  0
    3.7732   -5.3813  -30.9769 O   0  0  0  0  0  0  0  0  0  0  0  0
    4.8884   -8.2204  -31.2066 C   0  0  0  0  0  0  0  0  0  0  0  0
    5.9408   -7.5332  -32.0393 C   0  0  0  0  0  0  0  0  0  0  0  0
    5.1309   -9.4908  -30.7489 O   0  0  0  0  0  0  0  0  0  0  0  0
    2.8042  -11.9203  -31.5608 C   0  0  0  0  0  0  0  0  0  0  0  0
    2.3040  -10.8333  -31.8014 O   0  0  0  0  0  0  0  0  0  0  0  0
    2.7141  -13.1004  -32.5642 C   0  0  1  0  0  0  0  0  0  0  0  0
    1.5061  -12.9757  -33.5328 C   0  0  0  0  0  0  0  0  0  0  0  0
    2.0627  -12.4295  -34.7675 N   0  0  0  0  0  0  0  0  0  0  0  0
    1.2063  -11.6553  -35.6758 C   0  0  0  0  0  0  0  0  0  0  0  0
    0.8103  -10.3355  -35.0686 C   0  0  0  0  0  0  0  0  0  0  0  0
    1.1874   -9.1178  -35.5652 C   0  0  0  0  0  0  0  0  0  0  0  0
    0.6170   -8.1859  -34.6662 C   0  0  0  0  0  0  0  0  0  0  0  0
   -0.0378   -8.9441  -33.7280 C   0  0  0  0  0  0  0  0  0  0  0  0
    0.0483  -10.2997  -33.9320 O   0  0  0  0  0  0  0  0  0  0  0  0
    3.4395  -12.4345  -34.7810 C   0  0  0  0  0  0  0  0  0  0  0  0
    4.1377  -11.9331  -35.6457 O   0  0  0  0  0  0  0  0  0  0  0  0
    3.9474  -13.1071  -33.5137 C   0  0  0  0  0  0  0  0  0  0  0  0
    4.9149  -13.2606  -29.2627 H   0  0  0  0  0  0  0  0  0  0  0  0
    5.1291  -13.4271  -30.9888 H   0  0  0  0  0  0  0  0  0  0  0  0
    3.7767  -14.2003  -30.1977 H   0  0  0  0  0  0  0  0  0  0  0  0
    4.5645  -11.2913  -28.7755 H   0  0  0  0  0  0  0  0  0  0  0  0
    2.8310  -11.0066  -28.8389 H   0  0  0  0  0  0  0  0  0  0  0  0
    2.1284   -8.6861  -29.6307 H   0  0  0  0  0  0  0  0  0  0  0  0
    5.5978   -6.5574  -32.3134 H   0  0  0  0  0  0  0  0  0  0  0  0
    6.1271   -8.1071  -32.9230 H   0  0  0  0  0  0  0  0  0  0  0  0
    6.8443   -7.4476  -31.4726 H   0  0  0  0  0  0  0  0  0  0  0  0
    2.6382  -13.9741  -31.9512 H   0  0  0  0  0  0  0  0  0  0  0  0
    0.7677  -12.3149  -33.1292 H   0  0  0  0  0  0  0  0  0  0  0  0
    1.0222  -13.9165  -33.6931 H   0  0  0  0  0  0  0  0  0  0  0  0
    0.3225  -12.2203  -35.8865 H   0  0  0  0  0  0  0  0  0  0  0  0
    1.7566  -11.4609  -36.5725 H   0  0  0  0  0  0  0  0  0  0  0  0
    1.7573   -8.9236  -36.4033 H   0  0  0  0  0  0  0  0  0  0  0  0
    0.6799   -7.1566  -34.7071 H   0  0  0  0  0  0  0  0  0  0  0  0
   -0.5523   -8.5301  -32.9349 H   0  0  0  0  0  0  0  0  0  0  0  0
    4.7583  -12.5537  -33.0881 H   0  0  0  0  0  0  0  0  0  0  0  0
    4.3240  -14.0925  -33.6929 H   0  0  0  0  0  0  0  0  0  0  0  0
  1  2  1  0  0  0  0
  1 27  1  0  0  0  0
  1 28  1  0  0  0  0
  1 29  1  0  0  0  0
  2  3  1  0  0  0  0
  2 13  1  0  0  0  0
  3  4  1  0  0  0  0
  3 30  1  0  0  0  0
  3 31  1  0  0  0  0
  4  5  2  0  0  0  0
  4 12  1  0  0  0  0
  5  6  1  0  0  0  0
  5 32  1  0  0  0  0
  6  7  1  0  0  0  0
  6 10  2  0  0  0  0
  7  8  1  0  0  0  0
  7  9  2  0  0  0  0
 10 11  1  0  0  0  0
 10 12  1  0  0  0  0
 11 33  1  0  0  0  0
 11 34  1  0  0  0  0
 11 35  1  0  0  0  0
 13 14  2  0  0  0  0
 13 15  1  0  0  0  0
 15 16  1  0  0  0  0
 15 26  1  0  0  0  0
 15 36  1  1  0  0  0
 16 17  1  0  0  0  0
 16 37  1  0  0  0  0
 16 38  1  0  0  0  0
 17 18  1  0  0  0  0
 17 24  1  0  0  0  0
 18 19  1  0  0  0  0
 18 39  1  0  0  0  0
 18 40  1  0  0  0  0
 19 20  2  0  0  0  0
 19 23  1  0  0  0  0
 20 21  1  0  0  0  0
 20 41  1  0  0  0  0
 21 22  2  0  0  0  0
 21 42  1  0  0  0  0
 22 23  1  0  0  0  0
 22 43  1  0  0  0  0
 24 25  2  0  0  0  0
 24 26  1  0  0  0  0
 26 44  1  0  0  0  0
 26 45  1  0  0  0  0
M  CHG  1   8  -1
M  END
$$$$
