##########                                Name: HTS1710-03146977-01
##########                    Molecular_Weight:             406.308
##########                DOCK_Rotatable_Bonds:                   5
##########                       Formal_Charge:                  -2
##########                     HBond_Acceptors:                  10
##########                        HBond_Donors:                   0
##########                         Heavy_Atoms:                  30
##########                          Grid_Score:          -77.686096
##########                     Grid_vdw_energy:          -44.672211
##########                      Grid_es_energy:          -33.013882
##########           Internal_energy_repulsive:            7.905601

@<TRIPOS>MOLECULE
HTS1710-03146977-01
 40 43 1 0 0
SMALL
USER_CHARGES


@<TRIPOS>ATOM
      1 N           1.8333  -10.3477  -36.3552 N.am    1  UNL1       -0.2326
      2 N           4.0254  -11.3226  -34.3991 N.am    1  UNL1       -0.2326
      3 C           1.8104   -9.1777  -37.1041 C.2     1  UNL1        0.2539
      4 C           3.6576  -10.2880  -33.5450 C.2     1  UNL1        0.2539
      5 C           0.8801  -10.3439  -35.3420 C.2     1  UNL1        0.2539
      6 C           4.2304  -12.5176  -33.7212 C.2     1  UNL1        0.2539
      7 C           0.7170   -8.3495  -36.5268 C.ar    1  UNL1        0.0500
      8 C           3.6540  -10.8751  -32.1775 C.ar    1  UNL1        0.0500
      9 C           0.1591   -9.0493  -35.4730 C.ar    1  UNL1        0.0494
     10 C           3.9961  -12.2107  -32.2854 C.ar    1  UNL1        0.0494
     11 C           0.2528   -7.0837  -36.8995 C.ar    1  UNL1       -0.0400
     12 C           3.3770  -10.2841  -30.9391 C.ar    1  UNL1       -0.0400
     13 C           4.1414  -11.1828  -35.8618 C.3     1  UNL1        0.0392
     14 C           2.7963  -11.4413  -36.5764 C.3     1  UNL1        0.0392
     15 C           3.4517  -11.0917  -29.7750 C.ar    1  UNL1       -0.0019
     16 C          -0.8197   -6.5162  -36.1667 C.ar    1  UNL1       -0.0019
     17 C          -1.3510   -5.1480  -36.5329 C.2     1  UNL1        0.0717
     18 C           3.1558  -10.5008  -28.4141 C.2     1  UNL1        0.0717
     19 C          -0.9006   -8.5223  -34.7300 C.ar    1  UNL1       -0.0483
     20 C           4.0825  -13.0341  -31.1603 C.ar    1  UNL1       -0.0483
     21 O           2.5364   -8.8929  -38.0411 O.2     1  UNL1       -0.2695
     22 O           3.3996   -9.1370  -33.8547 O.2     1  UNL1       -0.2695
     23 O           0.6753  -11.2219  -34.5208 O.2     1  UNL1       -0.2695
     24 O           4.5425  -13.5915  -34.2051 O.2     1  UNL1       -0.2695
     25 C          -1.3871   -7.2473  -35.0840 C.ar    1  UNL1       -0.0521
     26 C           3.8066  -12.4642  -29.9014 C.ar    1  UNL1       -0.0521
     27 O          -0.7684   -4.5319  -37.4100 O.co2   1  UNL1       -0.5446
     28 O           3.6454   -9.4160  -28.1523 O.co2   1  UNL1       -0.5446
     29 O           2.4443  -11.1465  -27.6623 O.co2   1  UNL1       -0.5446
     30 O          -2.3307   -4.7442  -35.9299 O.co2   1  UNL1       -0.5446
     31 H           0.6808   -6.5752  -37.6889 H       1  UNL1        0.0632
     32 H           3.1247   -9.2855  -30.8744 H       1  UNL1        0.0632
     33 H           4.8635  -11.8865  -36.2199 H       1  UNL1        0.0485
     34 H           4.4412  -10.1781  -36.0751 H       1  UNL1        0.0485
     35 H           2.9760  -11.5358  -37.6269 H       1  UNL1        0.0485
     36 H           2.3752  -12.3384  -36.1729 H       1  UNL1        0.0485
     37 H          -1.3145   -9.0503  -33.9458 H       1  UNL1        0.0625
     38 H           4.3405  -14.0294  -31.2484 H       1  UNL1        0.0625
     39 H          -2.1682   -6.8365  -34.5493 H       1  UNL1        0.0624
     40 H           3.8629  -13.0529  -29.0555 H       1  UNL1        0.0624
@<TRIPOS>BOND
     1     1     3   am
     2     1     5   am
     3     1    14    1
     4     2     4   am
     5     2     6   am
     6     2    13    1
     7     3     7    1
     8     3    21    2
     9     4     8    1
    10     4    22    2
    11     5     9    1
    12     5    23    2
    13     6    10    1
    14     6    24    2
    15     7     9   ar
    16     7    11   ar
    17     8    10   ar
    18     8    12   ar
    19     9    19   ar
    20    10    20   ar
    21    11    16   ar
    22    12    15   ar
    23    13    14    1
    24    15    18    1
    25    15    26   ar
    26    16    17    1
    27    16    25   ar
    28    17    27   ar
    29    17    30   ar
    30    18    28   ar
    31    18    29   ar
    32    19    25   ar
    33    20    26   ar
    34    11    31    1
    35    12    32    1
    36    13    33    1
    37    13    34    1
    38    14    35    1
    39    14    36    1
    40    19    37    1
    41    20    38    1
    42    25    39    1
    43    26    40    1
@<TRIPOS>SUBSTRUCTURE
     1 UNL1        1 TEMP              0 ****  ****    0 ROOT


