HTS1710-04403662-01
 OpenBabel03232612343D

 39 40  0  0  1  0  0  0  0  0999 V2000
    2.8253  -12.8504  -29.6517 N   0  0  0  0  0  0  0  0  0  0  0  0
    1.9455  -13.9159  -29.5041 C   0  0  0  0  0  0  0  0  0  0  0  0
    2.9804  -12.4204  -30.9731 C   0  0  0  0  0  0  0  0  0  0  0  0
    2.1050  -13.2171  -31.8678 C   0  0  0  0  0  0  0  0  0  0  0  0
    1.2567  -14.5075  -31.0410 S   0  0  0  0  0  0  0  0  0  0  0  0
    3.4957  -12.1945  -28.4942 C   0  0  2  0  0  0  0  0  0  0  0  0
    1.9661  -13.0700  -33.2319 C   0  0  0  0  0  0  0  0  0  0  0  0
    3.3060  -10.6599  -28.5607 C   0  0  0  0  0  0  0  0  0  0  0  0
    1.4930  -14.6096  -28.0456 S   0  0  0  0  0  0  0  0  0  0  0  0
    4.9825  -12.6433  -28.3452 C   0  0  0  0  0  0  0  0  0  0  0  0
    2.2203  -10.0416  -35.5218 C   0  0  0  0  0  0  0  0  0  0  0  0
    3.7730  -11.5652  -31.3240 O   0  0  0  0  0  0  0  0  0  0  0  0
    6.5632  -14.4732  -27.3459 C   0  0  0  0  0  0  0  0  0  0  0  0
    2.4820  -12.1520  -34.2921 C   0  0  0  0  0  0  0  0  0  0  0  0
    3.3933  -10.3194  -36.2457 C   0  0  0  0  0  0  0  0  0  0  0  0
    1.7783  -10.9554  -34.5390 C   0  0  0  0  0  0  0  0  0  0  0  0
    2.1794  -10.2081  -28.4398 O   0  5  0  0  0  0  0  0  0  0  0  0
    7.4758  -13.6868  -27.5355 O   0  5  0  0  0  0  0  0  0  0  0  0
    4.1222  -11.4869  -35.9768 C   0  0  0  0  0  0  0  0  0  0  0  0
    5.1653  -14.1188  -27.8881 C   0  0  0  0  0  0  0  0  0  0  0  0
    4.3104   -9.9937  -28.7446 O   0  0  0  0  0  0  0  0  0  0  0  0
    3.6766  -12.3914  -35.0018 C   0  0  0  0  0  0  0  0  0  0  0  0
    6.6621  -15.5298  -26.7466 O   0  0  0  0  0  0  0  0  0  0  0  0
    1.5332   -8.8711  -35.7947 O   0  0  0  0  0  0  0  0  0  0  0  0
    3.8400   -9.4463  -37.1970 O   0  0  0  0  0  0  0  0  0  0  0  0
    0.2893   -8.5229  -35.1612 C   0  0  0  0  0  0  0  0  0  0  0  0
    3.0222  -12.5226  -27.5925 H   0  0  0  0  0  0  0  0  0  0  0  0
    1.3368  -13.7864  -33.6266 H   0  0  0  0  0  0  0  0  0  0  0  0
    5.4530  -12.0085  -27.6236 H   0  0  0  0  0  0  0  0  0  0  0  0
    5.4232  -12.5678  -29.3173 H   0  0  0  0  0  0  0  0  0  0  0  0
    0.9279  -10.7440  -33.9939 H   0  0  0  0  0  0  0  0  0  0  0  0
    4.9909  -11.6815  -36.4989 H   0  0  0  0  0  0  0  0  0  0  0  0
    4.4517  -14.3160  -27.1157 H   0  0  0  0  0  0  0  0  0  0  0  0
    5.0275  -14.7183  -28.7636 H   0  0  0  0  0  0  0  0  0  0  0  0
    4.2285  -13.2402  -34.8020 H   0  0  0  0  0  0  0  0  0  0  0  0
    4.7596   -9.3053  -37.3088 H   0  0  0  0  0  0  0  0  0  0  0  0
   -0.0474   -7.5773  -35.5319 H   0  0  0  0  0  0  0  0  0  0  0  0
    0.4334   -8.4602  -34.1028 H   0  0  0  0  0  0  0  0  0  0  0  0
   -0.4433   -9.2722  -35.3777 H   0  0  0  0  0  0  0  0  0  0  0  0
  1  2  1  0  0  0  0
  1  3  1  0  0  0  0
  1  6  1  0  0  0  0
  2  5  1  0  0  0  0
  2  9  2  0  0  0  0
  3  4  1  0  0  0  0
  3 12  2  0  0  0  0
  4  7  2  0  0  0  0
  4  5  1  0  0  0  0
  6  8  1  0  0  0  0
  6 10  1  0  0  0  0
  6 27  1  1  0  0  0
  7 14  1  0  0  0  0
  7 28  1  0  0  0  0
  8 17  1  0  0  0  0
  8 21  2  0  0  0  0
 10 20  1  0  0  0  0
 10 29  1  0  0  0  0
 10 30  1  0  0  0  0
 11 16  2  0  0  0  0
 11 24  1  0  0  0  0
 11 15  1  0  0  0  0
 13 20  1  0  0  0  0
 13 18  1  0  0  0  0
 13 23  2  0  0  0  0
 14 16  1  0  0  0  0
 14 22  2  0  0  0  0
 15 19  2  0  0  0  0
 15 25  1  0  0  0  0
 16 31  1  0  0  0  0
 19 22  1  0  0  0  0
 19 32  1  0  0  0  0
 20 33  1  0  0  0  0
 20 34  1  0  0  0  0
 22 35  1  0  0  0  0
 24 26  1  0  0  0  0
 25 36  1  0  0  0  0
 26 37  1  0  0  0  0
 26 38  1  0  0  0  0
 26 39  1  0  0  0  0
M  CHG  2  17  -1  18  -1
M  END
$$$$
