HTS1710-01267065-01
 OpenBabel03232612363D

 50 52  0  0  1  0  0  0  0  0999 V2000
    3.8040  -11.1547  -31.7990 C   0  0  0  0  0  0  0  0  0  0  0  0
    4.2178  -11.1130  -30.4666 C   0  0  0  0  0  0  0  0  0  0  0  0
    3.9468  -12.2854  -29.7190 N   0  0  0  0  0  0  0  0  0  0  0  0
    3.1293  -12.3280  -32.4048 C   0  0  0  0  0  0  0  0  0  0  0  0
    2.9358  -13.3833  -31.5367 N   0  0  0  0  0  0  0  0  0  0  0  0
    3.3052  -13.3979  -30.2704 C   0  0  0  0  0  3  0  0  0  0  0  0
    4.0549   -9.9355  -32.6976 C   0  0  2  0  0  0  0  0  0  0  0  0
    2.7493   -9.3435  -33.2614 C   0  0  0  0  0  0  0  0  0  0  0  0
    1.8816   -8.5403  -32.4923 C   0  0  0  0  0  0  0  0  0  0  0  0
    4.3484  -12.3085  -28.3652 C   0  0  0  0  0  0  0  0  0  0  0  0
    0.6848   -8.0227  -33.0386 C   0  0  0  0  0  0  0  0  0  0  0  0
    5.1670  -10.2186  -33.7514 C   0  0  0  0  0  0  0  0  0  0  0  0
    2.7663  -12.3950  -33.5656 O   0  0  0  0  0  0  0  0  0  0  0  0
    5.5818   -8.9507  -34.5090 C   0  0  0  0  0  0  0  0  0  0  0  0
    3.0156  -14.5886  -29.5466 C   0  0  0  0  0  0  0  0  0  0  0  0
    0.3444   -8.3333  -34.3808 C   0  0  0  0  0  0  0  0  0  0  0  0
   -2.9545   -6.7436  -35.4169 C   0  0  0  0  0  0  0  0  0  0  0  0
    4.8425  -10.0688  -29.8713 O   0  5  0  0  0  0  0  0  0  0  0  0
   -0.8064   -7.8840  -35.0112 O   0  0  0  0  0  0  0  0  0  0  0  0
    2.4130   -9.6097  -34.5993 C   0  0  0  0  0  0  0  0  0  0  0  0
    4.0649  -13.4745  -27.6607 C   0  0  0  0  0  0  0  0  0  0  0  0
    3.4019  -14.6171  -28.2317 C   0  0  0  0  0  0  0  0  0  0  0  0
    5.3577   -8.7703  -35.6950 O   0  0  0  0  0  0  0  0  0  0  0  0
   -2.8129   -5.7951  -36.1688 O   0  5  0  0  0  0  0  0  0  0  0  0
    1.2261   -9.1086  -35.1505 C   0  0  0  0  0  0  0  0  0  0  0  0
   -1.8128   -7.0228  -34.4271 C   0  0  0  0  0  0  0  0  0  0  0  0
   -3.9426   -7.4552  -35.3576 O   0  0  0  0  0  0  0  0  0  0  0  0
   -0.1274   -7.1922  -32.2882 O   0  0  0  0  0  0  0  0  0  0  0  0
    6.2102   -8.0536  -33.6911 O   0  0  0  0  0  0  0  0  0  0  0  0
    0.3006   -6.5329  -31.0848 C   0  0  0  0  0  0  0  0  0  0  0  0
    6.7407   -6.8380  -34.2483 C   0  0  0  0  0  0  0  0  0  0  0  0
    2.4883  -14.1861  -31.8893 H   0  0  0  0  0  0  0  0  0  0  0  0
    4.4502   -9.1486  -32.0897 H   0  0  0  0  0  0  0  0  0  0  0  0
    2.1249   -8.3264  -31.5124 H   0  0  0  0  0  0  0  0  0  0  0  0
    4.8248  -11.5064  -27.9237 H   0  0  0  0  0  0  0  0  0  0  0  0
    4.8005  -10.9365  -34.4552 H   0  0  0  0  0  0  0  0  0  0  0  0
    6.0265  -10.5875  -33.2317 H   0  0  0  0  0  0  0  0  0  0  0  0
    2.5391  -15.3898  -29.9893 H   0  0  0  0  0  0  0  0  0  0  0  0
    3.0461  -10.1797  -35.1817 H   0  0  0  0  0  0  0  0  0  0  0  0
    4.3471  -13.5228  -26.6692 H   0  0  0  0  0  0  0  0  0  0  0  0
    3.2184  -15.4528  -27.6547 H   0  0  0  0  0  0  0  0  0  0  0  0
    0.9970   -9.3123  -36.1358 H   0  0  0  0  0  0  0  0  0  0  0  0
   -2.2149   -7.4978  -33.5567 H   0  0  0  0  0  0  0  0  0  0  0  0
   -1.3523   -6.0912  -34.1725 H   0  0  0  0  0  0  0  0  0  0  0  0
   -0.5056   -5.9497  -30.6915 H   0  0  0  0  0  0  0  0  0  0  0  0
    1.1297   -5.8931  -31.3043 H   0  0  0  0  0  0  0  0  0  0  0  0
    0.5965   -7.2651  -30.3629 H   0  0  0  0  0  0  0  0  0  0  0  0
    7.1947   -6.2581  -33.4720 H   0  0  0  0  0  0  0  0  0  0  0  0
    5.9484   -6.2756  -34.6966 H   0  0  0  0  0  0  0  0  0  0  0  0
    7.4736   -7.0760  -34.9908 H   0  0  0  0  0  0  0  0  0  0  0  0
  1  2  2  0  0  0  0
  1  4  1  0  0  0  0
  1  7  1  0  0  0  0
  2  3  1  0  0  0  0
  2 18  1  0  0  0  0
  3 10  1  0  0  0  0
  3  6  1  0  0  0  0
  4  5  1  0  0  0  0
  4 13  2  0  0  0  0
  5  6  1  0  0  0  0
  5 32  1  0  0  0  0
  6 15  1  0  0  0  0
  7  8  1  0  0  0  0
  7 12  1  0  0  0  0
  7 33  1  1  0  0  0
  8  9  2  0  0  0  0
  8 20  1  0  0  0  0
  9 11  1  0  0  0  0
  9 34  1  0  0  0  0
 10 21  2  0  0  0  0
 10 35  1  0  0  0  0
 11 28  1  0  0  0  0
 11 16  2  0  0  0  0
 12 14  1  0  0  0  0
 12 36  1  0  0  0  0
 12 37  1  0  0  0  0
 14 23  2  0  0  0  0
 14 29  1  0  0  0  0
 15 22  2  0  0  0  0
 15 38  1  0  0  0  0
 16 25  1  0  0  0  0
 16 19  1  0  0  0  0
 17 26  1  0  0  0  0
 17 24  1  0  0  0  0
 17 27  2  0  0  0  0
 19 26  1  0  0  0  0
 20 25  2  0  0  0  0
 20 39  1  0  0  0  0
 21 22  1  0  0  0  0
 21 40  1  0  0  0  0
 22 41  1  0  0  0  0
 25 42  1  0  0  0  0
 26 43  1  0  0  0  0
 26 44  1  0  0  0  0
 28 30  1  0  0  0  0
 29 31  1  0  0  0  0
 30 45  1  0  0  0  0
 30 46  1  0  0  0  0
 30 47  1  0  0  0  0
 31 48  1  0  0  0  0
 31 49  1  0  0  0  0
 31 50  1  0  0  0  0
M  CHG  2  18  -1  24  -1
M  END
$$$$
