HTS1710-00430224-01
 OpenBabel03232612363D

 31 31  0  0  1  0  0  0  0  0999 V2000
    0.0603   -7.8197  -35.1842 C   0  0  0  0  0  0  0  0  0  0  0  0
    3.0457  -10.0063  -31.6797 C   0  0  2  0  0  0  0  0  0  0  0  0
    4.4512   -9.4965  -32.0398 C   0  0  0  0  0  0  0  0  0  0  0  0
    3.1160  -11.1300  -30.6108 C   0  0  0  0  0  0  0  0  0  0  0  0
    1.1398   -8.5023  -35.7824 C   0  0  0  0  0  0  0  0  0  0  0  0
   -0.2348   -8.0551  -33.8256 C   0  0  0  0  0  0  0  0  0  0  0  0
    1.9167   -9.4148  -35.0399 C   0  0  0  0  0  0  0  0  0  0  0  0
    0.5399   -8.9550  -33.0799 C   0  0  0  0  0  0  0  0  0  0  0  0
    1.6191   -9.6360  -33.6725 C   0  0  0  0  0  0  0  0  0  0  0  0
    3.9543   -9.1614  -29.1819 O   0  0  0  0  0  1  0  0  0  0  0  0
    4.6340  -11.4136  -28.5230 O   0  0  0  0  0  0  0  0  0  0  0  0
    2.3201  -10.6860  -28.1898 O   0  0  0  0  0  0  0  0  0  0  0  0
    3.5531  -10.5377  -28.9434 S   0  0  0  0  0  0  0  0  0  0  0  0
    4.5322   -8.5288  -32.7777 O   0  5  0  0  0  0  0  0  0  0  0  0
    5.3959  -10.0890  -31.5482 O   0  0  0  0  0  0  0  0  0  0  0  0
    2.3785  -10.4925  -32.9022 N   0  0  0  0  0  0  0  0  0  0  0  0
    3.0453  -10.1128  -35.7203 N   0  0  0  0  0  0  0  0  0  0  0  0
    3.6919   -9.4732  -36.5457 O   0  5  0  0  0  0  0  0  0  0  0  0
    3.1759  -11.3206  -35.5397 O   0  0  0  0  0  0  0  0  0  0  0  0
   -0.7661   -6.8648  -35.9822 N   0  0  0  0  0  0  0  0  0  0  0  0
   -0.4809   -6.6976  -37.1652 O   0  5  0  0  0  0  0  0  0  0  0  0
   -1.6978   -6.2928  -35.4210 O   0  0  0  0  0  0  0  0  0  0  0  0
    2.4797   -9.2002  -31.2616 H   0  0  0  0  0  0  0  0  0  0  0  0
    3.8524  -11.8424  -30.9190 H   0  0  0  0  0  0  0  0  0  0  0  0
    2.1364  -11.5550  -30.5423 H   0  0  0  0  0  0  0  0  0  0  0  0
    1.3637   -8.3318  -36.7753 H   0  0  0  0  0  0  0  0  0  0  0  0
   -1.0240   -7.5631  -33.3784 H   0  0  0  0  0  0  0  0  0  0  0  0
    0.3161   -9.1195  -32.0860 H   0  0  0  0  0  0  0  0  0  0  0  0
    2.4757  -11.4348  -33.1702 H   0  0  0  0  0  0  0  0  0  0  0  0
    3.6579  -10.8135  -35.3993 H   0  0  0  0  0  0  0  0  0  0  0  0
   -0.4478   -7.6446  -35.4724 H   0  0  0  0  0  0  0  0  0  0  0  0
  1  5  2  0  0  0  0
  1  6  1  0  0  0  0
  1 20  1  0  0  0  0
  2 16  1  0  0  0  0
  2  3  1  0  0  0  0
  2  4  1  0  0  0  0
  2 23  1  1  0  0  0
  3 15  2  0  0  0  0
  3 14  1  0  0  0  0
  4 13  1  0  0  0  0
  4 24  1  0  0  0  0
  4 25  1  0  0  0  0
  5  7  1  0  0  0  0
  5 26  1  0  0  0  0
  6  8  2  0  0  0  0
  6 27  1  0  0  0  0
  7  9  2  0  0  0  0
  7 17  1  0  0  0  0
  8  9  1  0  0  0  0
  8 28  1  0  0  0  0
  9 16  1  0  0  0  0
 10 13  1  0  0  0  0
 11 13  2  0  0  0  0
 12 13  2  0  0  0  0
 16 29  1  0  0  0  0
 17 18  1  0  0  0  0
 17 19  2  0  0  0  0
 17 30  1  0  0  0  0
 20 21  1  0  0  0  0
 20 22  2  0  0  0  0
 20 31  1  0  0  0  0
M  CHG  3  14  -1  18  -1  21  -1
M  END
$$$$
