##########                                Name: HTS1710-04005475-01
##########                    Molecular_Weight:             391.358
##########                DOCK_Rotatable_Bonds:                   8
##########                       Formal_Charge:                  -2
##########                     HBond_Acceptors:                  10
##########                        HBond_Donors:                   1
##########                         Heavy_Atoms:                  27
##########                          Grid_Score:          -80.865044
##########                     Grid_vdw_energy:          -45.228260
##########                      Grid_es_energy:          -35.636784
##########           Internal_energy_repulsive:           15.298008

@<TRIPOS>MOLECULE
HTS1710-04005475-01
 40 41 1 0 0
SMALL
USER_CHARGES


@<TRIPOS>ATOM
      1 S           2.5461  -12.5687  -33.1812 S.O2    1  UNL1        0.0724
      2 C           3.3275  -11.2436  -32.2403 C.ar    1  UNL1        0.1097
      3 N           2.8140  -12.1891  -34.8190 N.pl3   1  UNL1       -0.2162
      4 C           3.6147  -10.0642  -30.1192 C.ar    1  UNL1       -0.0002
      5 C           4.7745   -9.2778  -32.1412 C.ar    1  UNL1       -0.0002
      6 C           5.7016   -8.2975  -32.8211 C.2     1  UNL1        0.0717
      7 C           3.2927   -9.9180  -28.6480 C.2     1  UNL1        0.0717
      8 C          -0.0873   -8.1738  -35.2948 C.2     1  UNL1        0.3392
      9 C           3.0482  -11.1132  -30.8713 C.ar    1  UNL1       -0.0262
     10 C           4.1875  -10.3299  -32.8732 C.ar    1  UNL1       -0.0262
     11 C           4.4791   -9.1541  -30.7661 C.ar    1  UNL1       -0.0439
     12 O           3.1838  -13.8664  -32.9373 O.2     1  UNL1       -0.1500
     13 O           1.1008  -12.3598  -33.0648 O.2     1  UNL1       -0.1500
     14 C           1.0061   -9.0894  -35.7902 C.ar    1  UNL1        0.0608
     15 C           2.4269  -11.0687  -35.5243 C.ar    1  UNL1        0.0488
     16 C           1.4153  -10.2155  -35.0429 C.ar    1  UNL1       -0.0253
     17 O           2.7404  -10.8533  -28.0939 O.co2   1  UNL1       -0.5446
     18 O           5.8178   -8.3805  -34.0320 O.co2   1  UNL1       -0.5446
     19 O          -0.6258   -7.3440  -36.0098 O.2     1  UNL1       -0.2450
     20 O           3.6057   -8.8730  -28.1040 O.co2   1  UNL1       -0.5446
     21 O           6.2743   -7.4821  -32.1183 O.co2   1  UNL1       -0.5446
     22 O          -0.4052   -8.3632  -33.9777 O.3     1  UNL1       -0.4614
     23 C           1.6422   -8.8210  -37.0195 C.ar    1  UNL1       -0.0477
     24 C           2.6678   -9.6559  -37.4886 C.ar    1  UNL1       -0.0592
     25 C           3.0624  -10.7755  -36.7423 C.ar    1  UNL1       -0.0393
     26 C          -0.9985   -7.2861  -33.2295 C.3     1  UNL1        0.0900
     27 C          -2.5064   -7.2589  -33.5371 C.3     1  UNL1       -0.0306
     28 H           3.3145  -12.8626  -35.3341 H       1  UNL1        0.1737
     29 H           2.4220  -11.7920  -30.4105 H       1  UNL1        0.0643
     30 H           4.3906  -10.4299  -33.8800 H       1  UNL1        0.0643
     31 H           4.9025   -8.3848  -30.2240 H       1  UNL1        0.0630
     32 H           0.9684  -10.4153  -34.1344 H       1  UNL1        0.0645
     33 H           1.3513   -8.0040  -37.5788 H       1  UNL1        0.0626
     34 H           3.1329   -9.4453  -38.3853 H       1  UNL1        0.0618
     35 H           3.8203  -11.3846  -37.0882 H       1  UNL1        0.0636
     36 H          -0.5534   -6.3567  -33.5179 H       1  UNL1        0.0695
     37 H          -0.8380   -7.4321  -32.1817 H       1  UNL1        0.0695
     38 H          -2.6538   -7.1125  -34.5867 H       1  UNL1        0.0262
     39 H          -2.9662   -6.4577  -32.9971 H       1  UNL1        0.0262
     40 H          -2.9475   -8.1878  -33.2412 H       1  UNL1        0.0262
@<TRIPOS>BOND
     1     1     2    1
     2     1     3    1
     3     4     9   ar
     4     5    10   ar
     5     5     6    1
     6     4     7    1
     7     8    14    1
     8     2     9   ar
     9     2    10   ar
    10     5    11   ar
    11     1    12    2
    12     1    13    2
    13    14    16   ar
    14     3    15    1
    15    15    16   ar
    16     7    17   ar
    17     6    18   ar
    18     8    19    2
    19     7    20   ar
    20     6    21   ar
    21     8    22    1
    22    14    23   ar
    23    24    25   ar
    24    15    25   ar
    25    22    26    1
    26    26    27    1
    27     4    11   ar
    28    23    24   ar
    29     3    28    1
    30     9    29    1
    31    10    30    1
    32    11    31    1
    33    16    32    1
    34    23    33    1
    35    24    34    1
    36    25    35    1
    37    26    36    1
    38    26    37    1
    39    27    38    1
    40    27    39    1
    41    27    40    1
@<TRIPOS>SUBSTRUCTURE
     1 UNL1        1 TEMP              0 ****  ****    0 ROOT


