##########                                Name: HTS1710-01264043-01
##########                    Molecular_Weight:             432.384
##########                DOCK_Rotatable_Bonds:                  11
##########                       Formal_Charge:                  -2
##########                     HBond_Acceptors:                  10
##########                        HBond_Donors:                   4
##########                         Heavy_Atoms:                  31
##########                          Grid_Score:          -81.001526
##########                     Grid_vdw_energy:          -45.596565
##########                      Grid_es_energy:          -35.404957
##########           Internal_energy_repulsive:           14.176275

@<TRIPOS>MOLECULE
HTS1710-01264043-01
 51 53 1 0 0
SMALL
USER_CHARGES


@<TRIPOS>ATOM
      1 C           2.0962   -8.0078  -31.5543 C.2     1  UNL1       -0.0603
      2 C           4.2401   -8.7599  -32.6332 C.2     1  UNL1       -0.0603
      3 C           3.3540   -8.8453  -31.3985 C.3     1  UNL1        0.0155
      4 C           1.7332   -7.1019  -30.5710 C.2     1  UNL1        0.1535
      5 C           5.3501   -7.9285  -32.6387 C.2     1  UNL1        0.1535
      6 C           6.2060   -7.7913  -33.8266 C.2     1  UNL1        0.2184
      7 C           0.5092   -6.2945  -30.6802 C.2     1  UNL1        0.2184
      8 O           3.8531   -9.5153  -33.7248 O.co2   1  UNL1       -0.7814
      9 O           1.3477   -8.2339  -32.6944 O.co2   1  UNL1       -0.7814
     10 C           3.0060  -10.2891  -31.0167 C.ar    1  UNL1       -0.0307
     11 C           5.7486   -8.6072  -34.9493 C.2     1  UNL1       -0.0198
     12 C          -0.2391   -6.5668  -31.9057 C.2     1  UNL1       -0.0198
     13 C           0.1939   -7.4917  -32.8318 C.2     1  UNL1       -0.0884
     14 C           4.6293   -9.4071  -34.8582 C.2     1  UNL1       -0.0884
     15 C           3.4307  -10.8159  -29.7812 C.ar    1  UNL1       -0.0157
     16 C           2.2479  -11.0953  -31.8897 C.ar    1  UNL1       -0.0157
     17 O           7.1922   -7.0751  -33.8834 O.2     1  UNL1       -0.2841
     18 O           0.1449   -5.4822  -29.8450 O.2     1  UNL1       -0.2841
     19 C           2.3525  -12.9340  -30.3013 C.ar    1  UNL1        0.0218
     20 C           1.9230  -12.4207  -31.5356 C.ar    1  UNL1        0.1238
     21 C           3.1022  -12.1402  -29.4202 C.ar    1  UNL1        0.1238
     22 O           5.7408   -7.1702  -31.5897 O.2     1  UNL1       -0.5038
     23 O           2.4401   -6.8780  -29.4400 O.2     1  UNL1       -0.5038
     24 O           1.1878  -13.2463  -32.3649 O.3     1  UNL1       -0.4950
     25 O           3.4923  -12.6962  -28.2166 O.3     1  UNL1       -0.4950
     26 C          -0.6184   -7.7421  -34.0751 C.3     1  UNL1        0.0566
     27 C           4.1911  -10.2172  -36.0498 C.3     1  UNL1        0.0566
     28 O           0.2098   -7.7368  -35.2335 O.3     1  UNL1       -0.3915
     29 O           3.8799   -9.3722  -37.1530 O.3     1  UNL1       -0.3915
     30 C           1.3058  -14.6798  -32.3459 C.3     1  UNL1        0.0788
     31 C           3.3700  -14.0987  -27.9232 C.3     1  UNL1        0.0788
     32 H           3.9280   -8.4396  -30.5917 H       1  UNL1        0.0425
     33 H           6.2780   -8.5841  -35.8349 H       1  UNL1        0.0649
     34 H          -1.1161   -6.0524  -32.0826 H       1  UNL1        0.0649
     35 H           3.9848  -10.2306  -29.1367 H       1  UNL1        0.0657
     36 H           1.9287  -10.7131  -32.7936 H       1  UNL1        0.0657
     37 H           2.1146  -13.9036  -30.0400 H       1  UNL1        0.0691
     38 H           6.2285   -6.3836  -31.7362 H       1  UNL1        0.2923
     39 H           2.1028   -7.1612  -28.6129 H       1  UNL1        0.2923
     40 H          -1.3585   -6.9754  -34.1703 H       1  UNL1        0.0596
     41 H          -1.0832   -8.7024  -33.9919 H       1  UNL1        0.0596
     42 H           3.3226  -10.7845  -35.7873 H       1  UNL1        0.0596
     43 H           4.9916  -10.8682  -36.3333 H       1  UNL1        0.0596
     44 H          -0.3350   -7.5761  -36.0198 H       1  UNL1        0.2098
     45 H           3.8298   -9.9034  -37.9631 H       1  UNL1        0.2098
     46 H           0.6420  -15.1020  -33.0711 H       1  UNL1        0.0660
     47 H           1.0509  -15.0458  -31.3733 H       1  UNL1        0.0660
     48 H           2.3124  -14.9580  -32.5791 H       1  UNL1        0.0660
     49 H           3.7354  -14.2897  -26.9358 H       1  UNL1        0.0660
     50 H           3.9420  -14.6622  -28.6304 H       1  UNL1        0.0660
     51 H           2.3417  -14.3877  -27.9850 H       1  UNL1        0.0660
@<TRIPOS>BOND
     1     2     3    1
     2     1     3    1
     3     1     4    2
     4     2     5    2
     5     5     6    1
     6     4     7    1
     7     2     8    1
     8     1     9    1
     9     3    10    1
    10    11    14    2
    11    12    13    2
    12     9    13    1
    13     8    14    1
    14    10    15   ar
    15    10    16   ar
    16     6    17    2
    17     7    18    2
    18    19    20   ar
    19    16    20   ar
    20    15    21   ar
    21     5    22    1
    22     4    23    1
    23    20    24    1
    24    21    25    1
    25    13    26    1
    26    14    27    1
    27    26    28    1
    28    27    29    1
    29    24    30    1
    30    25    31    1
    31     7    12    1
    32    19    21   ar
    33     6    11    1
    34     3    32    1
    35    11    33    1
    36    12    34    1
    37    15    35    1
    38    16    36    1
    39    19    37    1
    40    22    38    1
    41    23    39    1
    42    26    40    1
    43    26    41    1
    44    27    42    1
    45    27    43    1
    46    28    44    1
    47    29    45    1
    48    30    46    1
    49    30    47    1
    50    30    48    1
    51    31    49    1
    52    31    50    1
    53    31    51    1
@<TRIPOS>SUBSTRUCTURE
     1 UNL1        1 TEMP              0 ****  ****    0 ROOT


