##########                                Name: HTS1710-05120949-01
##########                    Molecular_Weight:             302.307
##########                DOCK_Rotatable_Bonds:                   7
##########                       Formal_Charge:                  -2
##########                     HBond_Acceptors:                   6
##########                        HBond_Donors:                   1
##########                         Heavy_Atoms:                  22
##########                          Grid_Score:          -76.469635
##########                     Grid_vdw_energy:          -40.123272
##########                      Grid_es_energy:          -36.346359
##########           Internal_energy_repulsive:           11.473108

@<TRIPOS>MOLECULE
HTS1710-05120949-01
 38 39 1 0 0
SMALL
USER_CHARGES


@<TRIPOS>ATOM
      1 C           6.0097  -16.6723  -27.4911 C.3     1  UNL1       -0.0389
      2 C           5.3212  -15.2943  -27.6590 C.3     1  UNL1        0.0535
      3 C           6.1794  -14.1585  -27.0649 C.3     1  UNL1       -0.0389
      4 O           4.0582  -15.2914  -26.9510 O.3     1  UNL1       -0.3725
      5 C           3.2851  -14.0712  -26.9739 C.3     1  UNL1        0.0731
      6 C           2.9087  -13.7130  -28.4066 C.ar    1  UNL1       -0.0202
      7 C           1.8708  -14.4023  -29.0556 C.ar    1  UNL1       -0.0563
      8 C           1.5322  -14.0782  -30.3767 C.ar    1  UNL1       -0.0597
      9 C           2.2166  -13.0533  -31.0477 C.ar    1  UNL1       -0.0405
     10 C           3.2369  -12.3302  -30.4036 C.ar    1  UNL1        0.0340
     11 N           3.8694  -11.3248  -31.1350 N.am    1  UNL1       -0.2824
     12 C           4.5249  -10.2062  -30.6221 C.2     1  UNL1        0.2344
     13 O           4.5680   -9.9968  -29.4214 O.2     1  UNL1       -0.2711
     14 C           5.1246   -9.2698  -31.5947 C.2     1  UNL1       -0.0298
     15 C           5.0840   -9.4173  -32.9592 C.2     1  UNL1       -0.0558
     16 C           5.7867   -8.2979  -33.4725 C.2     1  UNL1       -0.0170
     17 C           6.1783   -7.5909  -32.3638 C.2     1  UNL1       -0.1247
     18 O           5.7947   -8.1484  -31.1707 O.co2   1  UNL1       -0.7816
     19 C           6.0446   -7.9617  -34.8864 C.2     1  UNL1        0.0706
     20 O           6.5871   -6.8959  -35.1223 O.co2   1  UNL1       -0.5447
     21 O           5.6988   -8.7717  -35.7286 O.co2   1  UNL1       -0.5447
     22 C           3.5963  -12.6880  -29.0833 C.ar    1  UNL1       -0.0351
     23 H           6.9426  -16.6711  -28.0153 H       1  UNL1        0.0254
     24 H           5.3774  -17.4378  -27.8899 H       1  UNL1        0.0254
     25 H           6.1846  -16.8594  -26.4522 H       1  UNL1        0.0254
     26 H           5.1842  -15.1331  -28.7078 H       1  UNL1        0.0590
     27 H           6.3137  -14.3240  -26.0164 H       1  UNL1        0.0254
     28 H           5.6861  -13.2214  -27.2179 H       1  UNL1        0.0254
     29 H           7.1337  -14.1423  -27.5485 H       1  UNL1        0.0254
     30 H           3.8653  -13.2772  -26.5520 H       1  UNL1        0.0610
     31 H           2.3912  -14.2137  -26.4034 H       1  UNL1        0.0610
     32 H           1.3574  -15.1475  -28.5595 H       1  UNL1        0.0621
     33 H           0.7784  -14.5943  -30.8567 H       1  UNL1        0.0618
     34 H           1.9688  -12.8277  -32.0238 H       1  UNL1        0.0636
     35 H           3.8511  -11.4144  -32.1152 H       1  UNL1        0.1551
     36 H           4.6383  -10.1783  -33.4952 H       1  UNL1        0.0620
     37 H           6.7169   -6.7126  -32.4227 H       1  UNL1        0.0461
     38 H           4.3695  -12.1932  -28.6119 H       1  UNL1        0.0639
@<TRIPOS>BOND
     1     1     2    1
     2     2     3    1
     3     2     4    1
     4     4     5    1
     5     5     6    1
     6     6     7   ar
     7     7     8   ar
     8     8     9   ar
     9     9    10   ar
    10    10    11    1
    11    11    12   am
    12    12    13    2
    13    12    14    1
    14    14    15    2
    15    15    16    1
    16    16    17    2
    17    17    18    1
    18    14    18    1
    19    16    19    1
    20    19    20   ar
    21    19    21   ar
    22    10    22   ar
    23     6    22   ar
    24     1    23    1
    25     1    24    1
    26     1    25    1
    27     2    26    1
    28     3    27    1
    29     3    28    1
    30     3    29    1
    31     5    30    1
    32     5    31    1
    33     7    32    1
    34     8    33    1
    35     9    34    1
    36    11    35    1
    37    15    36    1
    38    17    37    1
    39    22    38    1
@<TRIPOS>SUBSTRUCTURE
     1 UNL1        1 TEMP              0 ****  ****    0 ROOT


