##########                                Name: HTS1710-02165697-01
##########                    Molecular_Weight:             422.528
##########                DOCK_Rotatable_Bonds:                   9
##########                       Formal_Charge:                  -2
##########                     HBond_Acceptors:                  12
##########                        HBond_Donors:                   0
##########                         Heavy_Atoms:                  25
##########                          Grid_Score:          -87.047340
##########                     Grid_vdw_energy:          -47.474129
##########                      Grid_es_energy:          -39.573212
##########           Internal_energy_repulsive:            9.792293

@<TRIPOS>MOLECULE
HTS1710-02165697-01
 39 40 1 0 0
SMALL
USER_CHARGES


@<TRIPOS>ATOM
      1 N           2.6770  -11.7962  -35.2462 N.am    1  UNL1       -0.2495
      2 C           1.4107  -11.3899  -34.8355 C.2     1  UNL1        0.2842
      3 C           3.3108  -12.6900  -34.3977 C.2     1  UNL1        0.0960
      4 C           2.5176  -13.0266  -33.2575 C.2     1  UNL1        0.0457
      5 S           0.9755  -12.1993  -33.2754 S.3     1  UNL1       -0.0287
      6 S           3.6717   -9.0146  -29.8402 S.3     1  UNL1       -0.0805
      7 C           2.6173  -14.3470  -29.8039 C.2     1  UNL1        0.0639
      8 N           3.9368  -14.1584  -29.3820 N.pl3   1  UNL1       -0.3240
      9 C           2.9122  -13.8810  -32.2561 C.2     1  UNL1       -0.0433
     10 C           2.1381  -14.2395  -31.0651 C.2     1  UNL1       -0.0330
     11 C           3.3051  -11.3006  -36.4928 C.3     1  UNL1        0.0604
     12 S           1.6251  -14.7789  -28.4445 S.3     1  UNL1       -0.1087
     13 C           3.6865   -9.8123  -36.4012 C.2     1  UNL1        0.0595
     14 S           4.8536  -13.2984  -34.6761 S.2     1  UNL1       -0.0338
     15 O           5.0442   -8.8004  -30.2657 O.co2   1  UNL1       -0.7245
     16 O           0.6939  -10.6073  -35.4357 O.2     1  UNL1       -0.2620
     17 O           2.6686   -8.4038  -30.6968 O.2     1  UNL1       -0.1853
     18 O           3.4453   -8.8426  -28.4156 O.2     1  UNL1       -0.1853
     19 O           3.9541   -9.3920  -35.2898 O.co2   1  UNL1       -0.5482
     20 O           3.6974   -9.1506  -37.4255 O.co2   1  UNL1       -0.5482
     21 C           3.4347  -10.7940  -30.1036 C.3     1  UNL1        0.0561
     22 C           4.2395  -11.6595  -29.1006 C.3     1  UNL1       -0.0187
     23 C           4.7756  -12.9777  -29.7187 C.3     1  UNL1        0.0141
     24 C           2.9967  -14.6814  -27.2305 C.3     1  UNL1        0.0152
     25 C           4.2699  -14.7719  -28.0851 C.3     1  UNL1        0.0220
     26 H           3.8449  -14.3122  -32.3526 H       1  UNL1        0.0630
     27 H           1.1325  -14.4277  -31.2006 H       1  UNL1        0.0642
     28 H           2.6159  -11.4304  -37.3009 H       1  UNL1        0.0530
     29 H           4.2031  -11.8600  -36.6525 H       1  UNL1        0.0530
     30 H           3.7503  -11.0381  -31.0964 H       1  UNL1        0.0490
     31 H           2.3969  -11.0075  -29.9547 H       1  UNL1        0.0490
     32 H           3.6024  -11.9054  -28.2769 H       1  UNL1        0.0296
     33 H           5.0887  -11.0842  -28.7962 H       1  UNL1        0.0296
     34 H           5.7667  -13.1477  -29.3531 H       1  UNL1        0.0464
     35 H           4.7572  -12.8639  -30.7824 H       1  UNL1        0.0464
     36 H           2.9473  -15.4949  -26.5373 H       1  UNL1        0.0395
     37 H           2.9608  -13.7863  -26.6454 H       1  UNL1        0.0395
     38 H           5.0701  -14.2381  -27.6165 H       1  UNL1        0.0472
     39 H           4.5896  -15.7861  -28.2034 H       1  UNL1        0.0472
@<TRIPOS>BOND
     1     1     2   am
     2     1     3    1
     3     3     4    1
     4     2     5    1
     5     6    21    1
     6     7    10    2
     7     7     8    1
     8     4     9    2
     9     9    10    1
    10     1    11    1
    11     7    12    1
    12    11    13    1
    13     3    14    2
    14     6    15    1
    15     2    16    2
    16     6    17    2
    17     6    18    2
    18    13    19   ar
    19    13    20   ar
    20    21    22    1
    21    22    23    1
    22     8    23    1
    23    12    24    1
    24     8    25    1
    25     4     5    1
    26    24    25    1
    27     9    26    1
    28    10    27    1
    29    11    28    1
    30    11    29    1
    31    21    30    1
    32    21    31    1
    33    22    32    1
    34    22    33    1
    35    23    34    1
    36    23    35    1
    37    24    36    1
    38    24    37    1
    39    25    38    1
    40    25    39    1
@<TRIPOS>SUBSTRUCTURE
     1 UNL1        1 TEMP              0 ****  ****    0 ROOT


