##########                                Name: HTS1710-01240906-01
##########                    Molecular_Weight:             361.351
##########                DOCK_Rotatable_Bonds:                   8
##########                       Formal_Charge:                  -2
##########                     HBond_Acceptors:                   8
##########                        HBond_Donors:                   0
##########                         Heavy_Atoms:                  26
##########                          Grid_Score:          -77.322128
##########                     Grid_vdw_energy:          -44.384003
##########                      Grid_es_energy:          -32.938129
##########           Internal_energy_repulsive:            8.866300

@<TRIPOS>MOLECULE
HTS1710-01240906-01
 45 46 1 0 0
SMALL
USER_CHARGES


@<TRIPOS>ATOM
      1 C           3.4538   -8.3371  -31.5109 C.2     1  UNL1        0.0167
      2 N           4.7925   -9.5488  -33.0103 N.am    1  UNL1       -0.2873
      3 C           4.5887   -7.6586  -31.7713 C.2     1  UNL1       -0.0358
      4 C           5.4564   -8.3704  -32.7179 C.2     1  UNL1        0.2329
      5 C           3.5143   -9.6706  -32.2652 C.3     1  UNL1        0.0797
      6 C           3.4852  -10.8858  -31.3420 C.ar    1  UNL1       -0.0188
      7 C           2.3920   -8.0582  -30.4974 C.2     1  UNL1        0.1579
      8 C           2.8314  -12.0664  -31.7361 C.ar    1  UNL1       -0.0110
      9 C           2.8029  -13.1887  -30.8793 C.ar    1  UNL1        0.1618
     10 O           6.5393   -8.0145  -33.1493 O.2     1  UNL1       -0.2712
     11 C           3.2512   -9.4676  -36.9919 C.2     1  UNL1        0.0418
     12 C           4.1043  -10.8246  -30.0818 C.ar    1  UNL1       -0.0528
     13 C           3.4255  -13.1206  -29.6169 C.ar    1  UNL1        0.1615
     14 O           4.9675   -6.4771  -31.2328 O.co2   1  UNL1       -0.8701
     15 O           2.5598   -8.2837  -29.3117 O.2     1  UNL1       -0.2926
     16 O           4.0979   -9.0235  -37.7464 O.co2   1  UNL1       -0.5498
     17 C           4.0764  -11.9320  -29.2219 C.ar    1  UNL1       -0.0160
     18 C           5.2559  -10.6186  -33.9141 C.3     1  UNL1        0.0162
     19 O           2.0735   -9.1537  -36.9884 O.co2   1  UNL1       -0.5498
     20 O           2.1732  -14.3663  -31.2452 O.3     1  UNL1       -0.4914
     21 O           3.3753  -14.2325  -28.7937 O.3     1  UNL1       -0.4915
     22 C           5.1086  -10.2452  -35.4102 C.3     1  UNL1       -0.0320
     23 C           3.7011  -10.5374  -35.9879 C.3     1  UNL1       -0.0118
     24 C           1.1383   -7.3375  -30.9997 C.3     1  UNL1       -0.0017
     25 C           0.9209  -14.4001  -31.9535 C.3     1  UNL1        0.0790
     26 C           4.5464  -14.8418  -28.2236 C.3     1  UNL1        0.0790
     27 H           2.6651   -9.8353  -32.8949 H       1  UNL1        0.0602
     28 H           2.3691  -12.1132  -32.6576 H       1  UNL1        0.0659
     29 H           4.5828   -9.9589  -29.7873 H       1  UNL1        0.0622
     30 H           4.5328  -11.8778  -28.2979 H       1  UNL1        0.0655
     31 H           4.6807  -11.5004  -33.7234 H       1  UNL1        0.0465
     32 H           6.2969  -10.7748  -33.7217 H       1  UNL1        0.0465
     33 H           5.8271  -10.8058  -35.9709 H       1  UNL1        0.0284
     34 H           5.2656   -9.1896  -35.4865 H       1  UNL1        0.0284
     35 H           3.7219  -11.4862  -36.4820 H       1  UNL1        0.0325
     36 H           3.0062  -10.5363  -35.1743 H       1  UNL1        0.0325
     37 H           1.1855   -7.2396  -32.0642 H       1  UNL1        0.0309
     38 H           1.0827   -6.3662  -30.5543 H       1  UNL1        0.0309
     39 H           0.2703   -7.9030  -30.7317 H       1  UNL1        0.0309
     40 H           0.6348  -15.4169  -32.1238 H       1  UNL1        0.0660
     41 H           1.0284  -13.8978  -32.8922 H       1  UNL1        0.0660
     42 H           0.1685  -13.9106  -31.3711 H       1  UNL1        0.0660
     43 H           4.2571  -15.6815  -27.6269 H       1  UNL1        0.0660
     44 H           5.0574  -14.1284  -27.6113 H       1  UNL1        0.0660
     45 H           5.1962  -15.1688  -29.0083 H       1  UNL1        0.0660
@<TRIPOS>BOND
     1     2     5    1
     2     1     3    2
     3     3     4    1
     4     1     5    1
     5     5     6    1
     6     1     7    1
     7     6     8   ar
     8     8     9   ar
     9     4    10    2
    10    11    23    1
    11     6    12   ar
    12    13    17   ar
    13     3    14    1
    14     7    15    2
    15    11    16   ar
    16    12    17   ar
    17     2    18    1
    18    11    19   ar
    19     9    20    1
    20    13    21    1
    21    18    22    1
    22    22    23    1
    23     7    24    1
    24    20    25    1
    25    21    26    1
    26     2     4   am
    27     9    13   ar
    28     5    27    1
    29     8    28    1
    30    12    29    1
    31    17    30    1
    32    18    31    1
    33    18    32    1
    34    22    33    1
    35    22    34    1
    36    23    35    1
    37    23    36    1
    38    24    37    1
    39    24    38    1
    40    24    39    1
    41    25    40    1
    42    25    41    1
    43    25    42    1
    44    26    43    1
    45    26    44    1
    46    26    45    1
@<TRIPOS>SUBSTRUCTURE
     1 UNL1        1 TEMP              0 ****  ****    0 ROOT


