##########                                Name: HTS1710-04403662-01
##########                    Molecular_Weight:             395.414
##########                DOCK_Rotatable_Bonds:                   9
##########                       Formal_Charge:                  -2
##########                     HBond_Acceptors:                  10
##########                        HBond_Donors:                   1
##########                         Heavy_Atoms:                  26
##########                          Grid_Score:          -81.684914
##########                     Grid_vdw_energy:          -47.602940
##########                      Grid_es_energy:          -34.081974
##########           Internal_energy_repulsive:            9.424611

@<TRIPOS>MOLECULE
HTS1710-04403662-01
 39 40 1 0 0
SMALL
USER_CHARGES


@<TRIPOS>ATOM
      1 N           2.8253  -12.8504  -29.6517 N.am    1  UNL1       -0.2466
      2 C           1.9455  -13.9159  -29.5041 C.2     1  UNL1        0.1211
      3 C           2.9804  -12.4204  -30.9731 C.2     1  UNL1        0.2589
      4 C           2.1050  -13.2171  -31.8678 C.2     1  UNL1        0.0772
      5 S           1.2567  -14.5075  -31.0410 S.3     1  UNL1       -0.0610
      6 C           3.4957  -12.1945  -28.4942 C.3     1  UNL1        0.0718
      7 C           1.9661  -13.0700  -33.2319 C.2     1  UNL1       -0.0356
      8 C           3.3060  -10.6599  -28.5607 C.2     1  UNL1        0.0626
      9 S           1.4930  -14.6096  -28.0456 S.2     1  UNL1       -0.0272
     10 C           4.9825  -12.6433  -28.3452 C.3     1  UNL1       -0.0235
     11 C           2.2203  -10.0416  -35.5218 C.ar    1  UNL1        0.1618
     12 O           3.7730  -11.5652  -31.3240 O.2     1  UNL1       -0.2690
     13 C           6.5632  -14.4732  -27.3459 C.2     1  UNL1        0.0418
     14 C           2.4820  -12.1520  -34.2921 C.ar    1  UNL1       -0.0201
     15 C           3.3933  -10.3194  -36.2457 C.ar    1  UNL1        0.1585
     16 C           1.7783  -10.9554  -34.5390 C.ar    1  UNL1       -0.0091
     17 O           2.1794  -10.2081  -28.4398 O.co2   1  UNL1       -0.5479
     18 O           7.4758  -13.6868  -27.5355 O.co2   1  UNL1       -0.5498
     19 C           4.1222  -11.4869  -35.9768 C.ar    1  UNL1       -0.0160
     20 C           5.1653  -14.1188  -27.8881 C.3     1  UNL1       -0.0112
     21 O           4.3104   -9.9937  -28.7446 O.co2   1  UNL1       -0.5479
     22 C           3.6766  -12.3914  -35.0018 C.ar    1  UNL1       -0.0509
     23 O           6.6621  -15.5298  -26.7466 O.co2   1  UNL1       -0.5498
     24 O           1.5332   -8.8711  -35.7947 O.3     1  UNL1       -0.4914
     25 O           3.8400   -9.4463  -37.1970 O.3     1  UNL1       -0.5033
     26 C           0.2893   -8.5229  -35.1612 C.3     1  UNL1        0.0790
     27 H           3.0222  -12.5226  -27.5925 H       1  UNL1        0.0566
     28 H           1.3368  -13.7864  -33.6266 H       1  UNL1        0.0636
     29 H           5.4530  -12.0085  -27.6236 H       1  UNL1        0.0290
     30 H           5.4232  -12.5678  -29.3173 H       1  UNL1        0.0290
     31 H           0.9279  -10.7440  -33.9939 H       1  UNL1        0.0661
     32 H           4.9909  -11.6815  -36.4989 H       1  UNL1        0.0655
     33 H           4.4517  -14.3160  -27.1157 H       1  UNL1        0.0325
     34 H           5.0275  -14.7183  -28.7636 H       1  UNL1        0.0325
     35 H           4.2285  -13.2402  -34.8020 H       1  UNL1        0.0625
     36 H           4.7596   -9.3053  -37.3088 H       1  UNL1        0.2923
     37 H          -0.0474   -7.5773  -35.5319 H       1  UNL1        0.0660
     38 H           0.4334   -8.4602  -34.1028 H       1  UNL1        0.0660
     39 H          -0.4433   -9.2722  -35.3777 H       1  UNL1        0.0660
@<TRIPOS>BOND
     1     1     2    1
     2     1     3   am
     3     3     4    1
     4     2     5    1
     5     1     6    1
     6     4     7    2
     7     6     8    1
     8     2     9    2
     9     6    10    1
    10    11    16   ar
    11     3    12    2
    12    13    20    1
    13     7    14    1
    14    15    19   ar
    15    14    16   ar
    16     8    17   ar
    17    13    18   ar
    18    19    22   ar
    19    10    20    1
    20     8    21   ar
    21    14    22   ar
    22    13    23   ar
    23    11    24    1
    24    15    25    1
    25    24    26    1
    26     4     5    1
    27    11    15   ar
    28     6    27    1
    29     7    28    1
    30    10    29    1
    31    10    30    1
    32    16    31    1
    33    19    32    1
    34    20    33    1
    35    20    34    1
    36    22    35    1
    37    25    36    1
    38    26    37    1
    39    26    38    1
    40    26    39    1
@<TRIPOS>SUBSTRUCTURE
     1 UNL1        1 TEMP              0 ****  ****    0 ROOT


