HTS1710-01152170-01
 OpenBabel03232612353D

 39 40  0  0  1  0  0  0  0  0999 V2000
    2.7378  -11.1335  -31.2042 N   0  0  0  0  0  0  0  0  0  0  0  0
    2.3559  -12.4703  -31.1577 C   0  0  0  0  0  0  0  0  0  0  0  0
    2.3612  -10.4739  -32.3738 C   0  0  0  0  0  0  0  0  0  0  0  0
    1.5765  -11.3889  -33.2392 C   0  0  0  0  0  0  0  0  0  0  0  0
    1.4999  -13.0266  -32.6238 S   0  0  0  0  0  0  0  0  0  0  0  0
    3.5453  -10.4641  -30.1479 C   0  0  2  0  0  0  0  0  0  0  0  0
    0.9870  -11.0725  -34.4447 C   0  0  0  0  0  0  0  0  0  0  0  0
    2.6764   -9.5572  -29.2259 C   0  0  0  0  0  0  0  0  0  0  0  0
    0.8354   -9.8413  -35.2834 C   0  0  0  0  0  0  0  0  0  0  0  0
    4.7671   -9.7480  -30.7729 C   0  0  0  0  0  0  0  0  0  0  0  0
    2.6537  -13.5326  -29.8951 S   0  0  0  0  0  0  0  0  0  0  0  0
    2.1405   -8.3177  -29.9570 C   0  0  0  0  0  0  0  0  0  0  0  0
    2.6805   -9.3296  -32.6437 O   0  0  0  0  0  0  0  0  0  0  0  0
    1.5444   -9.7246  -36.5041 C   0  0  0  0  0  0  0  0  0  0  0  0
   -0.0703   -8.8210  -34.9274 C   0  0  0  0  0  0  0  0  0  0  0  0
    5.2740  -10.2716  -31.7510 O   0  5  0  0  0  0  0  0  0  0  0  0
    2.8336   -7.3159  -29.9375 O   0  5  0  0  0  0  0  0  0  0  0  0
    1.3817   -8.5745  -37.3073 C   0  0  0  0  0  0  0  0  0  0  0  0
   -0.2366   -7.6799  -35.7283 C   0  0  0  0  0  0  0  0  0  0  0  0
    5.1515   -8.7088  -30.2619 O   0  0  0  0  0  0  0  0  0  0  0  0
    1.0675   -8.4255  -30.5269 O   0  0  0  0  0  0  0  0  0  0  0  0
    0.5036   -7.5535  -36.9188 C   0  0  0  0  0  0  0  0  0  0  0  0
    2.4135  -10.7374  -36.8736 O   0  0  0  0  0  0  0  0  0  0  0  0
   -1.1473   -6.7246  -35.3217 O   0  0  0  0  0  0  0  0  0  0  0  0
    3.6827  -10.9632  -36.2371 C   0  0  0  0  0  0  0  0  0  0  0  0
   -1.2520   -6.2702  -33.9609 C   0  0  0  0  0  0  0  0  0  0  0  0
    3.9366  -11.2129  -29.4914 H   0  0  0  0  0  0  0  0  0  0  0  0
    0.5355  -11.8924  -34.8793 H   0  0  0  0  0  0  0  0  0  0  0  0
    3.2741   -9.2360  -28.3986 H   0  0  0  0  0  0  0  0  0  0  0  0
    1.8348  -10.1334  -28.9026 H   0  0  0  0  0  0  0  0  0  0  0  0
   -0.6222   -8.9148  -34.0604 H   0  0  0  0  0  0  0  0  0  0  0  0
    1.9135   -8.4851  -38.1872 H   0  0  0  0  0  0  0  0  0  0  0  0
    0.4000   -6.7104  -37.5047 H   0  0  0  0  0  0  0  0  0  0  0  0
    4.1684  -11.7987  -36.6964 H   0  0  0  0  0  0  0  0  0  0  0  0
    3.5293  -11.1669  -35.1979 H   0  0  0  0  0  0  0  0  0  0  0  0
    4.2949  -10.0922  -36.3433 H   0  0  0  0  0  0  0  0  0  0  0  0
   -2.0237   -5.5324  -33.8896 H   0  0  0  0  0  0  0  0  0  0  0  0
   -0.3202   -5.8423  -33.6550 H   0  0  0  0  0  0  0  0  0  0  0  0
   -1.4900   -7.0978  -33.3257 H   0  0  0  0  0  0  0  0  0  0  0  0
  1  2  1  0  0  0  0
  1  3  1  0  0  0  0
  1  6  1  0  0  0  0
  2  5  1  0  0  0  0
  2 11  2  0  0  0  0
  3  4  1  0  0  0  0
  3 13  2  0  0  0  0
  4  7  2  0  0  0  0
  4  5  1  0  0  0  0
  6  8  1  0  0  0  0
  6 10  1  0  0  0  0
  6 27  1  1  0  0  0
  7  9  1  0  0  0  0
  7 28  1  0  0  0  0
  8 12  1  0  0  0  0
  8 29  1  0  0  0  0
  8 30  1  0  0  0  0
  9 14  2  0  0  0  0
  9 15  1  0  0  0  0
 10 16  1  0  0  0  0
 10 20  2  0  0  0  0
 12 17  1  0  0  0  0
 12 21  2  0  0  0  0
 14 18  1  0  0  0  0
 14 23  1  0  0  0  0
 15 19  2  0  0  0  0
 15 31  1  0  0  0  0
 18 22  2  0  0  0  0
 18 32  1  0  0  0  0
 19 22  1  0  0  0  0
 19 24  1  0  0  0  0
 22 33  1  0  0  0  0
 23 25  1  0  0  0  0
 24 26  1  0  0  0  0
 25 34  1  0  0  0  0
 25 35  1  0  0  0  0
 25 36  1  0  0  0  0
 26 37  1  0  0  0  0
 26 38  1  0  0  0  0
 26 39  1  0  0  0  0
M  CHG  2  16  -1  17  -1
M  END
$$$$
