##########                                Name: HTS1710-00480281-01
##########                    Molecular_Weight:             380.357
##########                DOCK_Rotatable_Bonds:                   3
##########                       Formal_Charge:                  -3
##########                     HBond_Acceptors:                  13
##########                        HBond_Donors:                   2
##########                         Heavy_Atoms:                  23
##########                          Grid_Score:          -88.000397
##########                     Grid_vdw_energy:          -34.775349
##########                      Grid_es_energy:          -53.225044
##########           Internal_energy_repulsive:           17.820837

@<TRIPOS>MOLECULE
HTS1710-00480281-01
 29 30 1 0 0
SMALL
USER_CHARGES


@<TRIPOS>ATOM
      1 C           1.8109   -9.0872  -33.8155 C.ar    1  UNL1        0.0079
      2 C           1.3054   -8.9076  -35.1350 C.ar    1  UNL1        0.0861
      3 C           1.0707   -8.5930  -32.7163 C.ar    1  UNL1       -0.0124
      4 C           3.0391   -9.7370  -33.5554 C.ar    1  UNL1       -0.0297
      5 C           0.0752   -8.2380  -35.3143 C.ar    1  UNL1       -0.0133
      6 S           2.2038   -9.4949  -36.6087 S.3     1  UNL1       -0.0506
      7 C           1.5526   -8.7406  -31.4027 C.ar    1  UNL1       -0.0282
      8 C          -0.1517   -7.9338  -32.9195 C.ar    1  UNL1       -0.0300
      9 C           3.5233   -9.8823  -32.2435 C.ar    1  UNL1        0.0494
     10 C          -0.6564   -7.7583  -34.2158 C.ar    1  UNL1        0.0790
     11 O           1.6345   -8.7321  -37.7240 O.2     1  UNL1       -0.1803
     12 O           1.8977  -10.9288  -36.6242 O.2     1  UNL1       -0.1803
     13 O           3.5961   -9.1667  -36.2854 O.co2   1  UNL1       -0.7201
     14 C           2.7814   -9.3795  -31.1511 C.ar    1  UNL1        0.0978
     15 N           4.7303  -10.5170  -32.0583 N.pl3   1  UNL1       -0.3565
     16 S          -2.2109   -6.8711  -34.4718 S.3     1  UNL1       -0.0511
     17 S           3.3968   -9.5317  -29.4451 S.3     1  UNL1       -0.0494
     18 O          -2.0944   -6.3578  -35.8406 O.2     1  UNL1       -0.1803
     19 O          -2.2072   -5.8545  -33.4148 O.2     1  UNL1       -0.1803
     20 O          -3.2012   -7.9376  -34.2959 O.co2   1  UNL1       -0.7202
     21 O           2.9872   -8.2575  -28.8456 O.co2   1  UNL1       -0.7201
     22 O           4.8432   -9.6792  -29.6323 O.2     1  UNL1       -0.1802
     23 O           2.7146  -10.7146  -28.9119 O.2     1  UNL1       -0.1802
     24 H           3.5906  -10.1117  -34.3431 H       1  UNL1        0.0643
     25 H          -0.2923   -8.0987  -36.2685 H       1  UNL1        0.0655
     26 H           0.9977   -8.3755  -30.6129 H       1  UNL1        0.0643
     27 H          -0.6822   -7.5762  -32.1098 H       1  UNL1        0.0642
     28 H           5.2304  -10.8596  -32.8341 H       1  UNL1        0.1424
     29 H           5.0937  -10.6285  -31.1502 H       1  UNL1        0.1424
@<TRIPOS>BOND
     1     1     2   ar
     2     1     3   ar
     3     1     4   ar
     4     2     5   ar
     5     2     6    1
     6     3     7   ar
     7     3     8   ar
     8     4     9   ar
     9     5    10   ar
    10     6    11    2
    11     6    12    2
    12     6    13    1
    13     7    14   ar
    14     9    15    1
    15    10    16    1
    16    14    17    1
    17    16    18    2
    18    16    19    2
    19    16    20    1
    20    17    21    1
    21    17    22    2
    22    17    23    2
    23     8    10   ar
    24     9    14   ar
    25     4    24    1
    26     5    25    1
    27     7    26    1
    28     8    27    1
    29    15    28    1
    30    15    29    1
@<TRIPOS>SUBSTRUCTURE
     1 UNL1        1 TEMP              0 ****  ****    0 ROOT


