HTS1710-01839375-01
 OpenBabel03232612363D

 47 49  0  0  1  0  0  0  0  0999 V2000
    3.9848  -11.1358  -31.8256 N   0  0  0  0  0  0  0  0  0  0  0  0
    4.2946  -10.1708  -32.7679 C   0  0  0  0  0  0  0  0  0  0  0  0
    3.9715  -12.2426  -32.7875 C   0  0  2  0  0  0  0  0  0  0  0  0
    4.3763  -11.2202  -33.9095 C   0  0  1  0  0  0  0  0  0  0  0  0
    0.0141   -7.3106  -36.4847 C   0  0  0  0  0  0  0  0  0  0  0  0
    3.6525  -11.3328  -30.4226 C   0  0  0  0  0  0  0  0  0  0  0  0
   -0.7431   -6.1354  -36.8625 N   0  0  0  0  0  0  0  0  0  0  0  0
    1.3902   -9.0175  -36.5340 N   0  0  0  0  0  0  0  0  0  0  0  0
    0.7921   -9.1012  -35.3049 N   0  0  0  0  0  0  0  0  0  0  0  0
   -0.0323   -8.0703  -35.2713 C   0  0  0  0  0  0  0  0  0  0  0  0
    0.9440   -7.9330  -37.2702 C   0  0  0  0  0  0  0  0  0  0  0  0
    2.2538  -12.8881  -32.6681 S   0  0  0  0  0  0  0  0  0  0  0  0
    2.9950  -12.4855  -30.0474 C   0  0  0  0  0  0  0  0  0  0  0  0
    3.3173  -11.0192  -34.9044 N   0  0  0  0  0  0  0  0  0  0  0  0
    2.3308  -10.0519  -36.9837 C   0  0  0  0  0  0  0  0  0  0  0  0
    4.0657  -10.2362  -29.4475 C   0  0  0  0  0  0  0  0  0  0  0  0
    3.4931  -10.1960  -36.0048 C   0  0  0  0  0  0  0  0  0  0  0  0
    2.5919  -13.6049  -31.0149 C   0  0  0  0  0  0  0  0  0  0  0  0
    4.3907   -8.9669  -32.6064 O   0  0  0  0  0  0  0  0  0  0  0  0
   -0.5380   -5.6728  -37.9805 O   0  5  0  0  0  0  0  0  0  0  0  0
   -1.5631   -5.6779  -36.0741 O   0  0  0  0  0  0  0  0  0  0  0  0
    2.6179  -12.8691  -28.6170 C   0  0  0  0  0  0  0  0  0  0  0  0
    4.8423  -13.7185  -27.9137 C   0  0  0  0  0  0  0  0  0  0  0  0
    3.3419   -9.9624  -28.5083 O   0  5  0  0  0  0  0  0  0  0  0  0
    4.5628   -9.6396  -36.1915 O   0  0  0  0  0  0  0  0  0  0  0  0
    3.8122  -12.8165  -27.8058 O   0  0  0  0  0  0  0  0  0  0  0  0
    5.9811  -13.3761  -28.1797 O   0  0  0  0  0  0  0  0  0  0  0  0
    5.1297   -9.6780  -29.6480 O   0  0  0  0  0  0  0  0  0  0  0  0
   -0.9382   -7.7339  -34.1111 C   0  0  0  0  0  0  0  0  0  0  0  0
    4.4650  -15.1883  -27.6634 C   0  0  0  0  0  0  0  0  0  0  0  0
    4.5437  -13.1468  -32.7931 H   0  0  0  0  0  0  0  0  0  0  0  0
    5.2269  -11.3538  -34.5448 H   0  0  0  0  0  0  0  0  0  0  0  0
    0.2352   -6.0623  -36.9454 H   0  0  0  0  0  0  0  0  0  0  0  0
    1.2498   -7.6528  -38.2152 H   0  0  0  0  0  0  0  0  0  0  0  0
    2.4566  -11.4826  -34.7867 H   0  0  0  0  0  0  0  0  0  0  0  0
    2.7145   -9.7819  -37.9453 H   0  0  0  0  0  0  0  0  0  0  0  0
    1.8113  -10.9859  -37.0365 H   0  0  0  0  0  0  0  0  0  0  0  0
    3.3882  -14.3158  -31.0900 H   0  0  0  0  0  0  0  0  0  0  0  0
    1.7124  -14.0931  -30.6502 H   0  0  0  0  0  0  0  0  0  0  0  0
    2.2134  -13.8596  -28.6023 H   0  0  0  0  0  0  0  0  0  0  0  0
    1.8816  -12.1932  -28.2350 H   0  0  0  0  0  0  0  0  0  0  0  0
   -1.4997   -6.8525  -34.3410 H   0  0  0  0  0  0  0  0  0  0  0  0
   -0.3476   -7.5622  -33.2355 H   0  0  0  0  0  0  0  0  0  0  0  0
   -1.6092   -8.5485  -33.9347 H   0  0  0  0  0  0  0  0  0  0  0  0
    3.4191  -15.2564  -27.4485 H   0  0  0  0  0  0  0  0  0  0  0  0
    5.0249  -15.5637  -26.8325 H   0  0  0  0  0  0  0  0  0  0  0  0
    4.6884  -15.7673  -28.5350 H   0  0  0  0  0  0  0  0  0  0  0  0
  1  2  1  0  0  0  0
  1  3  1  0  0  0  0
  1  6  1  0  0  0  0
  2  4  1  0  0  0  0
  2 19  2  0  0  0  0
  3  4  1  0  0  0  0
  3 12  1  0  0  0  0
  3 31  1  1  0  0  0
  4 14  1  0  0  0  0
  4 32  1  6  0  0  0
  5  7  1  0  0  0  0
  5 10  1  0  0  0  0
  5 11  2  0  0  0  0
  6 13  2  0  0  0  0
  6 16  1  0  0  0  0
  7 20  1  0  0  0  0
  7 21  2  0  0  0  0
  7 33  1  0  0  0  0
  8  9  1  0  0  0  0
  8 11  1  0  0  0  0
  8 15  1  0  0  0  0
  9 10  2  0  0  0  0
 10 29  1  0  0  0  0
 11 34  1  0  0  0  0
 12 18  1  0  0  0  0
 13 18  1  0  0  0  0
 13 22  1  0  0  0  0
 14 17  1  0  0  0  0
 14 35  1  0  0  0  0
 15 17  1  0  0  0  0
 15 36  1  0  0  0  0
 15 37  1  0  0  0  0
 16 24  1  0  0  0  0
 16 28  2  0  0  0  0
 17 25  2  0  0  0  0
 18 38  1  0  0  0  0
 18 39  1  0  0  0  0
 22 26  1  0  0  0  0
 22 40  1  0  0  0  0
 22 41  1  0  0  0  0
 23 26  1  0  0  0  0
 23 27  2  0  0  0  0
 23 30  1  0  0  0  0
 29 42  1  0  0  0  0
 29 43  1  0  0  0  0
 29 44  1  0  0  0  0
 30 45  1  0  0  0  0
 30 46  1  0  0  0  0
 30 47  1  0  0  0  0
M  CHG  2  20  -1  24  -1
M  END
$$$$
