HTS1710-05328725-01
 OpenBabel03232612353D

 41 43  0  0  1  0  0  0  0  0999 V2000
    4.9088   -6.3404  -31.4877 O   0  5  0  0  0  0  0  0  0  0  0  0
    5.7597   -7.0503  -31.9956 C   0  0  0  0  0  0  0  0  0  0  0  0
    6.3462   -7.9419  -31.4073 O   0  0  0  0  0  0  0  0  0  0  0  0
    6.0865   -6.8011  -33.4258 C   0  0  0  0  0  0  0  0  0  0  0  0
    6.4715   -5.5934  -33.9148 N   0  0  0  0  0  0  0  0  0  0  0  0
    6.6586   -5.8254  -35.2027 C   0  0  0  0  0  0  0  0  0  0  0  0
    6.4308   -7.1119  -35.6460 O   0  0  0  0  0  0  0  0  0  0  0  0
    6.0663   -7.6956  -34.4636 C   0  0  0  0  0  0  0  0  0  0  0  0
    5.7376   -9.1706  -34.4209 C   0  0  0  0  0  0  0  0  0  0  0  0
    4.3139   -9.3568  -34.2964 O   0  0  0  0  0  0  0  0  0  0  0  0
    3.8958  -10.6832  -33.9227 C   0  0  0  0  0  0  0  0  0  0  0  0
    3.7250  -10.7580  -32.4058 C   0  0  0  0  0  0  0  0  0  0  0  0
    4.0622   -9.8406  -31.6767 O   0  0  0  0  0  0  0  0  0  0  0  0
    3.1621  -11.9059  -31.8674 N   0  0  0  0  0  0  0  0  0  0  0  0
    2.9560  -12.0746  -30.4250 C   0  0  1  0  0  0  0  0  0  0  0  0
    2.9467  -13.5724  -29.9844 C   0  0  0  0  0  0  0  0  0  0  0  0
    3.6574  -13.0577  -28.6831 C   0  0  2  0  0  0  0  0  0  0  0  0
    4.2869  -11.9635  -29.6180 C   0  0  0  0  0  0  0  0  0  0  0  0
    4.6934  -14.0557  -28.1561 C   0  0  0  0  0  0  0  0  0  0  0  0
    4.4965  -15.4444  -28.3054 C   0  0  0  0  0  0  0  0  0  0  0  0
    5.4590  -16.3542  -27.8368 C   0  0  0  0  0  0  0  0  0  0  0  0
    6.6305  -15.8860  -27.2251 C   0  0  0  0  0  0  0  0  0  0  0  0
    6.8443  -14.5063  -27.0887 C   0  0  0  0  0  0  0  0  0  0  0  0
    5.8831  -13.5955  -27.5567 C   0  0  0  0  0  0  0  0  0  0  0  0
    6.9612   -5.0783  -35.8472 H   0  0  0  0  0  0  0  0  0  0  0  0
    6.2279   -9.6185  -33.5819 H   0  0  0  0  0  0  0  0  0  0  0  0
    6.0734   -9.6308  -35.3267 H   0  0  0  0  0  0  0  0  0  0  0  0
    4.6361  -11.3907  -34.2330 H   0  0  0  0  0  0  0  0  0  0  0  0
    2.9637  -10.9090  -34.3970 H   0  0  0  0  0  0  0  0  0  0  0  0
    2.8917  -12.6324  -32.4744 H   0  0  0  0  0  0  0  0  0  0  0  0
    2.1225  -11.4220  -30.2697 H   0  0  0  0  0  0  0  0  0  0  0  0
    3.5327  -14.2290  -30.5930 H   0  0  0  0  0  0  0  0  0  0  0  0
    2.0577  -14.1674  -29.9650 H   0  0  0  0  0  0  0  0  0  0  0  0
    3.1354  -12.8210  -27.7795 H   0  0  0  0  0  0  0  0  0  0  0  0
    5.1660  -12.2681  -30.1466 H   0  0  0  0  0  0  0  0  0  0  0  0
    4.6686  -11.0339  -29.2505 H   0  0  0  0  0  0  0  0  0  0  0  0
    3.6397  -15.7945  -28.7618 H   0  0  0  0  0  0  0  0  0  0  0  0
    5.3035  -17.3689  -27.9431 H   0  0  0  0  0  0  0  0  0  0  0  0
    7.3343  -16.5552  -26.8759 H   0  0  0  0  0  0  0  0  0  0  0  0
    7.7088  -14.1601  -26.6440 H   0  0  0  0  0  0  0  0  0  0  0  0
    6.0492  -12.5814  -27.4609 H   0  0  0  0  0  0  0  0  0  0  0  0
  1  2  1  0  0  0  0
  2  3  2  0  0  0  0
  2  4  1  0  0  0  0
  4  5  1  0  0  0  0
  4  8  2  0  0  0  0
  5  6  2  0  0  0  0
  6  7  1  0  0  0  0
  6 25  1  0  0  0  0
  7  8  1  0  0  0  0
  8  9  1  0  0  0  0
  9 10  1  0  0  0  0
  9 26  1  0  0  0  0
  9 27  1  0  0  0  0
 10 11  1  0  0  0  0
 11 12  1  0  0  0  0
 11 28  1  0  0  0  0
 11 29  1  0  0  0  0
 12 13  2  0  0  0  0
 12 14  1  0  0  0  0
 14 15  1  0  0  0  0
 14 30  1  0  0  0  0
 15 16  1  0  0  0  0
 15 18  1  0  0  0  0
 15 31  1  1  0  0  0
 16 17  1  0  0  0  0
 16 32  1  0  0  0  0
 16 33  1  0  0  0  0
 17 18  1  0  0  0  0
 17 19  1  0  0  0  0
 17 34  1  1  0  0  0
 18 35  1  0  0  0  0
 18 36  1  0  0  0  0
 19 20  2  0  0  0  0
 19 24  1  0  0  0  0
 20 21  1  0  0  0  0
 20 37  1  0  0  0  0
 21 22  2  0  0  0  0
 21 38  1  0  0  0  0
 22 23  1  0  0  0  0
 22 39  1  0  0  0  0
 23 24  2  0  0  0  0
 23 40  1  0  0  0  0
 24 41  1  0  0  0  0
M  CHG  1   1  -1
M  END
$$$$
