HTS1710-04646891-01
 OpenBabel03232612353D

 41 42  0  0  0  0  0  0  0  0999 V2000
    4.3939  -10.2811  -31.3103 C   0  0  0  0  0  0  0  0  0  0  0  0
    7.1390  -18.0073  -24.4180 C   0  0  0  0  0  0  0  0  0  0  0  0
    7.1091  -17.1847  -25.6519 C   0  0  0  0  0  0  0  0  0  0  0  0
    4.2677  -11.7162  -31.6437 C   0  0  0  0  0  0  0  0  0  0  0  0
    3.8709   -9.5857  -30.2437 C   0  0  0  0  0  0  0  0  0  0  0  0
    6.1592  -18.7647  -23.8082 C   0  0  0  0  0  0  0  0  0  0  0  0
    8.2655  -18.1740  -23.5714 C   0  0  0  0  0  0  0  0  0  0  0  0
    5.1072   -9.2942  -32.0397 C   0  0  0  0  0  0  0  0  0  0  0  0
    6.5465  -19.3981  -22.6562 O   0  0  0  0  0  0  0  0  0  0  0  0
    4.1716   -8.2498  -30.2108 O   0  0  0  0  0  0  0  0  0  0  0  0
    4.9365   -8.1260  -31.3423 C   0  0  0  0  0  0  0  0  0  0  0  0
    7.8526  -18.9996  -22.5596 C   0  0  0  0  0  0  0  0  0  0  0  0
    8.0881  -16.5667  -26.0400 O   0  0  0  0  0  0  0  0  0  0  0  0
    3.9592  -12.1245  -32.7518 O   0  0  0  0  0  0  0  0  0  0  0  0
    5.9127  -17.1717  -26.3102 O   0  0  0  0  0  0  0  0  0  0  0  0
    4.5325  -12.5397  -30.5813 O   0  0  0  0  0  0  0  0  0  0  0  0
    3.0250  -10.1797  -29.1461 C   0  0  0  0  0  0  0  0  0  0  0  0
    4.7362  -18.9294  -24.2762 C   0  0  0  0  0  0  0  0  0  0  0  0
    5.5070  -14.2922  -28.6106 O   0  0  0  0  0  0  0  0  0  0  0  0
    5.8096  -16.5098  -27.5879 C   0  0  0  0  0  0  0  0  0  0  0  0
    4.2030  -13.9456  -30.6278 C   0  0  0  0  0  0  0  0  0  0  0  0
    4.2071  -14.5068  -29.1899 C   0  0  0  0  0  0  0  0  0  0  0  0
    5.7526  -14.9785  -27.3633 C   0  0  0  0  0  0  0  0  0  0  0  0
    9.2025  -17.7589  -23.6930 H   0  0  0  0  0  0  0  0  0  0  0  0
    5.6422   -9.4277  -32.9120 H   0  0  0  0  0  0  0  0  0  0  0  0
    5.3488   -7.2292  -31.6436 H   0  0  0  0  0  0  0  0  0  0  0  0
    8.4731  -19.2959  -21.7901 H   0  0  0  0  0  0  0  0  0  0  0  0
    2.8890  -11.2255  -29.3270 H   0  0  0  0  0  0  0  0  0  0  0  0
    2.0718   -9.6940  -29.1279 H   0  0  0  0  0  0  0  0  0  0  0  0
    3.5139  -10.0414  -28.2045 H   0  0  0  0  0  0  0  0  0  0  0  0
    4.5924  -18.3780  -25.1818 H   0  0  0  0  0  0  0  0  0  0  0  0
    4.0689  -18.5616  -23.5250 H   0  0  0  0  0  0  0  0  0  0  0  0
    4.5369  -19.9655  -24.4542 H   0  0  0  0  0  0  0  0  0  0  0  0
    4.9198  -16.8319  -28.0872 H   0  0  0  0  0  0  0  0  0  0  0  0
    6.6600  -16.7542  -28.1897 H   0  0  0  0  0  0  0  0  0  0  0  0
    4.9282  -14.4653  -31.2185 H   0  0  0  0  0  0  0  0  0  0  0  0
    3.2358  -14.0774  -31.0661 H   0  0  0  0  0  0  0  0  0  0  0  0
    3.4657  -14.0033  -28.6054 H   0  0  0  0  0  0  0  0  0  0  0  0
    3.9862  -15.5536  -29.2081 H   0  0  0  0  0  0  0  0  0  0  0  0
    6.6854  -14.6473  -26.9571 H   0  0  0  0  0  0  0  0  0  0  0  0
    4.9552  -14.7580  -26.6846 H   0  0  0  0  0  0  0  0  0  0  0  0
  1  4  1  0  0  0  0
  1  5  2  0  0  0  0
  1  8  1  0  0  0  0
  2  3  1  0  0  0  0
  2  6  2  0  0  0  0
  2  7  1  0  0  0  0
  3 15  1  0  0  0  0
  3 13  2  0  0  0  0
  4 14  2  0  0  0  0
  4 16  1  0  0  0  0
  5 10  1  0  0  0  0
  5 17  1  0  0  0  0
  6  9  1  0  0  0  0
  6 18  1  0  0  0  0
  7 12  2  0  0  0  0
  7 24  1  0  0  0  0
  8 11  2  0  0  0  0
  8 25  1  0  0  0  0
  9 12  1  0  0  0  0
 10 11  1  0  0  0  0
 11 26  1  0  0  0  0
 12 27  1  0  0  0  0
 15 20  1  0  0  0  0
 16 21  1  0  0  0  0
 17 28  1  0  0  0  0
 17 29  1  0  0  0  0
 17 30  1  0  0  0  0
 18 31  1  0  0  0  0
 18 32  1  0  0  0  0
 18 33  1  0  0  0  0
 19 22  1  0  0  0  0
 19 23  1  0  0  0  0
 20 23  1  0  0  0  0
 20 34  1  0  0  0  0
 20 35  1  0  0  0  0
 21 22  1  0  0  0  0
 21 36  1  0  0  0  0
 21 37  1  0  0  0  0
 22 38  1  0  0  0  0
 22 39  1  0  0  0  0
 23 40  1  0  0  0  0
 23 41  1  0  0  0  0
M  END
$$$$
