HTS1710-04760466-01
 OpenBabel03232612353D

 41 44  0  0  1  0  0  0  0  0999 V2000
   -1.3677   -8.2519  -33.9530 O   0  5  0  0  0  0  0  0  0  0  0  0
   -0.1705   -8.1042  -33.7801 C   0  0  0  0  0  0  0  0  0  0  0  0
    0.3423   -7.1781  -33.1741 O   0  0  0  0  0  0  0  0  0  0  0  0
    0.7494   -9.1980  -34.3530 C   0  0  1  0  0  0  0  0  0  0  0  0
    2.0138   -9.3773  -33.4773 C   0  0  0  0  0  0  0  0  0  0  0  0
    2.8820  -10.5164  -33.9024 N   0  0  0  0  0  0  0  0  0  0  0  0
    2.1293  -11.7438  -34.2736 C   0  0  0  0  0  0  0  0  0  0  0  0
    0.8523  -11.4683  -35.1022 C   0  0  0  0  0  0  0  0  0  0  0  0
    0.0762  -10.4707  -34.4253 O   0  0  0  0  0  0  0  0  0  0  0  0
    4.1922  -10.6704  -33.4169 C   0  0  0  0  0  0  0  0  0  0  0  0
    4.9208  -11.5616  -33.8226 O   0  0  0  0  0  0  0  0  0  0  0  0
    4.6743   -9.6343  -32.4514 C   0  0  0  0  0  0  0  0  0  0  0  0
    5.2981   -8.4799  -32.8163 N   0  0  0  0  0  0  0  0  0  0  0  0
    5.7503   -7.9793  -31.6785 C   0  0  0  0  0  0  0  0  0  0  0  0
    5.5121   -8.7116  -30.5363 O   0  0  0  0  0  0  0  0  0  0  0  0
    4.8035   -9.7406  -31.0878 C   0  0  0  0  0  0  0  0  0  0  0  0
    4.1448  -10.7348  -30.2159 C   0  0  0  0  0  0  0  0  0  0  0  0
    3.5628  -10.2906  -29.0079 C   0  0  0  0  0  0  0  0  0  0  0  0
    2.8992  -11.1843  -28.1513 C   0  0  0  0  0  0  0  0  0  0  0  0
    2.7871  -12.5349  -28.5055 C   0  0  0  0  0  0  0  0  0  0  0  0
    2.1474  -13.4203  -27.6660 O   0  0  0  0  0  0  0  0  0  0  0  0
    2.2938  -14.8368  -27.8992 C   0  0  0  0  0  0  0  0  0  0  0  0
    2.1560  -15.1009  -29.4169 C   0  0  0  0  0  0  0  0  0  0  0  0
    3.1293  -14.2940  -30.1124 O   0  0  0  0  0  0  0  0  0  0  0  0
    3.3057  -12.9808  -29.7338 C   0  0  0  0  0  0  0  0  0  0  0  0
    3.9811  -12.0903  -30.5823 C   0  0  0  0  0  0  0  0  0  0  0  0
    1.0240   -8.8784  -35.3365 H   0  0  0  0  0  0  0  0  0  0  0  0
    1.7040   -9.5474  -32.4674 H   0  0  0  0  0  0  0  0  0  0  0  0
    2.5953   -8.4851  -33.5811 H   0  0  0  0  0  0  0  0  0  0  0  0
    1.8452  -12.2497  -33.3746 H   0  0  0  0  0  0  0  0  0  0  0  0
    2.7779  -12.3324  -34.8882 H   0  0  0  0  0  0  0  0  0  0  0  0
    0.2812  -12.3684  -35.1947 H   0  0  0  0  0  0  0  0  0  0  0  0
    1.1173  -11.1249  -36.0803 H   0  0  0  0  0  0  0  0  0  0  0  0
    6.2583   -7.0814  -31.6478 H   0  0  0  0  0  0  0  0  0  0  0  0
    3.6261   -9.2932  -28.7506 H   0  0  0  0  0  0  0  0  0  0  0  0
    2.4953  -10.8469  -27.2635 H   0  0  0  0  0  0  0  0  0  0  0  0
    1.5326  -15.3704  -27.3694 H   0  0  0  0  0  0  0  0  0  0  0  0
    3.2511  -15.1681  -27.5546 H   0  0  0  0  0  0  0  0  0  0  0  0
    1.1709  -14.8374  -29.7412 H   0  0  0  0  0  0  0  0  0  0  0  0
    2.3228  -16.1371  -29.6253 H   0  0  0  0  0  0  0  0  0  0  0  0
    4.3612  -12.4274  -31.4806 H   0  0  0  0  0  0  0  0  0  0  0  0
  1  2  1  0  0  0  0
  2  3  2  0  0  0  0
  2  4  1  0  0  0  0
  4  5  1  0  0  0  0
  4  9  1  0  0  0  0
  4 27  1  6  0  0  0
  5  6  1  0  0  0  0
  5 28  1  0  0  0  0
  5 29  1  0  0  0  0
  6  7  1  0  0  0  0
  6 10  1  0  0  0  0
  7  8  1  0  0  0  0
  7 30  1  0  0  0  0
  7 31  1  0  0  0  0
  8  9  1  0  0  0  0
  8 32  1  0  0  0  0
  8 33  1  0  0  0  0
 10 11  2  0  0  0  0
 10 12  1  0  0  0  0
 12 13  1  0  0  0  0
 12 16  2  0  0  0  0
 13 14  2  0  0  0  0
 14 15  1  0  0  0  0
 14 34  1  0  0  0  0
 15 16  1  0  0  0  0
 16 17  1  0  0  0  0
 17 18  2  0  0  0  0
 17 26  1  0  0  0  0
 18 19  1  0  0  0  0
 18 35  1  0  0  0  0
 19 20  2  0  0  0  0
 19 36  1  0  0  0  0
 20 21  1  0  0  0  0
 20 25  1  0  0  0  0
 21 22  1  0  0  0  0
 22 23  1  0  0  0  0
 22 37  1  0  0  0  0
 22 38  1  0  0  0  0
 23 24  1  0  0  0  0
 23 39  1  0  0  0  0
 23 40  1  0  0  0  0
 24 25  1  0  0  0  0
 25 26  2  0  0  0  0
 26 41  1  0  0  0  0
M  CHG  1   1  -1
M  END
$$$$
