##########                                Name: HTS1710-05388097-01
##########                    Molecular_Weight:             331.326
##########                DOCK_Rotatable_Bonds:                   5
##########                       Formal_Charge:                  -2
##########                     HBond_Acceptors:                  10
##########                        HBond_Donors:                   0
##########                         Heavy_Atoms:                  22
##########                          Grid_Score:          -76.965309
##########                     Grid_vdw_energy:          -38.786022
##########                      Grid_es_energy:          -38.179287
##########           Internal_energy_repulsive:            9.754365

@<TRIPOS>MOLECULE
HTS1710-05388097-01
 37 38 1 0 0
SMALL
USER_CHARGES


@<TRIPOS>ATOM
      1 C           2.2062  -14.3056  -28.3225 C.3     1  UNL1        0.0086
      2 N           3.4801  -13.8175  -28.8838 N.3     1  UNL1       -0.1837
      3 C           4.5868  -14.7746  -28.7075 C.3     1  UNL1        0.0086
      4 S           3.8870  -12.1849  -28.5935 S.O2    1  UNL1        0.0478
      5 O           5.2109  -12.1949  -27.9630 O.2     1  UNL1       -0.1540
      6 O           2.7253  -11.5323  -27.9807 O.2     1  UNL1       -0.1540
      7 C           4.1290  -11.5083  -30.2342 C.2     1  UNL1        0.0445
      8 C           3.7896  -12.1292  -31.4074 C.2     1  UNL1       -0.0381
      9 C           4.1559  -11.2274  -32.4392 C.2     1  UNL1        0.0238
     10 C           4.7172  -10.1638  -31.7704 C.2     1  UNL1       -0.1207
     11 O           4.7108  -10.2805  -30.4050 O.co2   1  UNL1       -0.7716
     12 C           4.0292  -11.4939  -33.8964 C.2     1  UNL1        0.2462
     13 O           4.7781  -12.2789  -34.4555 O.2     1  UNL1       -0.2700
     14 N           3.0409  -10.7852  -34.5957 N.am    1  UNL1       -0.2849
     15 C           2.2053   -9.8295  -33.8224 C.3     1  UNL1        0.0391
     16 C           0.9503   -9.3414  -34.5813 C.3     1  UNL1        0.0635
     17 O           1.3594   -8.8429  -35.8617 O.3     1  UNL1       -0.3760
     18 C           1.9327   -9.8609  -36.6997 C.3     1  UNL1        0.0715
     19 C           3.2246  -10.4156  -36.0350 C.3     1  UNL1        0.0890
     20 C           4.4247   -9.4545  -36.1622 C.2     1  UNL1        0.0644
     21 O           4.5826   -8.9185  -37.2444 O.co2   1  UNL1       -0.5478
     22 O           5.1364   -9.2870  -35.1857 O.co2   1  UNL1       -0.5478
     23 H           2.0759  -15.3366  -28.5771 H       1  UNL1        0.0408
     24 H           1.3965  -13.7337  -28.7254 H       1  UNL1        0.0408
     25 H           2.2220  -14.2004  -27.2578 H       1  UNL1        0.0408
     26 H           4.2372  -15.7654  -28.9101 H       1  UNL1        0.0408
     27 H           4.9467  -14.7221  -27.7012 H       1  UNL1        0.0408
     28 H           5.3800  -14.5311  -29.3831 H       1  UNL1        0.0408
     29 H           3.3572  -13.0597  -31.5176 H       1  UNL1        0.0632
     30 H           5.1113   -9.3441  -32.2579 H       1  UNL1        0.0462
     31 H           2.8050   -8.9773  -33.5793 H       1  UNL1        0.0487
     32 H           1.8609  -10.3497  -32.9532 H       1  UNL1        0.0487
     33 H           0.4730   -8.5614  -34.0257 H       1  UNL1        0.0575
     34 H           0.2593  -10.1490  -34.7055 H       1  UNL1        0.0575
     35 H           2.1746   -9.4421  -37.6541 H       1  UNL1        0.0582
     36 H           1.2280  -10.6560  -36.8263 H       1  UNL1        0.0582
     37 H           3.4384  -11.3082  -36.5849 H       1  UNL1        0.0585
@<TRIPOS>BOND
     1     1     2    1
     2     2     3    1
     3     2     4    1
     4     4     5    2
     5     4     6    2
     6     4     7    1
     7     7     8    2
     8     8     9    1
     9     9    10    2
    10    10    11    1
    11     7    11    1
    12     9    12    1
    13    12    13    2
    14    12    14   am
    15    14    15    1
    16    15    16    1
    17    16    17    1
    18    17    18    1
    19    18    19    1
    20    14    19    1
    21    19    20    1
    22    20    21   ar
    23    20    22   ar
    24     1    23    1
    25     1    24    1
    26     1    25    1
    27     3    26    1
    28     3    27    1
    29     3    28    1
    30     8    29    1
    31    10    30    1
    32    15    31    1
    33    15    32    1
    34    16    33    1
    35    16    34    1
    36    18    35    1
    37    18    36    1
    38    19    37    1
@<TRIPOS>SUBSTRUCTURE
     1 UNL1        1 TEMP              0 ****  ****    0 ROOT


