##########                                Name: HTS1710-01935385-01
##########                    Molecular_Weight:              374.35
##########                DOCK_Rotatable_Bonds:                   9
##########                       Formal_Charge:                  -2
##########                     HBond_Acceptors:                   9
##########                        HBond_Donors:                   3
##########                         Heavy_Atoms:                  27
##########                          Grid_Score:          -80.249802
##########                     Grid_vdw_energy:          -44.152802
##########                      Grid_es_energy:          -36.096996
##########           Internal_energy_repulsive:            7.770743

@<TRIPOS>MOLECULE
HTS1710-01935385-01
 45 47 1 0 0
SMALL
USER_CHARGES


@<TRIPOS>ATOM
      1 C           4.1801   -9.5977  -30.1766 C.2     1  UNL1       -0.0555
      2 C           4.6464  -10.5437  -31.0715 C.2     1  UNL1       -0.1090
      3 C           5.0978   -8.6529  -32.6564 C.2     1  UNL1        0.0539
      4 C           4.6274   -7.8207  -31.6775 C.2     1  UNL1       -0.0306
      5 O           4.0437   -8.2740  -30.5211 O.co2   1  UNL1       -0.7688
      6 C           4.9436  -10.1653  -32.4947 C.3     1  UNL1        0.0297
      7 C           3.8015   -9.9807  -28.8094 C.2     1  UNL1        0.1708
      8 O           4.8119  -11.8818  -30.7705 O.co2   1  UNL1       -0.7839
      9 C           3.9912  -11.4036  -28.5347 C.2     1  UNL1       -0.0241
     10 C           5.7655   -8.2387  -33.9599 C.2     1  UNL1        0.3367
     11 C           4.4757  -12.2683  -29.4915 C.2     1  UNL1       -0.0886
     12 C           3.8567  -10.6962  -33.4279 C.ar    1  UNL1       -0.0184
     13 N           4.7035   -6.4500  -31.7661 N.pl3   1  UNL1       -0.3685
     14 O           3.3737   -9.1956  -27.9804 O.2     1  UNL1       -0.2886
     15 O           5.7266   -8.9341  -34.9642 O.2     1  UNL1       -0.2453
     16 N           3.2380  -12.1431  -35.2748 N.ar    1  UNL1       -0.2630
     17 O           6.4124   -7.0335  -33.9183 O.3     1  UNL1       -0.4590
     18 C           4.6549  -13.7270  -29.1610 C.3     1  UNL1        0.0566
     19 C           4.1598  -11.6445  -34.4252 C.ar    1  UNL1        0.0316
     20 O           5.7423  -13.9169  -28.2611 O.3     1  UNL1       -0.3915
     21 O           7.3218   -4.3795  -33.8104 O.3     1  UNL1       -0.3796
     22 C           1.9663  -11.7109  -35.1589 C.ar    1  UNL1        0.0276
     23 C           2.5260  -10.2524  -33.3150 C.ar    1  UNL1       -0.0548
     24 C           6.8402   -6.3773  -35.1321 C.3     1  UNL1        0.1160
     25 C           6.6376   -4.8462  -34.9896 C.3     1  UNL1        0.0815
     26 C           7.6257   -2.9726  -33.7857 C.3     1  UNL1        0.0366
     27 C           1.5650  -10.7697  -34.1968 C.ar    1  UNL1       -0.0433
     28 H           5.8770  -10.6155  -32.7611 H       1  UNL1        0.0437
     29 H           3.7559  -11.7704  -27.5992 H       1  UNL1        0.0647
     30 H           4.1804   -5.8872  -31.1505 H       1  UNL1        0.1413
     31 H           5.2810   -6.0319  -32.4450 H       1  UNL1        0.1413
     32 H           4.8487  -14.2689  -30.0631 H       1  UNL1        0.0596
     33 H           3.7603  -14.0831  -28.6944 H       1  UNL1        0.0596
     34 H           5.1342  -11.9736  -34.5098 H       1  UNL1        0.0832
     35 H           5.9918  -14.8541  -28.2487 H       1  UNL1        0.2098
     36 H           1.2563  -12.0883  -35.8058 H       1  UNL1        0.0829
     37 H           2.2620   -9.5596  -32.5973 H       1  UNL1        0.0621
     38 H           6.2613   -6.7387  -35.9563 H       1  UNL1        0.0721
     39 H           7.8752   -6.5861  -35.3053 H       1  UNL1        0.0721
     40 H           7.0345   -4.3520  -35.8516 H       1  UNL1        0.0593
     41 H           5.5929   -4.6307  -34.9048 H       1  UNL1        0.0593
     42 H           8.1301   -2.7327  -32.8731 H       1  UNL1        0.0524
     43 H           6.7176   -2.4104  -33.8498 H       1  UNL1        0.0524
     44 H           8.2553   -2.7292  -34.6160 H       1  UNL1        0.0524
     45 H           0.5809  -10.4641  -34.1394 H       1  UNL1        0.0633
@<TRIPOS>BOND
     1     1     2    2
     2     1     5    1
     3     1     7    1
     4     2     6    1
     5     2     8    1
     6     3     4    2
     7     3     6    1
     8     3    10    1
     9     4     5    1
    10     4    13    1
    11     6    12    1
    12     7     9    1
    13     7    14    2
    14     8    11    1
    15     9    11    2
    16    10    15    2
    17    10    17    1
    18    11    18    1
    19    12    19   ar
    20    12    23   ar
    21    16    19   ar
    22    16    22   ar
    23    17    24    1
    24    18    20    1
    25    21    25    1
    26    21    26    1
    27    22    27   ar
    28    23    27   ar
    29    24    25    1
    30     6    28    1
    31     9    29    1
    32    13    30    1
    33    13    31    1
    34    18    32    1
    35    18    33    1
    36    19    34    1
    37    20    35    1
    38    22    36    1
    39    23    37    1
    40    24    38    1
    41    24    39    1
    42    25    40    1
    43    25    41    1
    44    26    42    1
    45    26    43    1
    46    26    44    1
    47    27    45    1
@<TRIPOS>SUBSTRUCTURE
     1 UNL1        1 TEMP              0 ****  ****    0 ROOT


