##########                                Name: HTS1710-01079784-01
##########                    Molecular_Weight:             343.382
##########                DOCK_Rotatable_Bonds:                   6
##########                       Formal_Charge:                  -1
##########                     HBond_Acceptors:                   7
##########                        HBond_Donors:                   1
##########                         Heavy_Atoms:                  25
##########                          Grid_Score:          -74.725914
##########                     Grid_vdw_energy:          -39.094128
##########                      Grid_es_energy:          -35.631786
##########           Internal_energy_repulsive:           14.112075

@<TRIPOS>MOLECULE
HTS1710-01079784-01
 46 48 1 0 0
SMALL
USER_CHARGES


@<TRIPOS>ATOM
      1 N           3.2979  -10.7611  -32.1088 N.am    1  UNL1       -0.2889
      2 C           3.1924   -9.5464  -32.8223 C.2     1  UNL1        0.2460
      3 C           3.0942  -10.7078  -30.6199 C.3     1  UNL1        0.0708
      4 C           3.3849   -9.5331  -34.3083 C.2     1  UNL1        0.0220
      5 C           2.6954  -12.0480  -29.9638 C.3     1  UNL1        0.0143
      6 C           4.3590  -10.1524  -29.9333 C.2     1  UNL1        0.0624
      7 C           3.8595  -12.0193  -32.6799 C.3     1  UNL1        0.0207
      8 C           3.6465  -13.1724  -30.4213 C.3     1  UNL1       -0.0173
      9 N           3.4392  -14.4695  -29.7206 N.4     1  UNL1        0.2386
     10 C           3.4896  -13.3248  -31.9418 C.3     1  UNL1        0.0063
     11 C           2.5168   -9.3909  -35.3739 C.2     1  UNL1       -0.1218
     12 C           4.6417   -9.7545  -34.9346 C.2     1  UNL1       -0.0647
     13 O           2.9390   -8.4997  -32.2475 O.2     1  UNL1       -0.2700
     14 O           3.1040   -9.4715  -36.6096 O.co2   1  UNL1       -0.7897
     15 C           3.5688  -14.3378  -28.2522 C.3     1  UNL1       -0.0045
     16 O           5.0934   -9.4239  -30.5798 O.co2   1  UNL1       -0.5479
     17 C           4.4097   -9.6974  -36.2806 C.2     1  UNL1       -0.1335
     18 N           7.1333  -13.8949  -27.0054 N.ar    1  UNL1       -0.2628
     19 C           4.9859  -14.6698  -27.8155 C.ar    1  UNL1        0.0151
     20 O           4.5337  -10.4703  -28.7702 O.co2   1  UNL1       -0.5479
     21 C           5.8662  -13.6536  -27.3975 C.ar    1  UNL1        0.0358
     22 C           2.1357  -15.1008  -30.0128 C.3     1  UNL1       -0.0425
     23 C           7.5722  -15.1704  -27.0182 C.ar    1  UNL1        0.0276
     24 C           5.4493  -15.9956  -27.8280 C.ar    1  UNL1       -0.0507
     25 C           6.7680  -16.2501  -27.4211 C.ar    1  UNL1       -0.0432
     26 H           2.2577  -10.0564  -30.4756 H       1  UNL1        0.0564
     27 H           1.6939  -12.2957  -30.2476 H       1  UNL1        0.0342
     28 H           2.7612  -11.9478  -28.9005 H       1  UNL1        0.0342
     29 H           4.9259  -11.9325  -32.6762 H       1  UNL1        0.0467
     30 H           3.4296  -12.1091  -33.6557 H       1  UNL1        0.0467
     31 H           4.6459  -12.8913  -30.1621 H       1  UNL1        0.0852
     32 H           4.1781  -15.0705  -30.0855 H       1  UNL1        0.2037
     33 H           2.4730  -13.5742  -32.1636 H       1  UNL1        0.0335
     34 H           4.1510  -14.0980  -32.2729 H       1  UNL1        0.0335
     35 H           1.5041   -9.2360  -35.2489 H       1  UNL1        0.0462
     36 H           5.5463   -9.9240  -34.4676 H       1  UNL1        0.0613
     37 H           2.8861  -15.0101  -27.7760 H       1  UNL1        0.0868
     38 H           3.3458  -13.3294  -27.9724 H       1  UNL1        0.0868
     39 H           5.1548   -9.8145  -36.9850 H       1  UNL1        0.0455
     40 H           5.5259  -12.6793  -27.3909 H       1  UNL1        0.0834
     41 H           1.3477  -14.4826  -29.6361 H       1  UNL1        0.0778
     42 H           2.0912  -16.0611  -29.5430 H       1  UNL1        0.0778
     43 H           2.0242  -15.2156  -31.0707 H       1  UNL1        0.0778
     44 H           8.5412  -15.3617  -26.7190 H       1  UNL1        0.0829
     45 H           4.8331  -16.7662  -28.1301 H       1  UNL1        0.0623
     46 H           7.1403  -17.2126  -27.4178 H       1  UNL1        0.0633
@<TRIPOS>BOND
     1     1     2   am
     2     1     3    1
     3     2     4    1
     4     3     5    1
     5     3     6    1
     6     1     7    1
     7     8    10    1
     8     8     9    1
     9     7    10    1
    10     4    11    2
    11     4    12    1
    12     2    13    2
    13    11    14    1
    14     9    15    1
    15     6    16   ar
    16    12    17    2
    17    18    21   ar
    18    15    19    1
    19     6    20   ar
    20    19    21   ar
    21     9    22    1
    22    23    25   ar
    23    19    24   ar
    24    24    25   ar
    25     5     8    1
    26    14    17    1
    27    18    23   ar
    28     3    26    1
    29     5    27    1
    30     5    28    1
    31     7    29    1
    32     7    30    1
    33     8    31    1
    34     9    32    1
    35    10    33    1
    36    10    34    1
    37    11    35    1
    38    12    36    1
    39    15    37    1
    40    15    38    1
    41    17    39    1
    42    21    40    1
    43    22    41    1
    44    22    42    1
    45    22    43    1
    46    23    44    1
    47    24    45    1
    48    25    46    1
@<TRIPOS>SUBSTRUCTURE
     1 UNL1        1 TEMP              0 ****  ****    0 ROOT


