##########                                Name: HTS1710-00156649-01
##########                    Molecular_Weight:             329.352
##########                DOCK_Rotatable_Bonds:                   6
##########                       Formal_Charge:                  -2
##########                     HBond_Acceptors:                   6
##########                        HBond_Donors:                   0
##########                         Heavy_Atoms:                  24
##########                          Grid_Score:          -76.678513
##########                     Grid_vdw_energy:          -39.579086
##########                      Grid_es_energy:          -37.099422
##########           Internal_energy_repulsive:           10.871301

@<TRIPOS>MOLECULE
HTS1710-00156649-01
 43 44 1 0 0
SMALL
USER_CHARGES


@<TRIPOS>ATOM
      1 C           3.3136   -9.6474  -32.0338 C.3     1  UNL1        0.0796
      2 N           4.4157   -9.6261  -33.0382 N.am    1  UNL1       -0.2870
      3 C           3.6208   -8.4119  -31.1846 C.2     1  UNL1        0.0167
      4 C           3.2825  -10.9242  -31.1957 C.ar    1  UNL1       -0.0225
      5 C           5.3070   -8.5963  -32.7917 C.2     1  UNL1        0.2329
      6 C           4.6469  -10.7215  -34.0072 C.3     1  UNL1        0.0209
      7 C           4.7459   -7.8456  -31.6617 C.2     1  UNL1       -0.0358
      8 C           2.6292   -7.9177  -30.1801 C.2     1  UNL1        0.1579
      9 C           4.1749  -11.0840  -30.1213 C.ar    1  UNL1       -0.0562
     10 C           2.3738  -11.9575  -31.4917 C.ar    1  UNL1       -0.0562
     11 O           6.3389   -8.3678  -33.3992 O.2     1  UNL1       -0.2712
     12 C           3.6242  -10.8013  -35.1699 C.3     1  UNL1        0.0027
     13 O           5.3410   -6.7115  -31.2227 O.co2   1  UNL1       -0.8701
     14 C           1.5752   -6.9329  -30.6937 C.3     1  UNL1       -0.0017
     15 O           2.5575   -8.3844  -29.0571 O.2     1  UNL1       -0.2926
     16 C           4.1573  -12.2570  -29.3505 C.ar    1  UNL1       -0.0580
     17 C           2.3512  -13.1278  -30.7184 C.ar    1  UNL1       -0.0580
     18 C           3.7603   -9.6374  -36.1604 C.2     1  UNL1        0.0432
     19 C           3.2453  -13.2893  -29.6417 C.ar    1  UNL1       -0.0448
     20 O           4.8670   -9.1438  -36.2890 O.co2   1  UNL1       -0.5498
     21 O           2.7581   -9.2930  -36.7617 O.co2   1  UNL1       -0.5498
     22 C           3.2326  -14.5639  -28.7930 C.3     1  UNL1       -0.0215
     23 C           2.1181  -14.5230  -27.7193 C.3     1  UNL1       -0.0587
     24 C           4.6135  -14.8228  -28.1458 C.3     1  UNL1       -0.0587
     25 H           2.3445   -9.6323  -32.4870 H       1  UNL1        0.0602
     26 H           4.6139  -11.6481  -33.4732 H       1  UNL1        0.0468
     27 H           5.5958  -10.5222  -34.4596 H       1  UNL1        0.0468
     28 H           4.8476  -10.3339  -29.8978 H       1  UNL1        0.0621
     29 H           1.7196  -11.8534  -32.2829 H       1  UNL1        0.0621
     30 H           2.6365  -10.7868  -34.7586 H       1  UNL1        0.0340
     31 H           3.8163  -11.7065  -35.7071 H       1  UNL1        0.0340
     32 H           1.8163   -6.6426  -31.6949 H       1  UNL1        0.0309
     33 H           1.5598   -6.0671  -30.0651 H       1  UNL1        0.0309
     34 H           0.6130   -7.4009  -30.6799 H       1  UNL1        0.0309
     35 H           4.8176  -12.3635  -28.5645 H       1  UNL1        0.0620
     36 H           1.6751  -13.8754  -30.9398 H       1  UNL1        0.0620
     37 H           3.0189  -15.3798  -29.4513 H       1  UNL1        0.0343
     38 H           2.3038  -13.7148  -27.0431 H       1  UNL1        0.0235
     39 H           2.1102  -15.4460  -27.1781 H       1  UNL1        0.0235
     40 H           1.1702  -14.3800  -28.1944 H       1  UNL1        0.0235
     41 H           4.8521  -14.0191  -27.4808 H       1  UNL1        0.0235
     42 H           5.3594  -14.8866  -28.9103 H       1  UNL1        0.0235
     43 H           4.5842  -15.7418  -27.5985 H       1  UNL1        0.0235
@<TRIPOS>BOND
     1     1     2    1
     2     1     3    1
     3     1     4    1
     4     2     5   am
     5     2     6    1
     6     3     7    2
     7     3     8    1
     8     4     9   ar
     9     4    10   ar
    10     5    11    2
    11     6    12    1
    12     7    13    1
    13     8    14    1
    14     8    15    2
    15     9    16   ar
    16    10    17   ar
    17    12    18    1
    18    16    19   ar
    19    18    20   ar
    20    18    21   ar
    21    19    22    1
    22    22    23    1
    23    22    24    1
    24     5     7    1
    25    17    19   ar
    26     1    25    1
    27     6    26    1
    28     6    27    1
    29     9    28    1
    30    10    29    1
    31    12    30    1
    32    12    31    1
    33    14    32    1
    34    14    33    1
    35    14    34    1
    36    16    35    1
    37    17    36    1
    38    22    37    1
    39    23    38    1
    40    23    39    1
    41    23    40    1
    42    24    41    1
    43    24    42    1
    44    24    43    1
@<TRIPOS>SUBSTRUCTURE
     1 UNL1        1 TEMP              0 ****  ****    0 ROOT


