HTS1710-00492058-01
 OpenBabel03232612343D

 30 31  0  0  0  0  0  0  0  0999 V2000
    2.9333   -9.5670  -34.2694 C   0  0  0  0  0  0  0  0  0  0  0  0
    3.9598   -9.6402  -35.2414 C   0  0  0  0  0  0  0  0  0  0  0  0
    1.5023   -9.8940  -34.5966 C   0  0  0  0  0  0  0  0  0  0  0  0
    3.2481   -9.1854  -32.9513 C   0  0  0  0  0  0  0  0  0  0  0  0
    5.2863   -9.3705  -34.8579 C   0  0  0  0  0  0  0  0  0  0  0  0
    3.6753   -9.9736  -36.6825 C   0  0  0  0  0  0  0  0  0  0  0  0
    0.5618   -8.7601  -34.9288 C   0  0  0  0  0  0  0  0  0  0  0  0
    1.1218  -11.0526  -34.6084 O   0  0  0  0  0  0  0  0  0  0  0  0
    4.5763   -8.9022  -32.5693 C   0  0  0  0  0  0  0  0  0  0  0  0
    5.5936   -9.0089  -33.5390 C   0  0  0  0  0  0  0  0  0  0  0  0
    3.9559   -9.1328  -37.5194 O   0  5  0  0  0  0  0  0  0  0  0  0
    3.1973  -11.0711  -36.9126 O   0  0  0  0  0  0  0  0  0  0  0  0
    0.6029   -8.1250  -36.1852 C   0  0  0  0  0  0  0  0  0  0  0  0
   -0.3870   -8.3316  -33.9824 C   0  0  0  0  0  0  0  0  0  0  0  0
    4.9029   -8.4961  -31.1478 C   0  0  0  0  0  0  0  0  0  0  0  0
   -0.2789   -7.0733  -36.4829 C   0  0  0  0  0  0  0  0  0  0  0  0
   -1.2687   -7.2789  -34.2792 C   0  0  0  0  0  0  0  0  0  0  0  0
    4.0559   -8.7007  -30.2945 O   0  5  0  0  0  0  0  0  0  0  0  0
    5.9920   -7.9889  -30.9414 O   0  0  0  0  0  0  0  0  0  0  0  0
   -1.2244   -6.6350  -35.5326 C   0  0  0  0  0  0  0  0  0  0  0  0
   -2.1724   -5.5001  -35.8505 C   0  0  0  0  0  0  0  0  0  0  0  0
   -1.9205   -4.8112  -36.8248 O   0  5  0  0  0  0  0  0  0  0  0  0
   -3.1309   -5.3429  -35.1129 O   0  0  0  0  0  0  0  0  0  0  0  0
    2.4932   -9.1114  -32.2515 H   0  0  0  0  0  0  0  0  0  0  0  0
    6.0427   -9.4398  -35.5565 H   0  0  0  0  0  0  0  0  0  0  0  0
    6.5733   -8.8192  -33.2756 H   0  0  0  0  0  0  0  0  0  0  0  0
    1.2868   -8.4351  -36.8930 H   0  0  0  0  0  0  0  0  0  0  0  0
   -0.4357   -8.7950  -33.0617 H   0  0  0  0  0  0  0  0  0  0  0  0
   -0.2345   -6.6162  -37.4071 H   0  0  0  0  0  0  0  0  0  0  0  0
   -1.9560   -6.9739  -33.5723 H   0  0  0  0  0  0  0  0  0  0  0  0
  1  2  2  0  0  0  0
  1  3  1  0  0  0  0
  1  4  1  0  0  0  0
  2  5  1  0  0  0  0
  2  6  1  0  0  0  0
  3  7  1  0  0  0  0
  3  8  2  0  0  0  0
  4  9  2  0  0  0  0
  4 24  1  0  0  0  0
  5 10  2  0  0  0  0
  5 25  1  0  0  0  0
  6 11  1  0  0  0  0
  6 12  2  0  0  0  0
  7 13  2  0  0  0  0
  7 14  1  0  0  0  0
  9 15  1  0  0  0  0
  9 10  1  0  0  0  0
 10 26  1  0  0  0  0
 13 16  1  0  0  0  0
 13 27  1  0  0  0  0
 14 17  2  0  0  0  0
 14 28  1  0  0  0  0
 15 18  1  0  0  0  0
 15 19  2  0  0  0  0
 16 20  2  0  0  0  0
 16 29  1  0  0  0  0
 17 20  1  0  0  0  0
 17 30  1  0  0  0  0
 20 21  1  0  0  0  0
 21 22  1  0  0  0  0
 21 23  2  0  0  0  0
M  CHG  3  11  -1  18  -1  22  -1
M  END
$$$$
