HTS1710-01866675-01
 OpenBabel03232612353D

 35 36  0  0  1  0  0  0  0  0999 V2000
    2.9890  -12.0157  -31.0581 N   0  0  0  0  0  0  0  0  0  0  0  0
    3.7887  -11.1273  -31.7712 C   0  0  0  0  0  0  0  0  0  0  0  0
    1.9092  -12.4677  -31.8185 C   0  0  0  0  0  0  0  0  0  0  0  0
    3.1559  -10.9882  -33.1093 C   0  0  0  0  0  0  0  0  0  0  0  0
    2.0325  -11.7919  -33.1375 C   0  0  0  0  0  0  0  0  0  0  0  0
    3.3084  -12.4413  -29.6696 C   0  0  2  0  0  0  0  0  0  0  0  0
    4.7980  -14.7712  -27.3278 S   0  0  0  0  0  0  0  0  0  0  0  0
    3.5328  -10.2108  -34.2110 C   0  0  0  0  0  0  0  0  0  0  0  0
    3.0797  -11.2916  -28.6599 C   0  0  0  0  0  0  0  0  0  0  0  0
    2.7273  -10.2592  -35.3770 C   0  0  0  0  0  0  0  0  0  0  0  0
    4.7012  -13.1358  -29.5807 C   0  0  0  0  0  0  0  0  0  0  0  0
    3.0880   -9.4303  -36.5886 C   0  0  0  0  0  0  0  0  0  0  0  0
    1.2175  -11.8665  -34.2691 C   0  0  0  0  0  0  0  0  0  0  0  0
    4.8010  -10.5725  -31.3783 O   0  0  0  0  0  0  0  0  0  0  0  0
    1.0268  -13.2356  -31.4755 O   0  0  0  0  0  0  0  0  0  0  0  0
    3.4591  -14.8130  -26.7647 O   0  0  0  0  0  0  0  0  0  0  0  0
    5.7424  -13.7726  -26.8565 O   0  0  0  0  0  0  0  0  0  0  0  0
    4.6538  -14.6175  -29.1286 C   0  0  0  0  0  0  0  0  0  0  0  0
    1.5737  -11.0931  -35.3922 C   0  0  0  0  0  0  0  0  0  0  0  0
    3.8018  -10.3101  -28.7178 O   0  5  0  0  0  0  0  0  0  0  0  0
    4.2705   -9.3107  -36.8576 O   0  5  0  0  0  0  0  0  0  0  0  0
    2.1875  -11.4536  -27.8454 O   0  0  0  0  0  0  0  0  0  0  0  0
    2.1735   -8.9300  -37.2224 O   0  0  0  0  0  0  0  0  0  0  0  0
    5.5502  -16.4012  -27.1033 C   0  0  0  0  0  0  0  0  0  0  0  0
    2.6160  -13.2028  -29.3773 H   0  0  0  0  0  0  0  0  0  0  0  0
    4.3762   -9.6170  -34.1754 H   0  0  0  0  0  0  0  0  0  0  0  0
    5.3015  -12.5921  -28.8814 H   0  0  0  0  0  0  0  0  0  0  0  0
    5.1059  -13.1331  -30.5712 H   0  0  0  0  0  0  0  0  0  0  0  0
    0.3801  -12.4694  -34.2825 H   0  0  0  0  0  0  0  0  0  0  0  0
    3.7242  -15.0461  -29.4403 H   0  0  0  0  0  0  0  0  0  0  0  0
    5.4800  -15.1301  -29.5752 H   0  0  0  0  0  0  0  0  0  0  0  0
    0.9878  -11.1321  -36.2408 H   0  0  0  0  0  0  0  0  0  0  0  0
    5.6806  -16.5931  -26.0588 H   0  0  0  0  0  0  0  0  0  0  0  0
    6.5019  -16.4252  -27.5919 H   0  0  0  0  0  0  0  0  0  0  0  0
    4.9130  -17.1494  -27.5266 H   0  0  0  0  0  0  0  0  0  0  0  0
  1  2  1  0  0  0  0
  1  3  1  0  0  0  0
  1  6  1  0  0  0  0
  2  4  1  0  0  0  0
  2 14  2  0  0  0  0
  3  5  1  0  0  0  0
  3 15  2  0  0  0  0
  4  5  2  0  0  0  0
  4  8  1  0  0  0  0
  5 13  1  0  0  0  0
  6  9  1  0  0  0  0
  6 11  1  0  0  0  0
  6 25  1  1  0  0  0
  7 16  2  0  0  0  0
  7 17  2  0  0  0  0
  7 18  1  0  0  0  0
  7 24  1  0  0  0  0
  8 10  2  0  0  0  0
  8 26  1  0  0  0  0
  9 20  1  0  0  0  0
  9 22  2  0  0  0  0
 10 12  1  0  0  0  0
 10 19  1  0  0  0  0
 11 18  1  0  0  0  0
 11 27  1  0  0  0  0
 11 28  1  0  0  0  0
 12 21  1  0  0  0  0
 12 23  2  0  0  0  0
 13 19  2  0  0  0  0
 13 29  1  0  0  0  0
 18 30  1  0  0  0  0
 18 31  1  0  0  0  0
 19 32  1  0  0  0  0
 24 33  1  0  0  0  0
 24 34  1  0  0  0  0
 24 35  1  0  0  0  0
M  CHG  2  20  -1  21  -1
M  END
$$$$
