##########                                Name: HTS1710-01164317-01
##########                    Molecular_Weight:             359.335
##########                DOCK_Rotatable_Bonds:                   7
##########                       Formal_Charge:                  -2
##########                     HBond_Acceptors:                   8
##########                        HBond_Donors:                   3
##########                         Heavy_Atoms:                  26
##########                          Grid_Score:          -79.308014
##########                     Grid_vdw_energy:          -41.045383
##########                      Grid_es_energy:          -38.262630
##########           Internal_energy_repulsive:            4.733534

@<TRIPOS>MOLECULE
HTS1710-01164317-01
 43 45 1 0 0
SMALL
USER_CHARGES


@<TRIPOS>ATOM
      1 C           4.4156   -7.3869  -31.4489 C.2     1  UNL1       -0.0555
      2 C           4.9522   -8.3293  -32.3094 C.2     1  UNL1       -0.1091
      3 C           3.8079  -10.0750  -30.9201 C.2     1  UNL1        0.0538
      4 C           3.3591   -9.0491  -30.1399 C.2     1  UNL1       -0.0306
      5 C           4.5038   -9.7635  -32.2494 C.3     1  UNL1        0.0284
      6 O           3.5237   -7.7254  -30.4585 O.co2   1  UNL1       -0.7688
      7 C           4.7823   -5.9688  -31.5661 C.2     1  UNL1        0.1708
      8 O           5.8658   -8.0393  -33.3044 O.co2   1  UNL1       -0.7839
      9 C           5.7478   -5.7079  -32.6323 C.2     1  UNL1       -0.0241
     10 C           3.5907  -10.0807  -33.4347 C.ar    1  UNL1       -0.0331
     11 C           3.6389  -11.5438  -30.5643 C.2     1  UNL1        0.3364
     12 C           6.2400   -6.7191  -33.4271 C.2     1  UNL1       -0.0886
     13 C           2.2258   -9.7373  -33.3935 C.ar    1  UNL1       -0.0159
     14 N           2.6931   -9.2793  -28.9582 N.pl3   1  UNL1       -0.3685
     15 O           4.3328   -5.0926  -30.8477 O.2     1  UNL1       -0.2886
     16 O           2.6332  -12.2035  -30.7785 O.2     1  UNL1       -0.2453
     17 O           4.7537  -12.0660  -29.9638 O.3     1  UNL1       -0.4646
     18 C           1.3790  -10.0306  -34.4765 C.ar    1  UNL1        0.1204
     19 C           4.1013  -10.7317  -34.5749 C.ar    1  UNL1       -0.0575
     20 C           7.2412   -6.4026  -34.5083 C.3     1  UNL1        0.0566
     21 O           0.0489   -9.6692  -34.3805 O.3     1  UNL1       -0.4951
     22 O           6.7420   -6.7759  -35.7883 O.3     1  UNL1       -0.3915
     23 C           3.2612  -11.0259  -35.6586 C.ar    1  UNL1       -0.0580
     24 C           1.9024  -10.6775  -35.6159 C.ar    1  UNL1       -0.0199
     25 C           4.7764  -13.4562  -29.5887 C.3     1  UNL1        0.0820
     26 C          -0.3788   -8.3361  -34.0528 C.3     1  UNL1        0.0788
     27 H           5.3704  -10.3883  -32.3098 H       1  UNL1        0.0437
     28 H           6.0690   -4.7405  -32.7937 H       1  UNL1        0.0647
     29 H           1.8431   -9.2653  -32.5594 H       1  UNL1        0.0657
     30 H           2.0827  -10.0476  -28.8789 H       1  UNL1        0.1413
     31 H           2.8269   -8.6757  -28.1921 H       1  UNL1        0.1413
     32 H           5.0988  -10.9935  -34.6129 H       1  UNL1        0.0621
     33 H           8.1466   -6.9392  -34.3153 H       1  UNL1        0.0596
     34 H           7.4239   -5.3484  -34.5069 H       1  UNL1        0.0596
     35 H           6.5634   -7.7293  -35.8002 H       1  UNL1        0.2098
     36 H           3.6438  -11.5007  -36.4912 H       1  UNL1        0.0619
     37 H           1.2875  -10.8940  -36.4159 H       1  UNL1        0.0654
     38 H           5.7180  -13.6883  -29.1365 H       1  UNL1        0.0661
     39 H           4.6398  -14.0629  -30.4594 H       1  UNL1        0.0661
     40 H           3.9883  -13.6504  -28.8914 H       1  UNL1        0.0661
     41 H          -1.4480   -8.2982  -34.0373 H       1  UNL1        0.0660
     42 H          -0.0084   -7.6519  -34.7875 H       1  UNL1        0.0660
     43 H           0.0017   -8.0659  -33.0900 H       1  UNL1        0.0660
@<TRIPOS>BOND
     1     1     2    2
     2     3     4    2
     3     4     6    1
     4     2     5    1
     5     1     6    1
     6     1     7    1
     7     2     8    1
     8     7     9    1
     9     5    10    1
    10     3    11    1
    11     9    12    2
    12    10    13   ar
    13     4    14    1
    14     7    15    2
    15    11    16    2
    16    11    17    1
    17    13    18   ar
    18    10    19   ar
    19    12    20    1
    20    18    21    1
    21    20    22    1
    22    19    23   ar
    23    23    24   ar
    24    17    25    1
    25    21    26    1
    26     3     5    1
    27     8    12    1
    28    18    24   ar
    29     5    27    1
    30     9    28    1
    31    13    29    1
    32    14    30    1
    33    14    31    1
    34    19    32    1
    35    20    33    1
    36    20    34    1
    37    22    35    1
    38    23    36    1
    39    24    37    1
    40    25    38    1
    41    25    39    1
    42    25    40    1
    43    26    41    1
    44    26    42    1
    45    26    43    1
@<TRIPOS>SUBSTRUCTURE
     1 UNL1        1 TEMP              0 ****  ****    0 ROOT


