HTS1710-00234175-01
 OpenBabel03232612353D

 21 22  0  0  0  0  0  0  0  0999 V2000
    3.8822  -10.8075  -30.2371 C   0  0  0  0  0  0  0  0  0  0  0  0
    4.8389   -9.6265  -32.1553 C   0  0  0  0  0  0  0  0  0  0  0  0
    4.4858   -9.6410  -30.7828 C   0  0  0  0  0  0  0  0  0  0  0  0
    5.4374   -8.4894  -32.7454 C   0  0  0  0  0  0  0  0  0  0  0  0
    3.4516  -10.9526  -28.7808 C   0  0  0  0  0  0  0  0  0  0  0  0
    4.0157  -11.8769  -32.4177 N   0  0  0  0  0  0  0  0  0  0  0  0
    3.6776  -11.8923  -31.1165 C   0  0  0  0  0  0  0  0  0  0  0  0
    5.7876   -8.4760  -34.1107 C   0  0  0  0  0  0  0  0  0  0  0  0
    6.4279   -7.2537  -34.7337 C   0  0  0  0  0  0  0  0  0  0  0  0
    4.5843  -10.7749  -32.9426 C   0  0  0  0  0  0  0  0  0  0  0  0
    2.8926   -9.9961  -28.2721 O   0  5  0  0  0  0  0  0  0  0  0  0
    6.7830   -6.3599  -33.9846 O   0  5  0  0  0  0  0  0  0  0  0  0
    5.5297   -9.6240  -34.8832 C   0  0  0  0  0  0  0  0  0  0  0  0
    4.9378  -10.7542  -34.3035 C   0  0  0  0  0  0  0  0  0  0  0  0
    4.7298   -8.5356  -30.0114 O   0  5  0  0  0  0  0  0  0  0  0  0
    3.6826  -11.9982  -28.1988 O   0  0  0  0  0  0  0  0  0  0  0  0
    6.5510   -7.2375  -35.9463 O   0  0  0  0  0  0  0  0  0  0  0  0
    5.6209   -7.6550  -32.1665 H   0  0  0  0  0  0  0  0  0  0  0  0
    3.2426  -12.7483  -30.7382 H   0  0  0  0  0  0  0  0  0  0  0  0
    5.7785   -9.6334  -35.8847 H   0  0  0  0  0  0  0  0  0  0  0  0
    4.7580  -11.5867  -34.8862 H   0  0  0  0  0  0  0  0  0  0  0  0
  1  3  2  0  0  0  0
  1  5  1  0  0  0  0
  1  7  1  0  0  0  0
  2  3  1  0  0  0  0
  2  4  2  0  0  0  0
  2 10  1  0  0  0  0
  3 15  1  0  0  0  0
  4  8  1  0  0  0  0
  4 18  1  0  0  0  0
  5 11  1  0  0  0  0
  5 16  2  0  0  0  0
  6  7  2  0  0  0  0
  6 10  1  0  0  0  0
  7 19  1  0  0  0  0
  8  9  1  0  0  0  0
  8 13  2  0  0  0  0
  9 12  1  0  0  0  0
  9 17  2  0  0  0  0
 10 14  2  0  0  0  0
 13 14  1  0  0  0  0
 13 20  1  0  0  0  0
 14 21  1  0  0  0  0
M  CHG  3  11  -1  12  -1  15  -1
M  END
$$$$
