HTS1710-01944899-01
 OpenBabel03232612343D

 28 29  0  0  0  0  0  0  0  0999 V2000
    3.9979  -10.3521  -35.8524 S   0  0  0  0  0  0  0  0  0  0  0  0
    4.2559   -9.7425  -30.3683 S   0  0  0  0  0  0  0  0  0  0  0  0
   -2.2260   -6.8562  -33.9248 S   0  0  0  0  0  0  0  0  0  0  0  0
    3.1788   -9.6845  -34.3522 C   0  0  0  0  0  0  0  0  0  0  0  0
    1.9064   -9.0054  -34.3289 C   0  0  0  0  0  0  0  0  0  0  0  0
    3.3339   -9.4867  -31.9031 C   0  0  0  0  0  0  0  0  0  0  0  0
    3.8690   -9.8899  -33.1325 C   0  0  0  0  0  0  0  0  0  0  0  0
   -0.6330   -7.6952  -34.0778 C   0  0  0  0  0  0  0  0  0  0  0  0
    1.1192   -8.6642  -35.4780 C   0  0  0  0  0  0  0  0  0  0  0  0
    1.3799   -8.6230  -33.0611 C   0  0  0  0  0  0  0  0  0  0  0  0
   -0.1245   -8.0245  -35.3378 C   0  0  0  0  0  0  0  0  0  0  0  0
    2.0879   -8.8596  -31.8739 C   0  0  0  0  0  0  0  0  0  0  0  0
    0.1325   -7.9829  -32.9438 C   0  0  0  0  0  0  0  0  0  0  0  0
   -2.6953   -7.3310  -32.6201 O   0  0  0  0  0  1  0  0  0  0  0  0
    5.4518   -8.9242  -30.5941 O   0  0  0  0  0  1  0  0  0  0  0  0
    5.1542  -11.0643  -35.3009 O   0  0  0  0  0  0  0  0  0  0  0  0
    3.0005  -11.2204  -36.4861 O   0  0  0  0  0  0  0  0  0  0  0  0
   -2.9899   -7.3519  -35.0742 O   0  0  0  0  0  0  0  0  0  0  0  0
    4.4948  -11.1885  -30.3396 O   0  0  0  0  0  0  0  0  0  0  0  0
    3.3500   -9.2331  -29.3335 O   0  0  0  0  0  0  0  0  0  0  0  0
   -1.8680   -5.4343  -33.9698 O   0  0  0  0  0  0  0  0  0  0  0  0
    4.3157   -9.1428  -36.6196 O   0  0  0  0  0  1  0  0  0  0  0  0
    1.5208   -8.8889  -36.7594 O   0  0  0  0  0  0  0  0  0  0  0  0
    4.7927  -10.3499  -33.1506 H   0  0  0  0  0  0  0  0  0  0  0  0
   -0.6728   -7.7935  -36.1810 H   0  0  0  0  0  0  0  0  0  0  0  0
    1.6836   -8.5673  -30.9705 H   0  0  0  0  0  0  0  0  0  0  0  0
   -0.2216   -7.7228  -32.0100 H   0  0  0  0  0  0  0  0  0  0  0  0
    0.9781   -8.6203  -37.4744 H   0  0  0  0  0  0  0  0  0  0  0  0
  1  4  1  0  0  0  0
  1 16  2  0  0  0  0
  1 17  2  0  0  0  0
  1 22  1  0  0  0  0
  2  6  1  0  0  0  0
  2 15  1  0  0  0  0
  2 19  2  0  0  0  0
  2 20  2  0  0  0  0
  3  8  1  0  0  0  0
  3 14  1  0  0  0  0
  3 18  2  0  0  0  0
  3 21  2  0  0  0  0
  4  5  2  0  0  0  0
  4  7  1  0  0  0  0
  5  9  1  0  0  0  0
  5 10  1  0  0  0  0
  6  7  2  0  0  0  0
  6 12  1  0  0  0  0
  7 24  1  0  0  0  0
  8 13  2  0  0  0  0
  8 11  1  0  0  0  0
  9 11  2  0  0  0  0
  9 23  1  0  0  0  0
 10 13  1  0  0  0  0
 10 12  2  0  0  0  0
 11 25  1  0  0  0  0
 12 26  1  0  0  0  0
 13 27  1  0  0  0  0
 23 28  1  0  0  0  0
M  END
$$$$
