##########                                Name: HTS1710-00409985-01
##########                    Molecular_Weight:             364.379
##########                DOCK_Rotatable_Bonds:                   7
##########                       Formal_Charge:                  -2
##########                     HBond_Acceptors:                   9
##########                        HBond_Donors:                   1
##########                         Heavy_Atoms:                  25
##########                          Grid_Score:          -78.393570
##########                     Grid_vdw_energy:          -46.625187
##########                      Grid_es_energy:          -31.768379
##########           Internal_energy_repulsive:           14.050647

@<TRIPOS>MOLECULE
HTS1710-00409985-01
 41 42 1 0 0
SMALL
USER_CHARGES


@<TRIPOS>ATOM
      1 C           2.0356  -12.2349  -31.5515 C.ar    1  UNL1        0.0102
      2 C           2.1341  -13.3548  -30.6791 C.ar    1  UNL1        0.0050
      3 C           1.3830  -12.3789  -32.8106 C.ar    1  UNL1        0.1130
      4 C           2.5744  -10.9979  -31.1282 C.ar    1  UNL1       -0.0520
      5 C           2.7715  -13.2249  -29.4158 C.ar    1  UNL1        0.0371
      6 C           1.5932  -14.5956  -31.0811 C.ar    1  UNL1       -0.0521
      7 S           1.1835  -11.0156  -34.0020 S.O2    1  UNL1        0.0596
      8 C           0.8468  -13.6289  -33.1722 C.ar    1  UNL1       -0.0347
      9 C           3.2087  -10.8774  -29.8869 C.ar    1  UNL1       -0.0594
     10 C           3.3098  -11.9823  -29.0376 C.ar    1  UNL1       -0.0401
     11 N           2.8554  -14.2977  -28.5249 N.pl3   1  UNL1       -0.3355
     12 C           0.9522  -14.7273  -32.3158 C.ar    1  UNL1       -0.0593
     13 N           2.7613  -10.5067  -34.4095 N.3     1  UNL1       -0.1810
     14 O           0.5806   -9.8577  -33.3338 O.2     1  UNL1       -0.1530
     15 O           0.6512  -11.5558  -35.2571 O.2     1  UNL1       -0.1530
     16 C           4.1450  -14.6713  -27.9205 C.3     1  UNL1        0.0004
     17 C           1.6799  -14.6699  -27.7209 C.3     1  UNL1        0.0004
     18 C           3.2643  -10.6482  -35.7958 C.3     1  UNL1        0.0730
     19 C           4.8188  -10.7288  -35.8393 C.3     1  UNL1        0.0090
     20 C           2.7249   -9.4766  -36.6346 C.2     1  UNL1        0.0606
     21 C           5.4888   -9.7036  -34.9156 C.2     1  UNL1        0.0436
     22 O           1.7053   -8.9365  -36.2409 O.co2   1  UNL1       -0.5481
     23 O           3.3631   -9.1453  -37.6205 O.co2   1  UNL1       -0.5481
     24 O           5.4756   -8.5371  -35.2700 O.co2   1  UNL1       -0.5498
     25 O           5.9739  -10.1219  -33.8772 O.co2   1  UNL1       -0.5498
     26 H           2.4988  -10.1727  -31.7432 H       1  UNL1        0.0624
     27 H           1.6720  -15.4135  -30.4567 H       1  UNL1        0.0624
     28 H           0.3698  -13.7353  -34.0811 H       1  UNL1        0.0637
     29 H           3.6034   -9.9689  -29.5975 H       1  UNL1        0.0618
     30 H           3.7831  -11.8855  -28.1257 H       1  UNL1        0.0636
     31 H           0.5558  -15.6381  -32.5956 H       1  UNL1        0.0618
     32 H           3.4005  -11.0311  -33.8122 H       1  UNL1        0.1487
     33 H           4.9426  -14.3665  -28.5652 H       1  UNL1        0.0428
     34 H           4.1814  -15.7320  -27.7850 H       1  UNL1        0.0428
     35 H           4.2481  -14.1868  -26.9721 H       1  UNL1        0.0428
     36 H           0.7891  -14.3643  -28.2289 H       1  UNL1        0.0428
     37 H           1.7313  -14.1853  -26.7683 H       1  UNL1        0.0428
     38 H           1.6647  -15.7307  -27.5812 H       1  UNL1        0.0428
     39 H           2.9117  -11.5694  -36.2105 H       1  UNL1        0.0542
     40 H           5.1432  -10.5493  -36.8430 H       1  UNL1        0.0344
     41 H           5.1024  -11.7036  -35.5012 H       1  UNL1        0.0344
@<TRIPOS>BOND
     1     1     2   ar
     2     1     3   ar
     3     1     4   ar
     4     2     5   ar
     5     2     6   ar
     6     3     7    1
     7     3     8   ar
     8     4     9   ar
     9     5    10   ar
    10     5    11    1
    11     6    12   ar
    12     7    13    1
    13     7    14    2
    14     7    15    2
    15    11    16    1
    16    11    17    1
    17    13    18    1
    18    18    19    1
    19    18    20    1
    20    19    21    1
    21    20    22   ar
    22    20    23   ar
    23    21    24   ar
    24    21    25   ar
    25     8    12   ar
    26     9    10   ar
    27     4    26    1
    28     6    27    1
    29     8    28    1
    30     9    29    1
    31    10    30    1
    32    12    31    1
    33    13    32    1
    34    16    33    1
    35    16    34    1
    36    16    35    1
    37    17    36    1
    38    17    37    1
    39    17    38    1
    40    18    39    1
    41    19    40    1
    42    19    41    1
@<TRIPOS>SUBSTRUCTURE
     1 UNL1        1 TEMP              0 ****  ****    0 ROOT


