##########                                Name: HTS1710-00576945-01
##########                    Molecular_Weight:             313.331
##########                DOCK_Rotatable_Bonds:                   9
##########                       Formal_Charge:                  -2
##########                     HBond_Acceptors:                   8
##########                        HBond_Donors:                   1
##########                         Heavy_Atoms:                  21
##########                          Grid_Score:          -74.989456
##########                     Grid_vdw_energy:          -37.992340
##########                      Grid_es_energy:          -36.997120
##########           Internal_energy_repulsive:            5.595841

@<TRIPOS>MOLECULE
HTS1710-00576945-01
 36 36 1 0 0
SMALL
USER_CHARGES


@<TRIPOS>ATOM
      1 C           4.3417  -11.3097  -33.6944 C.ar    1  UNL1        0.1059
      2 C           4.5947  -10.2332  -32.8233 C.ar    1  UNL1       -0.0265
      3 C           4.0595  -12.5818  -33.1703 C.ar    1  UNL1       -0.0353
      4 S           4.3424  -11.0637  -35.4828 S.O2    1  UNL1        0.0584
      5 C           4.5684  -10.4199  -31.4239 C.ar    1  UNL1       -0.0008
      6 C           4.0326  -12.7777  -31.7822 C.ar    1  UNL1       -0.0593
      7 N           2.7195  -11.2753  -35.9631 N.3     1  UNL1       -0.1900
      8 O           5.0222  -12.2057  -36.1030 O.2     1  UNL1       -0.1531
      9 O           4.6705   -9.6704  -35.8013 O.2     1  UNL1       -0.1531
     10 C           4.2839  -11.7046  -30.9138 C.ar    1  UNL1       -0.0528
     11 C           4.8416   -9.2649  -30.4858 C.2     1  UNL1        0.0717
     12 C           1.8648  -10.0974  -36.2150 C.3     1  UNL1        0.0174
     13 O           4.1518   -9.1771  -29.4844 O.co2   1  UNL1       -0.5446
     14 O           5.7364   -8.4932  -30.7864 O.co2   1  UNL1       -0.5446
     15 C           1.3147   -9.4976  -34.8956 C.3     1  UNL1       -0.0388
     16 C          -0.0195   -8.7393  -35.0973 C.3     1  UNL1       -0.0515
     17 C          -0.1790   -7.5452  -34.1199 C.3     1  UNL1       -0.0479
     18 C          -1.2462   -6.5242  -34.5820 C.3     1  UNL1       -0.0132
     19 C          -2.6325   -7.1592  -34.7559 C.2     1  UNL1        0.0417
     20 O          -3.0025   -7.9354  -33.8921 O.co2   1  UNL1       -0.5498
     21 O          -3.2775   -6.8320  -35.7367 O.co2   1  UNL1       -0.5498
     22 H           4.8011   -9.2993  -33.2108 H       1  UNL1        0.0643
     23 H           3.8719  -13.3722  -33.8067 H       1  UNL1        0.0637
     24 H           3.8274  -13.7135  -31.3983 H       1  UNL1        0.0618
     25 H           2.2638  -11.8185  -35.2299 H       1  UNL1        0.1480
     26 H           4.2605  -11.8561  -29.8932 H       1  UNL1        0.0624
     27 H           1.0417  -10.3914  -36.8323 H       1  UNL1        0.0441
     28 H           2.4588   -9.3508  -36.6995 H       1  UNL1        0.0441
     29 H           2.0394   -8.8168  -34.5002 H       1  UNL1        0.0278
     30 H           1.1278  -10.3091  -34.2237 H       1  UNL1        0.0278
     31 H          -0.8288   -9.4215  -34.9403 H       1  UNL1        0.0266
     32 H          -0.0225   -8.3468  -36.0927 H       1  UNL1        0.0266
     33 H           0.7620   -7.0422  -34.0397 H       1  UNL1        0.0269
     34 H          -0.5012   -7.9418  -33.1798 H       1  UNL1        0.0269
     35 H          -0.9397   -6.1081  -35.5189 H       1  UNL1        0.0325
     36 H          -1.3260   -5.7728  -33.8244 H       1  UNL1        0.0325
@<TRIPOS>BOND
     1     1     2   ar
     2     1     3   ar
     3     1     4    1
     4     2     5   ar
     5     3     6   ar
     6     4     7    1
     7     4     8    2
     8     4     9    2
     9     5    10   ar
    10     5    11    1
    11     7    12    1
    12    11    13   ar
    13    11    14   ar
    14    12    15    1
    15    15    16    1
    16    16    17    1
    17    17    18    1
    18    18    19    1
    19    19    20   ar
    20    19    21   ar
    21     6    10   ar
    22     2    22    1
    23     3    23    1
    24     6    24    1
    25     7    25    1
    26    10    26    1
    27    12    27    1
    28    12    28    1
    29    15    29    1
    30    15    30    1
    31    16    31    1
    32    16    32    1
    33    17    33    1
    34    17    34    1
    35    18    35    1
    36    18    36    1
@<TRIPOS>SUBSTRUCTURE
     1 UNL1        1 TEMP              0 ****  ****    0 ROOT


