HTS1710-05266848-01
 OpenBabel03232612353D

 39 40  0  0  1  0  0  0  0  0999 V2000
   -2.2945   -5.0973  -31.6555 C   0  0  0  0  0  0  0  0  0  0  0  0
   -1.0000   -5.5015  -32.1363 O   0  0  0  0  0  0  0  0  0  0  0  0
   -0.8039   -6.1024  -33.3678 C   0  0  0  0  0  0  0  0  0  0  0  0
   -0.3489   -7.4345  -33.4864 C   0  0  0  0  0  0  0  0  0  0  0  0
   -0.1375   -8.0174  -34.7523 C   0  0  0  0  0  0  0  0  0  0  0  0
    0.3381   -9.4321  -34.8117 C   0  0  0  0  0  0  0  0  0  0  0  0
    1.3868  -10.1639  -34.2949 C   0  0  0  0  0  0  0  0  0  0  0  0
    1.5308  -11.8714  -34.6600 S   0  0  0  0  0  0  0  0  0  0  0  0
    3.0276  -11.9077  -33.6861 C   0  0  0  0  0  0  0  0  0  0  0  0
    3.8685  -13.3414  -33.4593 S   0  0  0  0  0  0  0  0  0  0  0  0
    3.3454  -10.6930  -33.0947 N   0  0  0  0  0  0  0  0  0  0  0  0
    4.5731  -10.5113  -32.2705 C   0  0  2  0  0  0  0  0  0  0  0  0
    4.3689  -11.0777  -30.8312 C   0  0  0  0  0  0  0  0  0  0  0  0
    2.9861  -10.7522  -30.2066 C   0  0  0  0  0  0  0  0  0  0  0  0
    3.0516  -10.2721  -28.7529 C   0  0  0  0  0  0  0  0  0  0  0  0
    3.6713   -9.2455  -28.5331 O   0  5  0  0  0  0  0  0  0  0  0  0
    2.4426  -10.9234  -27.9210 O   0  0  0  0  0  0  0  0  0  0  0  0
    5.0736   -9.0491  -32.3618 C   0  0  0  0  0  0  0  0  0  0  0  0
    5.3424   -8.5892  -33.4589 O   0  5  0  0  0  0  0  0  0  0  0  0
    5.1678   -8.4408  -31.3090 O   0  0  0  0  0  0  0  0  0  0  0  0
    2.4266   -9.6736  -33.3558 C   0  0  0  0  0  0  0  0  0  0  0  0
    2.4498   -8.5788  -32.8255 O   0  0  0  0  0  0  0  0  0  0  0  0
   -0.4527   -7.2675  -35.9033 C   0  0  0  0  0  0  0  0  0  0  0  0
   -0.9067   -5.9440  -35.7924 C   0  0  0  0  0  0  0  0  0  0  0  0
   -1.0724   -5.3572  -34.5306 C   0  0  0  0  0  0  0  0  0  0  0  0
   -1.5163   -4.0683  -34.4369 O   0  0  0  0  0  0  0  0  0  0  0  0
   -2.1936   -4.6591  -30.6846 H   0  0  0  0  0  0  0  0  0  0  0  0
   -2.9357   -5.9519  -31.5961 H   0  0  0  0  0  0  0  0  0  0  0  0
   -2.7170   -4.3805  -32.3282 H   0  0  0  0  0  0  0  0  0  0  0  0
   -0.1689   -7.9885  -32.6345 H   0  0  0  0  0  0  0  0  0  0  0  0
   -0.2821  -10.0168  -35.3934 H   0  0  0  0  0  0  0  0  0  0  0  0
    5.3772  -11.0963  -32.6657 H   0  0  0  0  0  0  0  0  0  0  0  0
    5.1274  -10.6664  -30.1986 H   0  0  0  0  0  0  0  0  0  0  0  0
    4.4259  -12.1432  -30.9105 H   0  0  0  0  0  0  0  0  0  0  0  0
    2.3856  -11.6371  -30.2411 H   0  0  0  0  0  0  0  0  0  0  0  0
    2.5720   -9.9479  -30.7780 H   0  0  0  0  0  0  0  0  0  0  0  0
   -0.3488   -7.6957  -36.8365 H   0  0  0  0  0  0  0  0  0  0  0  0
   -1.1193   -5.4007  -36.6436 H   0  0  0  0  0  0  0  0  0  0  0  0
   -2.1226   -3.7345  -35.0685 H   0  0  0  0  0  0  0  0  0  0  0  0
  1  2  1  0  0  0  0
  1 27  1  0  0  0  0
  1 28  1  0  0  0  0
  1 29  1  0  0  0  0
  2  3  1  0  0  0  0
  3  4  2  0  0  0  0
  3 25  1  0  0  0  0
  4  5  1  0  0  0  0
  4 30  1  0  0  0  0
  5  6  1  0  0  0  0
  5 23  2  0  0  0  0
  6  7  2  0  0  0  0
  6 31  1  0  0  0  0
  7  8  1  0  0  0  0
  7 21  1  0  0  0  0
  8  9  1  0  0  0  0
  9 10  2  0  0  0  0
  9 11  1  0  0  0  0
 11 12  1  0  0  0  0
 11 21  1  0  0  0  0
 12 13  1  0  0  0  0
 12 18  1  0  0  0  0
 12 32  1  6  0  0  0
 13 14  1  0  0  0  0
 13 33  1  0  0  0  0
 13 34  1  0  0  0  0
 14 15  1  0  0  0  0
 14 35  1  0  0  0  0
 14 36  1  0  0  0  0
 15 16  1  0  0  0  0
 15 17  2  0  0  0  0
 18 19  1  0  0  0  0
 18 20  2  0  0  0  0
 21 22  2  0  0  0  0
 23 24  1  0  0  0  0
 23 37  1  0  0  0  0
 24 25  2  0  0  0  0
 24 38  1  0  0  0  0
 25 26  1  0  0  0  0
 26 39  1  0  0  0  0
M  CHG  2  16  -1  19  -1
M  END
$$$$
