HTS1710-01164316-01
 OpenBabel03232612353D

 41 43  0  0  1  0  0  0  0  0999 V2000
    4.5131   -7.3752  -31.4899 C   0  0  0  0  0  0  0  0  0  0  0  0
    5.0054   -8.3209  -32.3734 C   0  0  0  0  0  0  0  0  0  0  0  0
    3.7679  -10.0434  -31.0253 C   0  0  0  0  0  0  0  0  0  0  0  0
    3.3661   -9.0148  -30.2226 C   0  0  0  0  0  0  0  0  0  0  0  0
    3.6205   -7.6962  -30.4949 O   0  0  0  0  0  0  0  0  0  0  0  0
    4.5176   -9.7430  -32.3282 C   0  0  1  0  0  0  0  0  0  0  0  0
    4.9292   -5.9696  -31.5892 C   0  0  0  0  0  0  0  0  0  0  0  0
    5.9082   -8.0440  -33.3811 O   0  0  0  0  0  0  0  0  0  0  0  0
    5.8805   -5.7223  -32.6699 C   0  0  0  0  0  0  0  0  0  0  0  0
    3.4926  -11.5081  -30.7210 C   0  0  0  0  0  0  0  0  0  0  0  0
    6.3169   -6.7333  -33.4979 C   0  0  0  0  0  0  0  0  0  0  0  0
    3.6396  -10.0340  -33.5447 C   0  0  0  0  0  0  0  0  0  0  0  0
    2.6584   -9.2378  -29.0654 N   0  0  0  0  0  0  0  0  0  0  0  0
    4.5262   -5.0913  -30.8460 O   0  0  0  0  0  0  0  0  0  0  0  0
    2.3830  -12.0153  -30.6623 O   0  0  0  0  0  0  0  0  0  0  0  0
    3.4632  -10.3356  -35.9452 N   0  0  0  0  0  0  0  0  0  0  0  0
    4.6449  -12.2184  -30.5164 O   0  0  0  0  0  0  0  0  0  0  0  0
    7.2989   -6.4334  -34.6021 C   0  0  0  0  0  0  0  0  0  0  0  0
    4.1931  -10.0859  -34.8392 C   0  0  0  0  0  0  0  0  0  0  0  0
    6.7808   -6.8124  -35.8744 O   0  0  0  0  0  0  0  0  0  0  0  0
    2.1390  -10.5455  -35.7997 C   0  0  0  0  0  0  0  0  0  0  0  0
    2.2584  -10.2599  -33.4027 C   0  0  0  0  0  0  0  0  0  0  0  0
    4.5788  -13.6246  -30.2197 C   0  0  0  0  0  0  0  0  0  0  0  0
    1.4954  -10.5180  -34.5512 C   0  0  0  0  0  0  0  0  0  0  0  0
    4.5179  -13.7860  -28.6899 C   0  0  0  0  0  0  0  0  0  0  0  0
    5.3707  -10.3882  -32.3557 H   0  0  0  0  0  0  0  0  0  0  0  0
    6.2352   -4.7644  -32.8172 H   0  0  0  0  0  0  0  0  0  0  0  0
    2.2454  -10.1166  -28.9025 H   0  0  0  0  0  0  0  0  0  0  0  0
    2.5644   -8.5188  -28.3995 H   0  0  0  0  0  0  0  0  0  0  0  0
    8.2041   -6.9739  -34.4196 H   0  0  0  0  0  0  0  0  0  0  0  0
    7.4825   -5.3793  -34.6131 H   0  0  0  0  0  0  0  0  0  0  0  0
    5.2069   -9.9250  -34.9462 H   0  0  0  0  0  0  0  0  0  0  0  0
    6.5946   -7.7644  -35.8770 H   0  0  0  0  0  0  0  0  0  0  0  0
    1.5738  -10.7347  -36.6422 H   0  0  0  0  0  0  0  0  0  0  0  0
    1.8148  -10.2361  -32.4712 H   0  0  0  0  0  0  0  0  0  0  0  0
    5.4479  -14.1178  -30.6025 H   0  0  0  0  0  0  0  0  0  0  0  0
    3.7133  -14.0600  -30.6740 H   0  0  0  0  0  0  0  0  0  0  0  0
    0.4795  -10.6847  -34.4803 H   0  0  0  0  0  0  0  0  0  0  0  0
    5.3887  -13.3465  -28.2500 H   0  0  0  0  0  0  0  0  0  0  0  0
    4.4795  -14.8262  -28.4422 H   0  0  0  0  0  0  0  0  0  0  0  0
    3.6432  -13.2973  -28.3143 H   0  0  0  0  0  0  0  0  0  0  0  0
  1  2  2  0  0  0  0
  1  5  1  0  0  0  0
  1  7  1  0  0  0  0
  2  6  1  0  0  0  0
  2  8  1  0  0  0  0
  3  4  2  0  0  0  0
  3 10  1  0  0  0  0
  3  6  1  0  0  0  0
  4  5  1  0  0  0  0
  4 13  1  0  0  0  0
  6 12  1  0  0  0  0
  6 26  1  6  0  0  0
  7  9  1  0  0  0  0
  7 14  2  0  0  0  0
  8 11  1  0  0  0  0
  9 11  2  0  0  0  0
  9 27  1  0  0  0  0
 10 15  2  0  0  0  0
 10 17  1  0  0  0  0
 11 18  1  0  0  0  0
 12 19  2  0  0  0  0
 12 22  1  0  0  0  0
 13 28  1  0  0  0  0
 13 29  1  0  0  0  0
 16 19  1  0  0  0  0
 16 21  2  0  0  0  0
 17 23  1  0  0  0  0
 18 20  1  0  0  0  0
 18 30  1  0  0  0  0
 18 31  1  0  0  0  0
 19 32  1  0  0  0  0
 20 33  1  0  0  0  0
 21 24  1  0  0  0  0
 21 34  1  0  0  0  0
 22 24  2  0  0  0  0
 22 35  1  0  0  0  0
 23 25  1  0  0  0  0
 23 36  1  0  0  0  0
 23 37  1  0  0  0  0
 24 38  1  0  0  0  0
 25 39  1  0  0  0  0
 25 40  1  0  0  0  0
 25 41  1  0  0  0  0
M  END
$$$$
