##########                                Name: HTS1710-00617537-01
##########                    Molecular_Weight:             319.271
##########                DOCK_Rotatable_Bonds:                   6
##########                       Formal_Charge:                  -2
##########                     HBond_Acceptors:                   8
##########                        HBond_Donors:                   1
##########                         Heavy_Atoms:                  23
##########                          Grid_Score:          -75.649109
##########                     Grid_vdw_energy:          -32.770927
##########                      Grid_es_energy:          -42.878178
##########           Internal_energy_repulsive:           12.011530

@<TRIPOS>MOLECULE
HTS1710-00617537-01
 36 37 1 0 0
SMALL
USER_CHARGES


@<TRIPOS>ATOM
      1 C           4.2793  -11.3352  -31.6087 C.3     1  UNL1        0.0801
      2 N           4.8525  -10.2432  -32.4307 N.am    1  UNL1       -0.2818
      3 C           3.1155  -12.0434  -32.2970 C.ar    1  UNL1       -0.0188
      4 C           3.8711  -10.5926  -30.3318 C.2     1  UNL1        0.0167
      5 C           4.7783   -9.0153  -31.8000 C.2     1  UNL1        0.2332
      6 C           5.4229  -10.5077  -33.7629 C.3     1  UNL1        0.0552
      7 C           2.2303  -11.3127  -33.1108 C.ar    1  UNL1       -0.0110
      8 C           2.9042  -13.4210  -32.1041 C.ar    1  UNL1       -0.0528
      9 C           4.1345   -9.2825  -30.5072 C.2     1  UNL1       -0.0358
     10 C           3.1108  -11.2719  -29.2409 C.2     1  UNL1        0.1579
     11 O           5.1643   -7.9445  -32.2372 O.2     1  UNL1       -0.2712
     12 C           4.9767   -9.4297  -34.7564 C.2     1  UNL1        0.0591
     13 C           1.1391  -11.9550  -33.7357 C.ar    1  UNL1        0.1616
     14 C           1.8233  -14.0634  -32.7233 C.ar    1  UNL1       -0.0162
     15 O           3.8467   -8.2757  -29.6508 O.co2   1  UNL1       -0.8701
     16 C           3.6515  -12.6298  -28.7829 C.3     1  UNL1       -0.0017
     17 O           2.1977  -10.7221  -28.6490 O.2     1  UNL1       -0.2926
     18 O           3.8788   -9.5628  -35.2695 O.co2   1  UNL1       -0.5482
     19 O           5.7518   -8.5146  -34.9696 O.co2   1  UNL1       -0.5482
     20 C           0.9427  -13.3350  -33.5384 C.ar    1  UNL1        0.1585
     21 O           0.2488  -11.2667  -34.5421 O.3     1  UNL1       -0.4914
     22 O          -0.1078  -13.9733  -34.1355 O.3     1  UNL1       -0.5033
     23 C           0.3511   -9.8557  -34.7984 C.3     1  UNL1        0.0790
     24 H           4.9611  -12.1393  -31.4258 H       1  UNL1        0.0602
     25 H           5.0886  -11.4643  -34.1065 H       1  UNL1        0.0526
     26 H           6.4906  -10.4959  -33.6929 H       1  UNL1        0.0526
     27 H           2.3794  -10.3013  -33.2518 H       1  UNL1        0.0659
     28 H           3.5477  -13.9606  -31.5044 H       1  UNL1        0.0622
     29 H           1.6744  -15.0745  -32.5795 H       1  UNL1        0.0655
     30 H           4.4451  -12.9351  -29.4324 H       1  UNL1        0.0309
     31 H           2.8659  -13.3555  -28.8141 H       1  UNL1        0.0309
     32 H           4.0213  -12.5473  -27.7823 H       1  UNL1        0.0309
     33 H          -0.6979  -13.4933  -34.6825 H       1  UNL1        0.2923
     34 H          -0.4446   -9.5523  -35.4462 H       1  UNL1        0.0660
     35 H           1.2908   -9.6451  -35.2649 H       1  UNL1        0.0660
     36 H           0.2834   -9.3196  -33.8749 H       1  UNL1        0.0660
@<TRIPOS>BOND
     1     1     2    1
     2     1     3    1
     3     1     4    1
     4     2     5   am
     5     2     6    1
     6     3     7   ar
     7     3     8   ar
     8     4     9    2
     9     4    10    1
    10     5    11    2
    11     6    12    1
    12     7    13   ar
    13     8    14   ar
    14     9    15    1
    15    10    16    1
    16    10    17    2
    17    12    18   ar
    18    12    19   ar
    19    13    20   ar
    20    13    21    1
    21    20    22    1
    22    21    23    1
    23     5     9    1
    24    14    20   ar
    25     1    24    1
    26     6    25    1
    27     6    26    1
    28     7    27    1
    29     8    28    1
    30    14    29    1
    31    16    30    1
    32    16    31    1
    33    16    32    1
    34    22    33    1
    35    23    34    1
    36    23    35    1
    37    23    36    1
@<TRIPOS>SUBSTRUCTURE
     1 UNL1        1 TEMP              0 ****  ****    0 ROOT


