HTS1710-03163405-01
 OpenBabel03232612363D

 40 41  0  0  0  0  0  0  0  0999 V2000
    0.1668   -7.4019  -34.8739 C   0  0  0  0  0  0  0  0  0  0  0  0
    5.1238   -9.6547  -32.5136 C   0  0  0  0  0  0  0  0  0  0  0  0
   -0.8106   -5.4064  -34.3114 N   0  0  0  0  0  0  0  0  0  0  0  0
    5.7713   -8.0847  -30.9741 N   0  0  0  0  0  0  0  0  0  0  0  0
   -0.2668   -6.0106  -33.1298 O   0  0  0  0  0  0  0  0  0  0  0  0
    5.1589   -9.1878  -30.2897 O   0  0  0  0  0  0  0  0  0  0  0  0
    4.9066  -10.3318  -33.8227 C   0  0  0  0  0  0  0  0  0  0  0  0
    0.6633   -8.5762  -35.6459 C   0  0  0  0  0  0  0  0  0  0  0  0
    0.2897   -7.1756  -33.5372 C   0  0  0  0  0  0  0  0  0  0  0  0
    4.8048  -10.0706  -31.2546 C   0  0  0  0  0  0  0  0  0  0  0  0
    5.7379   -8.3851  -32.2702 C   0  0  0  0  0  0  0  0  0  0  0  0
   -0.5439   -6.2380  -35.3175 C   0  0  0  0  0  0  0  0  0  0  0  0
    0.4866   -9.7800  -35.0231 O   0  0  0  0  0  0  0  0  0  0  0  0
    3.5924  -10.5308  -34.1467 O   0  0  0  0  0  0  0  0  0  0  0  0
    1.6338  -11.9204  -34.7009 C   0  0  0  0  0  0  0  0  0  0  0  0
    5.8222  -10.6794  -34.5502 O   0  0  0  0  0  0  0  0  0  0  0  0
    1.1892   -8.4739  -36.7428 O   0  0  0  0  0  0  0  0  0  0  0  0
    1.0515  -12.7077  -33.9746 O   0  0  0  0  0  0  0  0  0  0  0  0
    0.8765  -11.0088  -35.6717 C   0  0  0  0  0  0  0  0  0  0  0  0
    3.1657  -11.7831  -34.7230 C   0  0  0  0  0  0  0  0  0  0  0  0
    0.9618   -8.0772  -32.5315 C   0  0  0  0  0  0  0  0  0  0  0  0
    4.1388  -11.3667  -30.8614 C   0  0  0  0  0  0  0  0  0  0  0  0
   -0.9358   -5.9915  -36.7536 C   0  0  0  0  0  0  0  0  0  0  0  0
    6.2770   -7.5104  -33.3741 C   0  0  0  0  0  0  0  0  0  0  0  0
    1.5088  -10.7807  -36.5042 H   0  0  0  0  0  0  0  0  0  0  0  0
   -0.0055  -11.5170  -36.0018 H   0  0  0  0  0  0  0  0  0  0  0  0
    3.5951  -12.5878  -34.1635 H   0  0  0  0  0  0  0  0  0  0  0  0
    3.4909  -11.8120  -35.7420 H   0  0  0  0  0  0  0  0  0  0  0  0
    1.3412   -8.9455  -33.0284 H   0  0  0  0  0  0  0  0  0  0  0  0
    0.2519   -8.3734  -31.7877 H   0  0  0  0  0  0  0  0  0  0  0  0
    1.7689   -7.5518  -32.0651 H   0  0  0  0  0  0  0  0  0  0  0  0
    3.9288  -11.9406  -31.7398 H   0  0  0  0  0  0  0  0  0  0  0  0
    3.2249  -11.1561  -30.3462 H   0  0  0  0  0  0  0  0  0  0  0  0
    4.7902  -11.9222  -30.2197 H   0  0  0  0  0  0  0  0  0  0  0  0
   -0.6044   -6.8091  -37.3591 H   0  0  0  0  0  0  0  0  0  0  0  0
   -0.4808   -5.0859  -37.0971 H   0  0  0  0  0  0  0  0  0  0  0  0
   -1.9999   -5.9046  -36.8231 H   0  0  0  0  0  0  0  0  0  0  0  0
    6.1214   -7.9905  -34.3176 H   0  0  0  0  0  0  0  0  0  0  0  0
    7.3242   -7.3507  -33.2234 H   0  0  0  0  0  0  0  0  0  0  0  0
    5.7677   -6.5695  -33.3645 H   0  0  0  0  0  0  0  0  0  0  0  0
  1  8  1  0  0  0  0
  1  9  2  0  0  0  0
  1 12  1  0  0  0  0
  2  7  1  0  0  0  0
  2 10  2  0  0  0  0
  2 11  1  0  0  0  0
  3  5  1  0  0  0  0
  3 12  2  0  0  0  0
  4  6  1  0  0  0  0
  4 11  2  0  0  0  0
  5  9  1  0  0  0  0
  6 10  1  0  0  0  0
  7 14  1  0  0  0  0
  7 16  2  0  0  0  0
  8 13  1  0  0  0  0
  8 17  2  0  0  0  0
  9 21  1  0  0  0  0
 10 22  1  0  0  0  0
 11 24  1  0  0  0  0
 12 23  1  0  0  0  0
 13 19  1  0  0  0  0
 14 20  1  0  0  0  0
 15 18  2  0  0  0  0
 15 19  1  0  0  0  0
 15 20  1  0  0  0  0
 19 25  1  0  0  0  0
 19 26  1  0  0  0  0
 20 27  1  0  0  0  0
 20 28  1  0  0  0  0
 21 29  1  0  0  0  0
 21 30  1  0  0  0  0
 21 31  1  0  0  0  0
 22 32  1  0  0  0  0
 22 33  1  0  0  0  0
 22 34  1  0  0  0  0
 23 35  1  0  0  0  0
 23 36  1  0  0  0  0
 23 37  1  0  0  0  0
 24 38  1  0  0  0  0
 24 39  1  0  0  0  0
 24 40  1  0  0  0  0
M  END
$$$$
