##########                                Name: HTS1710-04762211-01
##########                    Molecular_Weight:             333.321
##########                DOCK_Rotatable_Bonds:                   6
##########                       Formal_Charge:                  -3
##########                     HBond_Acceptors:                   8
##########                        HBond_Donors:                   0
##########                         Heavy_Atoms:                  24
##########                          Grid_Score:          -91.389374
##########                     Grid_vdw_energy:          -40.201580
##########                      Grid_es_energy:          -51.187794
##########           Internal_energy_repulsive:           15.411277

@<TRIPOS>MOLECULE
HTS1710-04762211-01
 41 43 1 0 0
SMALL
USER_CHARGES


@<TRIPOS>ATOM
      1 C           3.4819  -10.7998  -34.3491 C.3     1  UNL1        0.0038
      2 N           3.5596  -10.5006  -32.9022 N.am    1  UNL1       -0.2961
      3 C           4.9419  -10.2568  -32.4296 C.3     1  UNL1        0.0269
      4 C           5.4096   -8.8516  -32.7147 C.2     1  UNL1       -0.0998
      5 C           6.0175   -8.4574  -33.8779 C.2     1  UNL1       -0.0630
      6 C           6.2680   -7.0705  -33.7085 C.2     1  UNL1       -0.0144
      7 C           6.9152   -6.1755  -34.6982 C.2     1  UNL1        0.0708
      8 O           7.0845   -5.0061  -34.4008 O.co2   1  UNL1       -0.5447
      9 O           7.2422   -6.6722  -35.7616 O.co2   1  UNL1       -0.5447
     10 C           5.7718   -6.7974  -32.4487 C.2     1  UNL1       -0.1120
     11 C           5.7807   -5.4491  -31.7752 C.3     1  UNL1       -0.0524
     12 O           5.2259   -7.8661  -31.7844 O.co2   1  UNL1       -0.7845
     13 C           2.4672  -10.3220  -32.0236 C.2     1  UNL1        0.2641
     14 O           1.3267  -10.5113  -32.4113 O.2     1  UNL1       -0.2683
     15 C           2.7420   -9.8824  -30.6108 C.2     1  UNL1        0.1160
     16 N           2.5026   -8.6559  -30.0717 N.2     1  UNL1       -0.2657
     17 C           2.8704   -8.7796  -28.8098 C.2     1  UNL1       -0.0365
     18 O           3.3494  -10.0093  -28.4230 O.co2   1  UNL1       -0.7724
     19 C           3.2463  -10.6793  -29.6117 C.2     1  UNL1       -0.0569
     20 C           3.7058  -12.1211  -29.7331 C.3     1  UNL1        0.0731
     21 C           2.6828  -13.2005  -29.3129 C.3     1  UNL1       -0.0214
     22 C           3.5494  -14.3345  -28.7316 C.3     1  UNL1       -0.0268
     23 C           4.9877  -13.7868  -28.7817 C.3     1  UNL1        0.0485
     24 O           4.8013  -12.3657  -28.8369 O.3     1  UNL1       -0.3730
     25 H           4.4707  -10.8801  -34.7503 H       1  UNL1        0.0429
     26 H           2.9572  -10.0123  -34.8485 H       1  UNL1        0.0429
     27 H           2.9618  -11.7234  -34.4950 H       1  UNL1        0.0429
     28 H           5.5989  -10.9436  -32.9211 H       1  UNL1        0.0502
     29 H           4.9520  -10.3942  -31.3685 H       1  UNL1        0.0502
     30 H           6.2438   -9.0415  -34.6980 H       1  UNL1        0.0615
     31 H           6.2381   -4.7302  -32.4223 H       1  UNL1        0.0266
     32 H           6.3348   -5.5104  -30.8619 H       1  UNL1        0.0266
     33 H           4.7756   -5.1497  -31.5632 H       1  UNL1        0.0266
     34 H           2.8017   -7.9922  -28.1463 H       1  UNL1        0.0668
     35 H           3.9219  -12.2078  -30.7774 H       1  UNL1        0.0635
     36 H           2.1247  -13.5445  -30.1585 H       1  UNL1        0.0294
     37 H           1.9632  -12.8331  -28.6114 H       1  UNL1        0.0294
     38 H           3.4612  -15.2200  -29.3257 H       1  UNL1        0.0288
     39 H           3.2521  -14.6056  -27.7401 H       1  UNL1        0.0288
     40 H           5.5016  -14.1396  -29.6515 H       1  UNL1        0.0560
     41 H           5.5821  -14.0978  -27.9480 H       1  UNL1        0.0560
@<TRIPOS>BOND
     1     1     2    1
     2     2     3    1
     3     3     4    1
     4     4     5    2
     5     5     6    1
     6     6     7    1
     7     7     8   ar
     8     7     9   ar
     9     6    10    2
    10    10    11    1
    11    10    12    1
    12     4    12    1
    13     2    13   am
    14    13    14    2
    15    13    15    1
    16    15    16    1
    17    16    17    2
    18    17    18    1
    19    18    19    1
    20    15    19    2
    21    19    20    1
    22    20    21    1
    23    21    22    1
    24    22    23    1
    25    23    24    1
    26    20    24    1
    27     1    25    1
    28     1    26    1
    29     1    27    1
    30     3    28    1
    31     3    29    1
    32     5    30    1
    33    11    31    1
    34    11    32    1
    35    11    33    1
    36    17    34    1
    37    20    35    1
    38    21    36    1
    39    21    37    1
    40    22    38    1
    41    22    39    1
    42    23    40    1
    43    23    41    1
@<TRIPOS>SUBSTRUCTURE
     1 UNL1        1 TEMP              0 ****  ****    0 ROOT


