##########                                Name: HTS1710-04762088-01
##########                    Molecular_Weight:             333.344
##########                DOCK_Rotatable_Bonds:                   8
##########                       Formal_Charge:                  -1
##########                     HBond_Acceptors:                   8
##########                        HBond_Donors:                   1
##########                         Heavy_Atoms:                  24
##########                          Grid_Score:          -79.490036
##########                     Grid_vdw_energy:          -44.823750
##########                      Grid_es_energy:          -34.666283
##########           Internal_energy_repulsive:           15.376560

@<TRIPOS>MOLECULE
HTS1710-04762088-01
 43 45 1 0 0
SMALL
USER_CHARGES


@<TRIPOS>ATOM
      1 C           3.1545   -9.4072  -37.4833 C.3     1  UNL1        0.0035
      2 N           3.2369  -10.2795  -36.2925 N.am    1  UNL1       -0.3013
      3 C           4.5978  -10.5409  -35.7764 C.3     1  UNL1        0.0265
      4 C           5.0891   -9.4532  -34.8494 C.2     1  UNL1       -0.0998
      5 C           4.9363   -9.4564  -33.4863 C.2     1  UNL1       -0.0630
      6 C           5.5802   -8.2719  -33.0435 C.2     1  UNL1       -0.0144
      7 C           5.7090   -7.8182  -31.6375 C.2     1  UNL1        0.0708
      8 O           5.6132   -8.6456  -30.7480 O.co2   1  UNL1       -0.5447
      9 O           5.9043   -6.6298  -31.4557 O.co2   1  UNL1       -0.5447
     10 C           6.0437   -7.6923  -34.2087 C.2     1  UNL1       -0.1120
     11 C           6.8182   -6.4020  -34.2973 C.3     1  UNL1       -0.0524
     12 O           5.7678   -8.3825  -35.3612 O.co2   1  UNL1       -0.7845
     13 C           2.1263  -10.8967  -35.7127 C.2     1  UNL1        0.2160
     14 O           0.9890  -10.6406  -36.0742 O.2     1  UNL1       -0.2756
     15 C           2.4047  -11.8470  -34.5264 C.3     1  UNL1        0.0327
     16 C           1.1291  -12.2517  -33.7483 C.3     1  UNL1        0.0392
     17 C           1.4557  -13.0995  -32.5437 C.ar    1  UNL1        0.2767
     18 N           1.7915  -12.6426  -31.3701 N.ar    1  UNL1       -0.1495
     19 C           2.0341  -13.7929  -30.6918 C.ar    1  UNL1        0.3275
     20 N           1.8652  -14.9236  -31.3621 N.ar    1  UNL1       -0.0095
     21 O           1.4638  -14.4569  -32.6614 O.2     1  UNL1       -0.2186
     22 C           2.4510  -13.6914  -29.2763 C.3     1  UNL1        0.0677
     23 C           3.2932  -14.7893  -28.6797 C.3     1  UNL1       -0.0381
     24 C           1.8720  -14.6030  -28.2247 C.3     1  UNL1       -0.0381
     25 H           4.1329   -9.0554  -37.7361 H       1  UNL1        0.0429
     26 H           2.5192   -8.5728  -37.2709 H       1  UNL1        0.0429
     27 H           2.7516   -9.9620  -38.3048 H       1  UNL1        0.0429
     28 H           5.2702  -10.6134  -36.6056 H       1  UNL1        0.0502
     29 H           4.5614  -11.4513  -35.2157 H       1  UNL1        0.0502
     30 H           4.4576  -10.1652  -32.9089 H       1  UNL1        0.0615
     31 H           6.9463   -5.9947  -33.3162 H       1  UNL1        0.0266
     32 H           6.2810   -5.7046  -34.9056 H       1  UNL1        0.0266
     33 H           7.7770   -6.5908  -34.7332 H       1  UNL1        0.0266
     34 H           3.0733  -11.3573  -33.8496 H       1  UNL1        0.0363
     35 H           2.8239  -12.7437  -34.9325 H       1  UNL1        0.0363
     36 H           0.4873  -12.8073  -34.3996 H       1  UNL1        0.0367
     37 H           0.6490  -11.3584  -33.4072 H       1  UNL1        0.0367
     38 H           1.9845  -15.8494  -31.0494 H       1  UNL1        0.5168
     39 H           2.5320  -12.6295  -29.3797 H       1  UNL1        0.0427
     40 H           4.1015  -14.5459  -28.0222 H       1  UNL1        0.0274
     41 H           3.8598  -15.6066  -29.0742 H       1  UNL1        0.0274
     42 H           1.6693  -14.2270  -27.2436 H       1  UNL1        0.0274
     43 H           1.0093  -15.2329  -28.1617 H       1  UNL1        0.0274
@<TRIPOS>BOND
     1     1     2    1
     2     2     3    1
     3     3     4    1
     4     4     5    2
     5     5     6    1
     6     6     7    1
     7     7     8   ar
     8     7     9   ar
     9     6    10    2
    10    10    11    1
    11    10    12    1
    12     4    12    1
    13     2    13   am
    14    13    14    2
    15    13    15    1
    16    15    16    1
    17    16    17    1
    18    17    18   ar
    19    18    19   ar
    20    19    20   ar
    21    20    21   ar
    22    17    21   ar
    23    19    22    1
    24    22    23    1
    25    23    24    1
    26    22    24    1
    27     1    25    1
    28     1    26    1
    29     1    27    1
    30     3    28    1
    31     3    29    1
    32     5    30    1
    33    11    31    1
    34    11    32    1
    35    11    33    1
    36    15    34    1
    37    15    35    1
    38    16    36    1
    39    16    37    1
    40    20    38    1
    41    22    39    1
    42    23    40    1
    43    23    41    1
    44    24    42    1
    45    24    43    1
@<TRIPOS>SUBSTRUCTURE
     1 UNL1        1 TEMP              0 ****  ****    0 ROOT


