##########                                Name: HTS1710-02594451-01
##########                    Molecular_Weight:             365.387
##########                DOCK_Rotatable_Bonds:                   7
##########                       Formal_Charge:                  -2
##########                     HBond_Acceptors:                   9
##########                        HBond_Donors:                   0
##########                         Heavy_Atoms:                  24
##########                          Grid_Score:          -76.801331
##########                     Grid_vdw_energy:          -35.954514
##########                      Grid_es_energy:          -40.846821
##########           Internal_energy_repulsive:           10.880214

@<TRIPOS>MOLECULE
HTS1710-02594451-01
 35 36 1 0 0
SMALL
USER_CHARGES


@<TRIPOS>ATOM
      1 N           3.0632  -10.6625  -32.5359 N.am    1  UNL1       -0.2463
      2 C           3.0699  -11.9076  -33.1550 C.2     1  UNL1        0.1211
      3 C           2.2371   -9.7219  -33.1515 C.2     1  UNL1        0.2589
      4 C           1.6087  -10.3154  -34.3577 C.2     1  UNL1        0.0772
      5 S           1.9785  -12.0150  -34.5652 S.3     1  UNL1       -0.0610
      6 C           3.8821  -10.3228  -31.3392 C.3     1  UNL1        0.0765
      7 C           3.0339  -10.3210  -30.0328 C.3     1  UNL1        0.0111
      8 C           0.7582   -9.6845  -35.2419 C.2     1  UNL1       -0.0356
      9 C           4.6883   -9.0262  -31.5856 C.2     1  UNL1        0.0629
     10 S           4.0228  -13.2176  -32.7208 S.2     1  UNL1       -0.0272
     11 C           3.8911  -10.0533  -28.7869 C.2     1  UNL1        0.0439
     12 O           2.0379   -8.6029  -32.7138 O.2     1  UNL1       -0.2690
     13 C           0.1958   -8.3126  -35.4301 C.ar    1  UNL1       -0.0204
     14 O           5.5315   -9.0271  -32.4673 O.co2   1  UNL1       -0.5479
     15 O           4.7464  -10.8768  -28.5086 O.co2   1  UNL1       -0.5497
     16 C          -0.4616   -7.7049  -34.3391 C.ar    1  UNL1       -0.0128
     17 O           4.4212   -8.0706  -30.8766 O.co2   1  UNL1       -0.5479
     18 O           3.6466   -9.0448  -28.1484 O.co2   1  UNL1       -0.5497
     19 C          -1.0242   -6.4157  -34.4608 C.ar    1  UNL1        0.1207
     20 O          -1.6605   -5.7842  -33.4079 O.3     1  UNL1       -0.4951
     21 C          -0.3325   -6.3507  -36.7886 C.ar    1  UNL1       -0.0577
     22 C           0.2256   -7.6320  -36.6645 C.ar    1  UNL1       -0.0543
     23 C          -0.9467   -5.7393  -35.6872 C.ar    1  UNL1       -0.0199
     24 C          -1.9397   -6.4334  -32.1561 C.3     1  UNL1        0.0788
     25 H           4.6060  -11.0951  -31.1824 H       1  UNL1        0.0570
     26 H           2.5608  -11.2749  -29.9274 H       1  UNL1        0.0347
     27 H           2.3116   -9.5354  -30.1104 H       1  UNL1        0.0347
     28 H           0.4193  -10.3344  -35.9684 H       1  UNL1        0.0636
     29 H          -0.5318   -8.2090  -33.4414 H       1  UNL1        0.0660
     30 H          -0.2907   -5.8569  -37.6938 H       1  UNL1        0.0619
     31 H           0.6624   -8.0806  -37.4848 H       1  UNL1        0.0623
     32 H          -1.3422   -4.7906  -35.7786 H       1  UNL1        0.0654
     33 H          -2.4353   -5.7475  -31.5014 H       1  UNL1        0.0660
     34 H          -1.0223   -6.7543  -31.7085 H       1  UNL1        0.0660
     35 H          -2.5692   -7.2817  -32.3269 H       1  UNL1        0.0660
@<TRIPOS>BOND
     1     1     2    1
     2     1     3   am
     3     1     6    1
     4     2     5    1
     5     2    10    2
     6     3     4    1
     7     3    12    2
     8     4     5    1
     9     4     8    2
    10     6     7    1
    11     6     9    1
    12     7    11    1
    13     8    13    1
    14     9    14   ar
    15     9    17   ar
    16    11    15   ar
    17    11    18   ar
    18    13    16   ar
    19    13    22   ar
    20    16    19   ar
    21    19    20    1
    22    19    23   ar
    23    20    24    1
    24    21    22   ar
    25    21    23   ar
    26     6    25    1
    27     7    26    1
    28     7    27    1
    29     8    28    1
    30    16    29    1
    31    21    30    1
    32    22    31    1
    33    23    32    1
    34    24    33    1
    35    24    34    1
    36    24    35    1
@<TRIPOS>SUBSTRUCTURE
     1 UNL1        1 TEMP              0 ****  ****    0 ROOT


