HTS1710-01225926-01
 OpenBabel03232612353D

 50 51  0  0  1  0  0  0  0  0999 V2000
   -2.0457   -6.7122  -35.4316 C   0  0  1  0  0  0  0  0  0  0  0  0
    4.1660  -10.9675  -30.1590 C   0  0  1  0  0  0  0  0  0  0  0  0
   -1.4263   -7.7904  -34.4663 C   0  0  1  0  0  0  0  0  0  0  0  0
    3.1625  -11.4685  -31.2518 C   0  0  1  0  0  0  0  0  0  0  0  0
    4.1377   -9.4360  -29.9777 C   0  0  0  0  0  0  0  0  0  0  0  0
   -3.5492   -6.4373  -35.1814 C   0  0  0  0  0  0  0  0  0  0  0  0
   -0.1623   -8.4555  -35.0587 C   0  0  0  0  0  0  0  0  0  0  0  0
    3.4360  -10.8603  -32.6408 C   0  0  0  0  0  0  0  0  0  0  0  0
    3.2802   -8.9629  -29.2507 O   0  5  0  0  0  0  0  0  0  0  0  0
   -3.8651   -5.4693  -34.5109 O   0  5  0  0  0  0  0  0  0  0  0  0
    4.5478  -10.6295  -33.0916 O   0  0  0  0  0  0  0  0  0  0  0  0
    0.6549   -7.8861  -35.7657 O   0  0  0  0  0  0  0  0  0  0  0  0
   -4.3338   -7.2456  -35.6458 O   0  0  0  0  0  0  0  0  0  0  0  0
    4.9595   -8.7917  -30.6060 O   0  0  0  0  0  0  0  0  0  0  0  0
   -0.0810   -9.7739  -34.6944 O   0  0  0  0  0  0  0  0  0  0  0  0
    2.2674  -10.5973  -33.3013 O   0  0  0  0  0  0  0  0  0  0  0  0
    3.9084  -11.6581  -28.7933 C   0  0  0  0  0  0  0  0  0  0  0  0
   -1.2423   -5.3776  -35.4219 C   0  0  0  0  0  0  0  0  0  0  0  0
   -1.1143   -7.2136  -33.0490 C   0  0  0  0  0  0  0  0  0  0  0  0
    3.1594  -13.0202  -31.3481 C   0  0  0  0  0  0  0  0  0  0  0  0
    2.2997  -10.3154  -34.7112 C   0  0  0  0  0  0  0  0  0  0  0  0
    0.9055  -10.6430  -35.2889 C   0  0  0  0  0  0  0  0  0  0  0  0
    2.9116  -13.6925  -29.9779 C   0  0  0  0  0  0  0  0  0  0  0  0
    3.9111  -13.1994  -28.9083 C   0  0  0  0  0  0  0  0  0  0  0  0
   -0.2956   -5.9046  -33.1070 C   0  0  0  0  0  0  0  0  0  0  0  0
   -0.9829   -4.8435  -33.9945 C   0  0  0  0  0  0  0  0  0  0  0  0
   -1.9690   -7.1478  -36.4059 H   0  0  0  0  0  0  0  0  0  0  0  0
    5.1394  -11.2364  -30.5125 H   0  0  0  0  0  0  0  0  0  0  0  0
   -2.1788   -8.5434  -34.3593 H   0  0  0  0  0  0  0  0  0  0  0  0
    2.1962  -11.1332  -30.9376 H   0  0  0  0  0  0  0  0  0  0  0  0
    2.9561  -11.3420  -28.4216 H   0  0  0  0  0  0  0  0  0  0  0  0
    4.6987  -11.3770  -28.1290 H   0  0  0  0  0  0  0  0  0  0  0  0
   -1.7959   -4.6417  -35.9667 H   0  0  0  0  0  0  0  0  0  0  0  0
   -0.2905   -5.5719  -35.8706 H   0  0  0  0  0  0  0  0  0  0  0  0
   -0.5572   -7.9420  -32.4977 H   0  0  0  0  0  0  0  0  0  0  0  0
   -2.0484   -6.9908  -32.5771 H   0  0  0  0  0  0  0  0  0  0  0  0
    4.1076  -13.3435  -31.7236 H   0  0  0  0  0  0  0  0  0  0  0  0
    2.3621  -13.3060  -32.0020 H   0  0  0  0  0  0  0  0  0  0  0  0
    3.0426  -10.9211  -35.1868 H   0  0  0  0  0  0  0  0  0  0  0  0
    2.5433   -9.2875  -34.8818 H   0  0  0  0  0  0  0  0  0  0  0  0
    0.6602  -11.6616  -35.0714 H   0  0  0  0  0  0  0  0  0  0  0  0
    0.9165  -10.4958  -36.3487 H   0  0  0  0  0  0  0  0  0  0  0  0
    3.0164  -14.7517  -30.0878 H   0  0  0  0  0  0  0  0  0  0  0  0
    1.9246  -13.4353  -29.6547 H   0  0  0  0  0  0  0  0  0  0  0  0
    4.8945  -13.5258  -29.1754 H   0  0  0  0  0  0  0  0  0  0  0  0
    3.6168  -13.6056  -27.9632 H   0  0  0  0  0  0  0  0  0  0  0  0
   -0.1932   -5.5148  -32.1158 H   0  0  0  0  0  0  0  0  0  0  0  0
    0.6615   -6.1267  -33.5308 H   0  0  0  0  0  0  0  0  0  0  0  0
   -0.3527   -3.9809  -34.0557 H   0  0  0  0  0  0  0  0  0  0  0  0
   -1.9257   -4.5972  -33.5527 H   0  0  0  0  0  0  0  0  0  0  0  0
  1  3  1  0  0  0  0
  1  6  1  0  0  0  0
  1 18  1  0  0  0  0
  1 27  1  6  0  0  0
  2  4  1  0  0  0  0
  2  5  1  0  0  0  0
  2 17  1  0  0  0  0
  2 28  1  6  0  0  0
  3  7  1  0  0  0  0
  3 19  1  0  0  0  0
  3 29  1  1  0  0  0
  4  8  1  0  0  0  0
  4 20  1  0  0  0  0
  4 30  1  1  0  0  0
  5  9  1  0  0  0  0
  5 14  2  0  0  0  0
  6 10  1  0  0  0  0
  6 13  2  0  0  0  0
  7 12  2  0  0  0  0
  7 15  1  0  0  0  0
  8 16  1  0  0  0  0
  8 11  2  0  0  0  0
 15 22  1  0  0  0  0
 16 21  1  0  0  0  0
 17 24  1  0  0  0  0
 17 31  1  0  0  0  0
 17 32  1  0  0  0  0
 18 26  1  0  0  0  0
 18 33  1  0  0  0  0
 18 34  1  0  0  0  0
 19 25  1  0  0  0  0
 19 35  1  0  0  0  0
 19 36  1  0  0  0  0
 20 23  1  0  0  0  0
 20 37  1  0  0  0  0
 20 38  1  0  0  0  0
 21 22  1  0  0  0  0
 21 39  1  0  0  0  0
 21 40  1  0  0  0  0
 22 41  1  0  0  0  0
 22 42  1  0  0  0  0
 23 24  1  0  0  0  0
 23 43  1  0  0  0  0
 23 44  1  0  0  0  0
 24 45  1  0  0  0  0
 24 46  1  0  0  0  0
 25 26  1  0  0  0  0
 25 47  1  0  0  0  0
 25 48  1  0  0  0  0
 26 49  1  0  0  0  0
 26 50  1  0  0  0  0
M  CHG  2   9  -1  10  -1
M  END
$$$$
