##########                                Name: HTS1710-00188715-01
##########                    Molecular_Weight:             406.373
##########                DOCK_Rotatable_Bonds:                   9
##########                       Formal_Charge:                  -2
##########                     HBond_Acceptors:                  11
##########                        HBond_Donors:                   2
##########                         Heavy_Atoms:                  28
##########                          Grid_Score:          -78.728943
##########                     Grid_vdw_energy:          -46.901421
##########                      Grid_es_energy:          -31.827524
##########           Internal_energy_repulsive:            8.230021

@<TRIPOS>MOLECULE
HTS1710-00188715-01
 42 43 1 0 0
SMALL
USER_CHARGES


@<TRIPOS>ATOM
      1 S           4.3913  -11.2422  -35.7966 S.O2    1  UNL1        0.0759
      2 C           4.5415  -10.6878  -34.0799 C.ar    1  UNL1        0.1505
      3 C           5.1316   -9.4386  -33.8142 C.ar    1  UNL1       -0.0226
      4 N           2.7231  -11.2707  -36.1310 N.pl3   1  UNL1       -0.2161
      5 C          -1.0185   -6.9690  -35.6713 C.2     1  UNL1        0.2444
      6 C           5.2860   -8.9760  -32.4899 C.ar    1  UNL1       -0.0006
      7 C           5.9236   -7.6312  -32.2110 C.2     1  UNL1        0.0717
      8 O           4.8454  -10.1315  -36.6402 O.2     1  UNL1       -0.1499
      9 O           4.8745  -12.6137  -35.9806 O.2     1  UNL1       -0.1499
     10 N          -1.9173   -6.9582  -34.6127 N.am    1  UNL1       -0.3061
     11 C           4.0953  -11.4971  -33.0121 C.ar    1  UNL1        0.1466
     12 C          -0.0376   -8.1078  -35.8061 C.ar    1  UNL1        0.0368
     13 C          -4.1160   -6.0971  -35.3235 C.2     1  UNL1        0.0588
     14 O          -1.0418   -6.0527  -36.4772 O.2     1  UNL1       -0.2702
     15 O           6.6633   -7.1692  -33.0624 O.co2   1  UNL1       -0.5446
     16 C           4.8366   -9.7920  -31.4323 C.ar    1  UNL1       -0.0493
     17 O          -4.3741   -7.2438  -35.6461 O.co2   1  UNL1       -0.5482
     18 C           4.2485  -11.0394  -31.6881 C.ar    1  UNL1       -0.0174
     19 C           1.8049  -10.2480  -36.0176 C.ar    1  UNL1        0.0481
     20 C          -2.8942   -5.8788  -34.4275 C.3     1  UNL1        0.0515
     21 C           0.9385   -8.1171  -36.8245 C.ar    1  UNL1       -0.0478
     22 C          -0.0871   -9.1906  -34.9044 C.ar    1  UNL1       -0.0478
     23 O           5.6578   -7.0908  -31.1503 O.co2   1  UNL1       -0.5446
     24 O          -4.7447   -5.1079  -35.6582 O.co2   1  UNL1       -0.5482
     25 C           1.8482   -9.1818  -36.9307 C.ar    1  UNL1       -0.0386
     26 C           0.8230  -10.2529  -35.0102 C.ar    1  UNL1       -0.0386
     27 O           3.5301  -12.7295  -33.2890 O.3     1  UNL1       -0.4931
     28 C           4.0613  -13.9715  -32.7968 C.3     1  UNL1        0.0789
     29 H           5.4563   -8.8522  -34.5988 H       1  UNL1        0.0645
     30 H           2.3660  -12.1318  -36.4476 H       1  UNL1        0.1737
     31 H          -1.8985   -7.6993  -33.9650 H       1  UNL1        0.1494
     32 H           4.9415   -9.4680  -30.4581 H       1  UNL1        0.0625
     33 H           3.9261  -11.6254  -30.9022 H       1  UNL1        0.0655
     34 H          -3.2073   -5.8599  -33.4044 H       1  UNL1        0.0523
     35 H          -2.4348   -4.9491  -34.6916 H       1  UNL1        0.0523
     36 H           0.9843   -7.3355  -37.4967 H       1  UNL1        0.0626
     37 H          -0.8004   -9.2019  -34.1586 H       1  UNL1        0.0626
     38 H           2.5531   -9.1806  -37.6845 H       1  UNL1        0.0637
     39 H           0.7720  -11.0412  -34.3462 H       1  UNL1        0.0637
     40 H           3.4543  -14.7815  -33.1438 H       1  UNL1        0.0660
     41 H           4.0626  -13.9598  -31.7269 H       1  UNL1        0.0660
     42 H           5.0622  -14.0976  -33.1533 H       1  UNL1        0.0660
@<TRIPOS>BOND
     1     1     2    1
     2     2     3   ar
     3     1     4    1
     4     5    12    1
     5     3     6   ar
     6     6     7    1
     7     1     8    2
     8     1     9    2
     9     5    10   am
    10     2    11   ar
    11    12    22   ar
    12    13    20    1
    13     5    14    2
    14     7    15   ar
    15    16    18   ar
    16    13    17   ar
    17    11    18   ar
    18     4    19    1
    19    10    20    1
    20    21    25   ar
    21    22    26   ar
    22     7    23   ar
    23    13    24   ar
    24    19    25   ar
    25    19    26   ar
    26    11    27    1
    27    27    28    1
    28    12    21   ar
    29     6    16   ar
    30     3    29    1
    31     4    30    1
    32    10    31    1
    33    16    32    1
    34    18    33    1
    35    20    34    1
    36    20    35    1
    37    21    36    1
    38    22    37    1
    39    25    38    1
    40    26    39    1
    41    28    40    1
    42    28    41    1
    43    28    42    1
@<TRIPOS>SUBSTRUCTURE
     1 UNL1        1 TEMP              0 ****  ****    0 ROOT


