##########                                Name: HTS1710-00278354-01
##########                    Molecular_Weight:             285.276
##########                DOCK_Rotatable_Bonds:                   4
##########                       Formal_Charge:                  -3
##########                     HBond_Acceptors:                   5
##########                        HBond_Donors:                   0
##########                         Heavy_Atoms:                  21
##########                          Grid_Score:          -81.737564
##########                     Grid_vdw_energy:          -32.862633
##########                      Grid_es_energy:          -48.874935
##########           Internal_energy_repulsive:            4.764630

@<TRIPOS>MOLECULE
HTS1710-00278354-01
 34 35 1 0 0
SMALL
USER_CHARGES


@<TRIPOS>ATOM
      1 C           5.1325   -8.5392  -32.5914 C.2     1  UNL1       -0.0516
      2 C           4.7149   -9.1755  -33.7427 C.2     1  UNL1       -0.0516
      3 C           3.7637  -10.2589  -33.4085 C.2     1  UNL1        0.1819
      4 C           3.6340  -10.2240  -31.9297 C.2     1  UNL1        0.0594
      5 C           4.5036   -9.1403  -31.4119 C.2     1  UNL1        0.1819
      6 C           2.8548  -11.0571  -31.1416 C.2     1  UNL1       -0.0937
      7 C           1.9930  -12.1525  -31.6215 C.2     1  UNL1       -0.0682
      8 C           1.9159  -13.3912  -31.0670 C.2     1  UNL1       -0.0551
      9 C           2.6489  -13.9307  -29.8882 C.ar    1  UNL1       -0.0250
     10 C           1.9219  -14.3339  -28.7507 C.ar    1  UNL1       -0.0546
     11 C           2.5836  -14.8453  -27.6228 C.ar    1  UNL1       -0.0612
     12 C           3.9810  -14.9619  -27.6205 C.ar    1  UNL1       -0.0617
     13 C           4.7163  -14.5638  -28.7476 C.ar    1  UNL1       -0.0612
     14 C           4.0551  -14.0501  -29.8751 C.ar    1  UNL1       -0.0546
     15 O           4.6739   -8.8012  -30.2526 O.2     1  UNL1       -0.2878
     16 O           3.2166  -11.0228  -34.1845 O.2     1  UNL1       -0.2878
     17 O           2.8488  -10.8732  -29.7987 O.co2   1  UNL1       -0.8731
     18 O           6.0127   -7.4874  -32.4788 O.co2   1  UNL1       -0.8018
     19 O           5.1380   -8.8444  -35.0095 O.co2   1  UNL1       -0.8018
     20 C           6.6567   -6.8686  -33.6055 C.3     1  UNL1       -0.1135
     21 C           4.6942   -9.5338  -36.1898 C.3     1  UNL1       -0.1135
     22 H           1.4003  -11.9637  -32.4450 H       1  UNL1        0.0612
     23 H           1.2616  -14.0454  -31.5242 H       1  UNL1        0.0623
     24 H           0.8930  -14.2526  -28.7464 H       1  UNL1        0.0623
     25 H           2.0408  -15.1358  -26.7945 H       1  UNL1        0.0618
     26 H           4.4673  -15.3394  -26.7922 H       1  UNL1        0.0618
     27 H           5.7448  -14.6488  -28.7479 H       1  UNL1        0.0618
     28 H           4.6016  -13.7577  -30.7002 H       1  UNL1        0.0623
     29 H           7.2913   -6.0779  -33.2635 H       1  UNL1        0.0102
     30 H           5.9150   -6.4705  -34.2659 H       1  UNL1        0.0102
     31 H           7.2431   -7.5971  -34.1254 H       1  UNL1        0.0102
     32 H           5.1572   -9.1000  -37.0515 H       1  UNL1        0.0102
     33 H           3.6311   -9.4476  -36.2747 H       1  UNL1        0.0102
     34 H           4.9640  -10.5670  -36.1221 H       1  UNL1        0.0102
@<TRIPOS>BOND
     1     1     2    2
     2     2     3    1
     3     3     4    1
     4     4     5    1
     5     1     5    1
     6     4     6    2
     7     6     7    1
     8     7     8    2
     9     8     9    1
    10     9    10   ar
    11    10    11   ar
    12    11    12   ar
    13    12    13   ar
    14    13    14   ar
    15     9    14   ar
    16     5    15    2
    17     3    16    2
    18     6    17    1
    19     1    18    1
    20     2    19    1
    21    18    20    1
    22    19    21    1
    23     7    22    1
    24     8    23    1
    25    10    24    1
    26    11    25    1
    27    12    26    1
    28    13    27    1
    29    14    28    1
    30    20    29    1
    31    20    30    1
    32    20    31    1
    33    21    32    1
    34    21    33    1
    35    21    34    1
@<TRIPOS>SUBSTRUCTURE
     1 UNL1        1 TEMP              0 ****  ****    0 ROOT


