##########                                Name: HTS1710-02912306-01
##########                    Molecular_Weight:             354.703
##########                DOCK_Rotatable_Bonds:                  10
##########                       Formal_Charge:                  -2
##########                     HBond_Acceptors:                  10
##########                        HBond_Donors:                   1
##########                         Heavy_Atoms:                  24
##########                          Grid_Score:          -75.969803
##########                     Grid_vdw_energy:          -39.435783
##########                      Grid_es_energy:          -36.534016
##########           Internal_energy_repulsive:           15.646141

@<TRIPOS>MOLECULE
HTS1710-02912306-01
 35 35 1 0 0
SMALL
USER_CHARGES


@<TRIPOS>ATOM
      1 C           5.0469  -13.8037  -28.4569 C.2     1  UNL1        0.2086
      2 N           5.1297  -13.7423  -29.7572 N.2     1  UNL1       -0.1718
      3 C           6.3099  -13.9095  -27.6097 C.2     1  UNL1        0.3628
      4 C           2.1786  -11.2353  -32.6871 C.ar    1  UNL1       -0.0003
      5 C           3.8650  -10.0002  -31.3946 C.ar    1  UNL1       -0.0003
      6 C           3.6301  -13.7719  -27.9145 C.2     1  UNL1        0.2042
      7 C           1.0450  -11.2512  -33.6894 C.2     1  UNL1        0.0717
      8 C           4.5211   -8.6950  -31.0045 C.2     1  UNL1        0.0717
      9 C           2.8050  -10.0229  -32.3261 C.ar    1  UNL1       -0.0439
     10 N           4.0935  -13.6464  -30.6346 N.pl3   1  UNL1       -0.2369
     11 C           3.6886  -12.4330  -31.1769 C.ar    1  UNL1        0.0495
     12 C           4.3043  -11.2131  -30.8285 C.ar    1  UNL1       -0.0303
     13 C           2.6292  -12.4359  -32.0987 C.ar    1  UNL1       -0.0303
     14 O           7.1910  -13.0656  -27.5402 O.2     1  UNL1       -0.2430
     15 O           0.6493  -12.3383  -34.0755 O.co2   1  UNL1       -0.5446
     16 O           5.7224   -8.7076  -30.7942 O.co2   1  UNL1       -0.5446
     17 O           3.2594  -12.9543  -27.0897 O.2     1  UNL1       -0.2889
     18 O           0.5958  -10.1772  -34.0509 O.co2   1  UNL1       -0.5446
     19 O           3.8086   -7.7092  -30.9225 O.co2   1  UNL1       -0.5446
     20 O           6.3616  -15.0830  -26.9104 O.3     1  UNL1       -0.4603
     21 C           2.6318  -14.8233  -28.4347 C.3     1  UNL1        0.0873
     22 CL          1.3001  -15.1343  -27.2532 Cl      1  UNL1       -0.1169
     23 C           5.4431  -16.1446  -27.2298 C.3     1  UNL1        0.0900
     24 C           5.8678  -17.4013  -26.4480 C.3     1  UNL1       -0.0306
     25 H           2.4827   -9.1390  -32.7501 H       1  UNL1        0.0630
     26 H           3.6137  -14.4659  -30.8941 H       1  UNL1        0.1744
     27 H           5.0840  -11.2088  -30.1524 H       1  UNL1        0.0643
     28 H           2.1743  -13.3277  -32.3490 H       1  UNL1        0.0643
     29 H           3.1560  -15.7388  -28.6134 H       1  UNL1        0.0512
     30 H           2.1937  -14.4463  -29.3351 H       1  UNL1        0.0512
     31 H           5.4724  -16.3448  -28.2805 H       1  UNL1        0.0695
     32 H           4.4460  -15.8630  -26.9625 H       1  UNL1        0.0695
     33 H           6.8653  -17.6727  -26.7237 H       1  UNL1        0.0262
     34 H           5.2024  -18.2068  -26.6788 H       1  UNL1        0.0262
     35 H           5.8307  -17.1978  -25.3982 H       1  UNL1        0.0262
@<TRIPOS>BOND
     1     1     2    2
     2     1     3    1
     3     1     6    1
     4     2    10    1
     5     3    14    2
     6     3    20    1
     7     4     7    1
     8     4     9   ar
     9     4    13   ar
    10     5     8    1
    11     5     9   ar
    12     5    12   ar
    13     6    17    2
    14     6    21    1
    15     7    15   ar
    16     7    18   ar
    17     8    16   ar
    18     8    19   ar
    19    10    11    1
    20    11    12   ar
    21    11    13   ar
    22    20    23    1
    23    21    22    1
    24    23    24    1
    25     9    25    1
    26    10    26    1
    27    12    27    1
    28    13    28    1
    29    21    29    1
    30    21    30    1
    31    23    31    1
    32    23    32    1
    33    24    33    1
    34    24    34    1
    35    24    35    1
@<TRIPOS>SUBSTRUCTURE
     1 UNL1        1 TEMP              0 ****  ****    0 ROOT


