##########                                Name: HTS1710-00881936-01
##########                    Molecular_Weight:             404.219
##########                DOCK_Rotatable_Bonds:                   6
##########                       Formal_Charge:                  -2
##########                     HBond_Acceptors:                   9
##########                        HBond_Donors:                   0
##########                         Heavy_Atoms:                  22
##########                          Grid_Score:          -76.098602
##########                     Grid_vdw_energy:          -38.065334
##########                      Grid_es_energy:          -38.033264
##########           Internal_energy_repulsive:           12.788038

@<TRIPOS>MOLECULE
HTS1710-00881936-01
 28 29 1 0 0
SMALL
USER_CHARGES


@<TRIPOS>ATOM
      1 N           2.5217  -10.7200  -32.6251 N.am    1  UNL1       -0.2463
      2 C           1.6376  -11.2832  -33.5389 C.2     1  UNL1        0.1211
      3 C           2.8362  -11.5472  -31.5444 C.2     1  UNL1        0.2590
      4 C           2.1439  -12.8618  -31.6897 C.2     1  UNL1        0.0801
      5 S           1.1450  -12.9458  -33.1264 S.3     1  UNL1       -0.0609
      6 C           3.0586   -9.3334  -32.7360 C.3     1  UNL1        0.0765
      7 C           2.1694  -13.9767  -30.8676 C.2     1  UNL1       -0.0005
      8 C           4.6186   -9.3265  -32.7095 C.3     1  UNL1        0.0111
      9 C           2.8996  -14.2089  -29.6111 C.ar    1  UNL1        0.1305
     10 C           4.4671  -14.2109  -28.1558 C.ar    1  UNL1        0.1706
     11 C           2.3704   -8.4074  -31.7061 C.2     1  UNL1        0.0629
     12 O           4.1841  -13.7720  -29.4206 O.2     1  UNL1       -0.4488
     13 S           0.9490  -10.5078  -34.8565 S.2     1  UNL1       -0.0272
     14 C           5.2252   -8.3954  -31.6452 C.2     1  UNL1        0.0439
     15 C           3.4402  -14.8910  -27.5623 C.ar    1  UNL1       -0.0087
     16 C           2.4056  -14.8914  -28.5260 C.ar    1  UNL1       -0.0153
     17 O           3.5615  -11.1993  -30.6310 O.2     1  UNL1       -0.2690
     18 O           1.9765   -8.8904  -30.6574 O.co2   1  UNL1       -0.5479
     19 O           5.4535   -7.2417  -31.9666 O.co2   1  UNL1       -0.5497
     20 BR          6.1467  -13.8741  -27.3716 Br      1  UNL1       -0.0085
     21 O           2.2684   -7.2320  -32.0132 O.co2   1  UNL1       -0.5479
     22 O           5.4434   -8.8755  -30.5464 O.co2   1  UNL1       -0.5497
     23 H           2.8126   -8.9209  -33.6921 H       1  UNL1        0.0570
     24 H           1.5863  -14.7665  -31.1856 H       1  UNL1        0.0667
     25 H           4.9695   -9.0121  -33.6702 H       1  UNL1        0.0347
     26 H           4.9272  -10.3206  -32.4615 H       1  UNL1        0.0347
     27 H           3.4239  -15.3110  -26.6198 H       1  UNL1        0.0661
     28 H           1.4702  -15.3174  -28.4332 H       1  UNL1        0.0656
@<TRIPOS>BOND
     1     1     2    1
     2     1     3   am
     3     3     4    1
     4     2     5    1
     5     1     6    1
     6     4     7    2
     7     6     8    1
     8     7     9    1
     9    10    12   ar
    10     6    11    1
    11     9    12   ar
    12     2    13    2
    13     8    14    1
    14    15    16   ar
    15     9    16   ar
    16     3    17    2
    17    11    18   ar
    18    14    19   ar
    19    10    20    1
    20    11    21   ar
    21    14    22   ar
    22     4     5    1
    23    10    15   ar
    24     6    23    1
    25     7    24    1
    26     8    25    1
    27     8    26    1
    28    15    27    1
    29    16    28    1
@<TRIPOS>SUBSTRUCTURE
     1 UNL1        1 TEMP              0 ****  ****    0 ROOT


