HTS1710-02600951-01
 OpenBabel03232612343D

 44 44  0  0  0  0  0  0  0  0999 V2000
    3.7000  -10.2633  -29.8985 C   0  0  0  0  0  0  0  0  0  0  0  0
    3.2520   -8.9275  -29.3514 C   0  0  0  0  0  0  0  0  0  0  0  0
    4.5782  -12.5242  -29.5346 C   0  0  0  0  0  0  0  0  0  0  0  0
    4.0467  -11.7686  -31.8037 C   0  0  0  0  0  0  0  0  0  0  0  0
    3.9954  -12.0920  -33.1589 N   0  0  0  0  0  0  0  0  0  0  0  0
    5.0356  -13.5707  -28.7329 N   0  0  0  0  0  0  0  0  0  0  0  0
    4.3703  -14.7686  -28.4801 C   0  0  0  0  0  0  0  0  0  0  0  0
    4.4672  -11.3101  -34.2111 C   0  0  0  0  0  0  0  0  0  0  0  0
    4.1692  -11.2707  -29.0307 C   0  0  0  0  0  0  0  0  0  0  0  0
    3.6406  -10.5202  -31.2839 C   0  0  0  0  0  0  0  0  0  0  0  0
    4.4797  -12.7673  -30.9160 C   0  0  0  0  0  0  0  0  0  0  0  0
    7.2723  -17.0591  -25.4291 C   0  0  0  0  0  0  0  0  0  0  0  0
    1.3619   -9.9248  -35.0955 C   0  0  0  0  0  0  0  0  0  0  0  0
    3.3647   -8.7436  -28.1514 O   0  5  0  0  0  0  0  0  0  0  0  0
    5.0364  -10.2500  -34.0098 O   0  0  0  0  0  0  0  0  0  0  0  0
    3.2647  -14.9923  -28.9418 O   0  0  0  0  0  0  0  0  0  0  0  0
    6.1461  -17.3795  -25.0884 O   0  5  0  0  0  0  0  0  0  0  0  0
    2.2429   -9.1627  -34.7375 O   0  5  0  0  0  0  0  0  0  0  0  0
    2.8066   -8.1156  -30.1448 O   0  0  0  0  0  0  0  0  0  0  0  0
    0.1668   -9.6880  -35.0692 O   0  0  0  0  0  0  0  0  0  0  0  0
    8.2789  -17.1849  -24.7545 O   0  0  0  0  0  0  0  0  0  0  0  0
    4.3092  -11.8594  -35.6317 C   0  0  0  0  0  0  0  0  0  0  0  0
    5.0588  -15.7855  -27.5645 C   0  0  0  0  0  0  0  0  0  0  0  0
    1.7937  -11.2886  -35.6474 C   0  0  0  0  0  0  0  0  0  0  0  0
    7.4398  -16.4675  -26.8346 C   0  0  0  0  0  0  0  0  0  0  0  0
    6.4589  -15.3013  -27.1130 C   0  0  0  0  0  0  0  0  0  0  0  0
    3.1423  -11.1983  -36.4041 C   0  0  0  0  0  0  0  0  0  0  0  0
    3.5865  -12.9559  -33.3951 H   0  0  0  0  0  0  0  0  0  0  0  0
    5.9137  -13.4510  -28.3043 H   0  0  0  0  0  0  0  0  0  0  0  0
    4.2141  -11.0896  -28.0157 H   0  0  0  0  0  0  0  0  0  0  0  0
    3.2966   -9.7880  -31.9246 H   0  0  0  0  0  0  0  0  0  0  0  0
    4.7304  -13.6979  -31.2849 H   0  0  0  0  0  0  0  0  0  0  0  0
    4.1272  -12.9123  -35.5728 H   0  0  0  0  0  0  0  0  0  0  0  0
    5.2119  -11.6418  -36.1634 H   0  0  0  0  0  0  0  0  0  0  0  0
    5.1662  -16.7096  -28.0931 H   0  0  0  0  0  0  0  0  0  0  0  0
    4.4531  -15.9087  -26.6911 H   0  0  0  0  0  0  0  0  0  0  0  0
    1.0417  -11.6445  -36.3202 H   0  0  0  0  0  0  0  0  0  0  0  0
    1.9178  -11.9586  -34.8226 H   0  0  0  0  0  0  0  0  0  0  0  0
    7.2660  -17.2401  -27.5542 H   0  0  0  0  0  0  0  0  0  0  0  0
    8.4337  -16.0777  -26.9048 H   0  0  0  0  0  0  0  0  0  0  0  0
    6.3488  -14.7266  -26.2172 H   0  0  0  0  0  0  0  0  0  0  0  0
    6.8702  -14.7197  -27.9114 H   0  0  0  0  0  0  0  0  0  0  0  0
    3.0373  -11.6881  -37.3496 H   0  0  0  0  0  0  0  0  0  0  0  0
    3.3786  -10.1610  -36.5183 H   0  0  0  0  0  0  0  0  0  0  0  0
  1  2  1  0  0  0  0
  1  9  2  0  0  0  0
  1 10  1  0  0  0  0
  2 14  1  0  0  0  0
  2 19  2  0  0  0  0
  3  6  1  0  0  0  0
  3  9  1  0  0  0  0
  3 11  2  0  0  0  0
  4  5  1  0  0  0  0
  4 10  2  0  0  0  0
  4 11  1  0  0  0  0
  5  8  1  0  0  0  0
  5 28  1  0  0  0  0
  6  7  1  0  0  0  0
  6 29  1  0  0  0  0
  7 16  2  0  0  0  0
  7 23  1  0  0  0  0
  8 15  2  0  0  0  0
  8 22  1  0  0  0  0
  9 30  1  0  0  0  0
 10 31  1  0  0  0  0
 11 32  1  0  0  0  0
 12 17  1  0  0  0  0
 12 21  2  0  0  0  0
 12 25  1  0  0  0  0
 13 18  1  0  0  0  0
 13 20  2  0  0  0  0
 13 24  1  0  0  0  0
 22 27  1  0  0  0  0
 22 33  1  0  0  0  0
 22 34  1  0  0  0  0
 23 26  1  0  0  0  0
 23 35  1  0  0  0  0
 23 36  1  0  0  0  0
 24 27  1  0  0  0  0
 24 37  1  0  0  0  0
 24 38  1  0  0  0  0
 25 26  1  0  0  0  0
 25 39  1  0  0  0  0
 25 40  1  0  0  0  0
 26 41  1  0  0  0  0
 26 42  1  0  0  0  0
 27 43  1  0  0  0  0
 27 44  1  0  0  0  0
M  CHG  3  14  -1  17  -1  18  -1
M  END
$$$$
