HTS1710-00145145-01
 OpenBabel03232612343D

 44 45  0  0  1  0  0  0  0  0999 V2000
    2.5424  -11.6530  -32.6493 C   0  0  0  0  0  0  0  0  0  0  0  0
    3.0439  -12.0332  -31.4541 N   0  0  0  0  0  0  0  0  0  0  0  0
    1.4249  -12.3099  -33.2253 C   0  0  0  0  0  0  0  0  0  0  0  0
    0.8553  -11.9012  -34.5423 N   0  0  0  0  0  0  0  0  0  0  0  0
    3.0485  -13.3730  -29.5274 N   0  0  0  0  0  0  0  0  0  0  0  0
    2.4867  -13.0564  -30.7744 C   0  0  0  0  0  0  0  0  0  0  0  0
    3.1618  -10.6121  -33.3187 N   0  0  0  0  0  0  0  0  0  0  0  0
    2.9519  -12.5134  -28.3190 C   0  0  2  0  0  0  0  0  0  0  0  0
    4.5972  -10.6236  -33.6851 C   0  0  2  0  0  0  0  0  0  0  0  0
    3.7039  -11.1786  -28.4914 C   0  0  0  0  0  0  0  0  0  0  0  0
    5.2774   -9.2846  -33.3217 C   0  0  0  0  0  0  0  0  0  0  0  0
    0.8530  -13.3935  -32.5323 C   0  0  0  0  0  0  0  0  0  0  0  0
    0.6518  -10.7058  -34.7366 O   0  5  0  0  0  0  0  0  0  0  0  0
    0.4185  -12.7909  -35.2670 O   0  0  0  0  0  0  0  0  0  0  0  0
    1.3881  -13.7711  -31.2940 C   0  0  0  0  0  0  0  0  0  0  0  0
    4.8369  -11.2164  -28.9419 O   0  5  0  0  0  0  0  0  0  0  0  0
    5.6587   -8.5932  -34.2503 O   0  5  0  0  0  0  0  0  0  0  0  0
    4.7566  -11.0097  -35.1896 C   0  0  0  0  0  0  0  0  0  0  0  0
    3.4995  -14.7262  -29.1562 C   0  0  0  0  0  0  0  0  0  0  0  0
    3.1037  -10.1655  -28.1806 O   0  0  0  0  0  0  0  0  0  0  0  0
    5.4295   -9.0191  -32.1405 O   0  0  0  0  0  0  0  0  0  0  0  0
    3.5188  -13.3475  -27.1507 C   0  0  0  0  0  0  0  0  0  0  0  0
    3.4177  -14.8026  -27.6231 C   0  0  0  0  0  0  0  0  0  0  0  0
    3.8587  -10.1300  -36.0945 C   0  0  0  0  0  0  0  0  0  0  0  0
    4.5050  -12.5160  -35.4675 C   0  0  0  0  0  0  0  0  0  0  0  0
    1.4534  -11.2711  -34.0792 H   0  0  0  0  0  0  0  0  0  0  0  0
    2.6223   -9.8258  -33.5633 H   0  0  0  0  0  0  0  0  0  0  0  0
    1.9358  -12.2338  -28.1336 H   0  0  0  0  0  0  0  0  0  0  0  0
    5.1056  -11.3707  -33.1120 H   0  0  0  0  0  0  0  0  0  0  0  0
    0.0495  -13.9034  -32.9315 H   0  0  0  0  0  0  0  0  0  0  0  0
    0.9835  -14.5621  -30.7690 H   0  0  0  0  0  0  0  0  0  0  0  0
    5.7813  -10.8212  -35.4328 H   0  0  0  0  0  0  0  0  0  0  0  0
    4.5065  -14.8834  -29.4819 H   0  0  0  0  0  0  0  0  0  0  0  0
    2.8928  -15.4781  -29.6161 H   0  0  0  0  0  0  0  0  0  0  0  0
    2.9384  -13.1978  -26.2643 H   0  0  0  0  0  0  0  0  0  0  0  0
    4.5232  -13.0707  -26.9069 H   0  0  0  0  0  0  0  0  0  0  0  0
    4.2268  -15.3828  -27.2313 H   0  0  0  0  0  0  0  0  0  0  0  0
    2.5161  -15.2729  -27.2904 H   0  0  0  0  0  0  0  0  0  0  0  0
    2.8304  -10.3102  -35.8599 H   0  0  0  0  0  0  0  0  0  0  0  0
    4.0386  -10.3740  -37.1207 H   0  0  0  0  0  0  0  0  0  0  0  0
    4.0869   -9.0979  -35.9282 H   0  0  0  0  0  0  0  0  0  0  0  0
    3.4877  -12.7559  -35.2383 H   0  0  0  0  0  0  0  0  0  0  0  0
    5.1567  -13.1051  -34.8566 H   0  0  0  0  0  0  0  0  0  0  0  0
    4.6971  -12.7253  -36.4991 H   0  0  0  0  0  0  0  0  0  0  0  0
  1  2  2  0  0  0  0
  1  3  1  0  0  0  0
  1  7  1  0  0  0  0
  2  6  1  0  0  0  0
  3  4  1  0  0  0  0
  3 12  2  0  0  0  0
  4 13  1  0  0  0  0
  4 14  2  0  0  0  0
  4 26  1  0  0  0  0
  5  6  1  0  0  0  0
  5  8  1  0  0  0  0
  5 19  1  0  0  0  0
  6 15  2  0  0  0  0
  7  9  1  0  0  0  0
  7 27  1  0  0  0  0
  8 10  1  0  0  0  0
  8 22  1  0  0  0  0
  8 28  1  1  0  0  0
  9 11  1  0  0  0  0
  9 18  1  0  0  0  0
  9 29  1  1  0  0  0
 10 16  1  0  0  0  0
 10 20  2  0  0  0  0
 11 17  1  0  0  0  0
 11 21  2  0  0  0  0
 12 15  1  0  0  0  0
 12 30  1  0  0  0  0
 15 31  1  0  0  0  0
 18 24  1  0  0  0  0
 18 25  1  0  0  0  0
 18 32  1  0  0  0  0
 19 23  1  0  0  0  0
 19 33  1  0  0  0  0
 19 34  1  0  0  0  0
 22 23  1  0  0  0  0
 22 35  1  0  0  0  0
 22 36  1  0  0  0  0
 23 37  1  0  0  0  0
 23 38  1  0  0  0  0
 24 39  1  0  0  0  0
 24 40  1  0  0  0  0
 24 41  1  0  0  0  0
 25 42  1  0  0  0  0
 25 43  1  0  0  0  0
 25 44  1  0  0  0  0
M  CHG  3  13  -1  16  -1  17  -1
M  END
$$$$
