HTS1710-00246505-01
 OpenBabel03232612363D

 36 37  0  0  1  0  0  0  0  0999 V2000
    2.9812  -10.3963  -30.5175 N   0  0  0  0  0  0  0  0  0  0  0  0
    2.4628  -11.5707  -31.1758 C   0  0  0  0  0  0  0  0  0  0  0  0
    3.3555  -10.4788  -29.1732 C   0  0  0  0  0  0  0  0  0  0  0  0
    1.9036  -11.5367  -32.4765 C   0  0  0  0  0  0  0  0  0  0  0  0
    3.1330   -9.1086  -31.2599 C   0  0  2  0  0  0  0  0  0  0  0  0
    4.6019   -8.6249  -31.2654 C   0  0  0  0  0  0  0  0  0  0  0  0
    2.9615  -12.8735  -29.1964 O   0  0  0  0  0  0  0  0  0  0  0  0
    2.4486  -12.7968  -30.4721 C   0  0  0  0  0  0  0  0  0  0  0  0
    1.3631  -12.6967  -33.0674 C   0  0  0  0  0  0  0  0  0  0  0  0
    0.8024  -12.6279  -34.4660 C   0  0  0  0  0  0  0  0  0  0  0  0
    3.8699  -11.8548  -28.7504 C   0  0  0  0  0  0  0  0  0  0  0  0
    2.8459   -9.8444  -36.3794 C   0  0  0  0  0  0  0  0  0  0  0  0
    3.3409   -9.5347  -28.4023 O   0  0  0  0  0  0  0  0  0  0  0  0
    5.3667   -9.0826  -30.4327 O   0  5  0  0  0  0  0  0  0  0  0  0
    1.3625  -13.9045  -32.3424 C   0  0  0  0  0  0  0  0  0  0  0  0
    1.8954  -13.9493  -31.0480 C   0  0  0  0  0  0  0  0  0  0  0  0
    1.9686   -9.3516  -37.0667 O   0  5  0  0  0  0  0  0  0  0  0  0
    0.1458  -13.5542  -34.9135 O   0  0  0  0  0  0  0  0  0  0  0  0
    1.0895  -11.3614  -35.2958 C   0  0  0  0  0  0  0  0  0  0  0  0
    2.5607  -11.2212  -35.7660 C   0  0  0  0  0  0  0  0  0  0  0  0
    4.8999   -7.7937  -32.1076 O   0  0  0  0  0  0  0  0  0  0  0  0
    3.9382   -9.3492  -36.1662 O   0  0  0  0  0  0  0  0  0  0  0  0
    2.1178   -8.0452  -30.7630 C   0  0  0  0  0  0  0  0  0  0  0  0
    1.8917  -10.6476  -33.0005 H   0  0  0  0  0  0  0  0  0  0  0  0
    2.8881   -9.2805  -32.2872 H   0  0  0  0  0  0  0  0  0  0  0  0
    4.8329  -12.0228  -29.1854 H   0  0  0  0  0  0  0  0  0  0  0  0
    3.9440  -11.8910  -27.6836 H   0  0  0  0  0  0  0  0  0  0  0  0
    0.9682  -14.7588  -32.7663 H   0  0  0  0  0  0  0  0  0  0  0  0
    1.8808  -14.8336  -30.5162 H   0  0  0  0  0  0  0  0  0  0  0  0
    0.8468  -10.5079  -34.6980 H   0  0  0  0  0  0  0  0  0  0  0  0
    0.4927  -11.4354  -36.1809 H   0  0  0  0  0  0  0  0  0  0  0  0
    3.2061  -11.3637  -34.9245 H   0  0  0  0  0  0  0  0  0  0  0  0
    2.7353  -11.9590  -36.5210 H   0  0  0  0  0  0  0  0  0  0  0  0
    2.3075   -7.8247  -29.7333 H   0  0  0  0  0  0  0  0  0  0  0  0
    1.1230   -8.4250  -30.8690 H   0  0  0  0  0  0  0  0  0  0  0  0
    2.2227   -7.1530  -31.3441 H   0  0  0  0  0  0  0  0  0  0  0  0
  1  2  1  0  0  0  0
  1  3  1  0  0  0  0
  1  5  1  0  0  0  0
  2  4  2  0  0  0  0
  2  8  1  0  0  0  0
  3 11  1  0  0  0  0
  3 13  2  0  0  0  0
  4  9  1  0  0  0  0
  4 24  1  0  0  0  0
  5  6  1  0  0  0  0
  5 23  1  0  0  0  0
  5 25  1  6  0  0  0
  6 14  1  0  0  0  0
  6 21  2  0  0  0  0
  7 11  1  0  0  0  0
  7  8  1  0  0  0  0
  8 16  2  0  0  0  0
  9 10  1  0  0  0  0
  9 15  2  0  0  0  0
 10 18  2  0  0  0  0
 10 19  1  0  0  0  0
 11 26  1  0  0  0  0
 11 27  1  0  0  0  0
 12 20  1  0  0  0  0
 12 17  1  0  0  0  0
 12 22  2  0  0  0  0
 15 16  1  0  0  0  0
 15 28  1  0  0  0  0
 16 29  1  0  0  0  0
 19 20  1  0  0  0  0
 19 30  1  0  0  0  0
 19 31  1  0  0  0  0
 20 32  1  0  0  0  0
 20 33  1  0  0  0  0
 23 34  1  0  0  0  0
 23 35  1  0  0  0  0
 23 36  1  0  0  0  0
M  CHG  2  14  -1  17  -1
M  END
$$$$
