HTS1710-01246899-01
 OpenBabel03232612353D

 53 55  0  0  1  0  0  0  0  0999 V2000
   -0.1085   -8.0840  -33.4376 N   0  0  0  0  0  0  0  0  0  0  0  0
    0.6075   -8.5625  -32.3303 C   0  0  0  0  0  0  0  0  0  0  0  0
   -0.9278   -6.1400  -35.3108 N   0  0  0  0  0  0  0  0  0  0  0  0
    0.3511   -8.1662  -34.7979 C   0  0  0  0  0  0  0  0  0  0  0  0
    1.8305   -9.1970  -32.5249 N   0  0  0  0  0  0  0  0  0  0  0  0
    3.8088   -8.7840  -31.0933 C   0  0  0  0  0  0  0  0  0  0  0  0
   -0.0662   -7.1827  -35.7246 C   0  0  0  0  0  0  0  0  0  0  0  0
   -1.5751   -6.2212  -34.1921 C   0  0  0  0  0  0  0  0  0  0  0  0
    4.4991   -8.2305  -32.1626 N   0  0  0  0  0  0  0  0  0  0  0  0
    5.6389   -7.3191  -31.9975 C   0  0  1  0  0  0  0  0  0  0  0  0
    6.5493   -7.3975  -33.2553 C   0  0  0  0  0  0  0  0  0  0  0  0
    2.6344   -9.7229  -31.4121 C   0  0  2  0  0  0  0  0  0  0  0  0
   -1.4168   -7.4037  -33.2476 C   0  0  0  0  0  0  0  0  0  0  0  0
    5.0986   -5.9017  -31.7370 C   0  0  0  0  0  0  0  0  0  0  0  0
    6.1179   -8.4816  -34.2538 C   0  0  0  0  0  0  0  0  0  0  0  0
    0.1933   -8.4519  -31.1879 O   0  0  0  0  0  0  0  0  0  0  0  0
    4.1521   -8.5354  -29.9477 O   0  0  0  0  0  0  0  0  0  0  0  0
    3.1281  -11.1523  -31.7476 C   0  0  0  0  0  0  0  0  0  0  0  0
    3.9099   -5.7047  -31.9302 O   0  5  0  0  0  0  0  0  0  0  0  0
    6.1633   -9.6401  -33.8779 O   0  5  0  0  0  0  0  0  0  0  0  0
   -2.4072   -5.2469  -33.8025 O   0  0  0  0  0  0  0  0  0  0  0  0
    5.8913   -5.0736  -31.3225 O   0  0  0  0  0  0  0  0  0  0  0  0
    5.7465   -8.1104  -35.3535 O   0  0  0  0  0  0  0  0  0  0  0  0
    2.7919  -12.1493  -30.6434 C   0  0  0  0  0  0  0  0  0  0  0  0
    1.1542   -9.2363  -35.2539 C   0  0  0  0  0  0  0  0  0  0  0  0
    0.3706   -7.2375  -37.0600 C   0  0  0  0  0  0  0  0  0  0  0  0
    1.8177  -13.1441  -30.8537 C   0  0  0  0  0  0  0  0  0  0  0  0
    3.4890  -12.1120  -29.4217 C   0  0  0  0  0  0  0  0  0  0  0  0
    1.5799   -9.2886  -36.5899 C   0  0  0  0  0  0  0  0  0  0  0  0
    1.1973   -8.2849  -37.4911 C   0  0  0  0  0  0  0  0  0  0  0  0
    3.2149  -13.0581  -28.4208 C   0  0  0  0  0  0  0  0  0  0  0  0
    1.5458  -14.0908  -29.8537 C   0  0  0  0  0  0  0  0  0  0  0  0
    2.2443  -14.0490  -28.6373 C   0  0  0  0  0  0  0  0  0  0  0  0
    2.1706   -9.2977  -33.4433 H   0  0  0  0  0  0  0  0  0  0  0  0
    4.2109   -8.4599  -33.0756 H   0  0  0  0  0  0  0  0  0  0  0  0
    6.2425   -7.5977  -31.1590 H   0  0  0  0  0  0  0  0  0  0  0  0
    7.5493   -7.6075  -32.9376 H   0  0  0  0  0  0  0  0  0  0  0  0
    6.4741   -6.4564  -33.7588 H   0  0  0  0  0  0  0  0  0  0  0  0
    2.0218   -9.7752  -30.5365 H   0  0  0  0  0  0  0  0  0  0  0  0
   -2.2032   -8.1048  -33.4341 H   0  0  0  0  0  0  0  0  0  0  0  0
   -1.4614   -7.0381  -32.2429 H   0  0  0  0  0  0  0  0  0  0  0  0
    4.1897  -11.1286  -31.8795 H   0  0  0  0  0  0  0  0  0  0  0  0
    2.6328  -11.4708  -32.6410 H   0  0  0  0  0  0  0  0  0  0  0  0
   -2.7670   -5.2562  -32.9373 H   0  0  0  0  0  0  0  0  0  0  0  0
    1.4296   -9.9849  -34.5990 H   0  0  0  0  0  0  0  0  0  0  0  0
    0.0815   -6.5038  -37.7258 H   0  0  0  0  0  0  0  0  0  0  0  0
    1.3016  -13.1771  -31.7468 H   0  0  0  0  0  0  0  0  0  0  0  0
    4.2047  -11.3862  -29.2605 H   0  0  0  0  0  0  0  0  0  0  0  0
    2.1760  -10.0679  -36.9100 H   0  0  0  0  0  0  0  0  0  0  0  0
    1.5236   -8.3169  -38.4697 H   0  0  0  0  0  0  0  0  0  0  0  0
    3.7273  -13.0250  -27.5255 H   0  0  0  0  0  0  0  0  0  0  0  0
    0.8315  -14.8185  -30.0132 H   0  0  0  0  0  0  0  0  0  0  0  0
    2.0446  -14.7458  -27.9027 H   0  0  0  0  0  0  0  0  0  0  0  0
  1  2  1  0  0  0  0
  1  4  1  0  0  0  0
  1 13  1  0  0  0  0
  2  5  1  0  0  0  0
  2 16  2  0  0  0  0
  3  8  2  0  0  0  0
  3  7  1  0  0  0  0
  4  7  2  0  0  0  0
  4 25  1  0  0  0  0
  5 12  1  0  0  0  0
  5 34  1  0  0  0  0
  6 12  1  0  0  0  0
  6  9  1  0  0  0  0
  6 17  2  0  0  0  0
  7 26  1  0  0  0  0
  8 13  1  0  0  0  0
  8 21  1  0  0  0  0
  9 10  1  0  0  0  0
  9 35  1  0  0  0  0
 10 11  1  0  0  0  0
 10 14  1  0  0  0  0
 10 36  1  1  0  0  0
 11 15  1  0  0  0  0
 11 37  1  0  0  0  0
 11 38  1  0  0  0  0
 12 18  1  0  0  0  0
 12 39  1  1  0  0  0
 13 40  1  0  0  0  0
 13 41  1  0  0  0  0
 14 19  1  0  0  0  0
 14 22  2  0  0  0  0
 15 20  1  0  0  0  0
 15 23  2  0  0  0  0
 18 24  1  0  0  0  0
 18 42  1  0  0  0  0
 18 43  1  0  0  0  0
 21 44  1  0  0  0  0
 24 27  2  0  0  0  0
 24 28  1  0  0  0  0
 25 29  2  0  0  0  0
 25 45  1  0  0  0  0
 26 30  2  0  0  0  0
 26 46  1  0  0  0  0
 27 32  1  0  0  0  0
 27 47  1  0  0  0  0
 28 31  2  0  0  0  0
 28 48  1  0  0  0  0
 29 30  1  0  0  0  0
 29 49  1  0  0  0  0
 30 50  1  0  0  0  0
 31 33  1  0  0  0  0
 31 51  1  0  0  0  0
 32 33  2  0  0  0  0
 32 52  1  0  0  0  0
 33 53  1  0  0  0  0
M  CHG  2  19  -1  20  -1
M  END
$$$$
