##########                                Name: HTS1710-00145477-01
##########                    Molecular_Weight:             378.189
##########                DOCK_Rotatable_Bonds:                   4
##########                       Formal_Charge:                  -2
##########                     HBond_Acceptors:                  10
##########                        HBond_Donors:                   0
##########                         Heavy_Atoms:                  23
##########                          Grid_Score:          -75.033463
##########                     Grid_vdw_energy:          -39.054478
##########                      Grid_es_energy:          -35.978989
##########           Internal_energy_repulsive:           16.547808

@<TRIPOS>MOLECULE
HTS1710-00145477-01
 32 34 1 0 0
SMALL
USER_CHARGES


@<TRIPOS>ATOM
      1 S           1.8862   -9.4328  -33.2963 S.O2    1  UNL1        0.0628
      2 N           3.3051   -9.4432  -34.2407 N.3     1  UNL1       -0.1675
      3 C           5.4283  -10.4476  -34.8016 C.3     1  UNL1       -0.0142
      4 C           2.1156  -10.8638  -32.2077 C.ar    1  UNL1        0.1244
      5 C           4.5780   -9.9349  -33.6487 C.3     1  UNL1        0.0741
      6 C           4.5772  -10.4298  -36.0312 C.3     1  UNL1       -0.0216
      7 C           5.1075  -11.7359  -35.5085 C.3     1  UNL1       -0.0437
      8 C           2.9258  -11.7386  -30.0635 C.ar    1  UNL1        0.0176
      9 C           3.2059   -9.9226  -35.6342 C.3     1  UNL1        0.0244
     10 C           2.7375  -10.6686  -30.9591 C.ar    1  UNL1       -0.0237
     11 C           1.6695  -12.1598  -32.5592 C.ar    1  UNL1        0.0687
     12 C           2.4875  -13.0292  -30.4326 C.ar    1  UNL1        0.0513
     13 C           5.3141   -8.8555  -32.8404 C.2     1  UNL1        0.0608
     14 C           3.5972  -11.4715  -28.7457 C.2     1  UNL1        0.0731
     15 C           1.8618  -13.2300  -31.6718 C.ar    1  UNL1       -0.0225
     16 O           1.9622   -8.2364  -32.4529 O.2     1  UNL1       -0.1528
     17 O           0.7541   -9.6530  -34.2023 O.2     1  UNL1       -0.1528
     18 O           5.8205   -7.9438  -33.4697 O.co2   1  UNL1       -0.5481
     19 O           3.1488  -12.0503  -27.7716 O.co2   1  UNL1       -0.5446
     20 CL          0.8485  -12.4928  -34.0778 Cl      1  UNL1       -0.0815
     21 CL          2.7333  -14.4186  -29.3862 Cl      1  UNL1       -0.0828
     22 O           5.3397   -8.9757  -31.6270 O.co2   1  UNL1       -0.5481
     23 O           4.5511  -10.7120  -28.7415 O.co2   1  UNL1       -0.5446
     24 H           6.3660  -10.0926  -34.4281 H       1  UNL1        0.0323
     25 H           4.3740  -10.7138  -32.9441 H       1  UNL1        0.0544
     26 H           4.5655  -10.0487  -37.0309 H       1  UNL1        0.0317
     27 H           5.8720  -12.2574  -36.0455 H       1  UNL1        0.0272
     28 H           4.6731  -12.6708  -35.2217 H       1  UNL1        0.0272
     29 H           2.4889  -10.7142  -35.6994 H       1  UNL1        0.0447
     30 H           2.8884   -9.1352  -36.2854 H       1  UNL1        0.0447
     31 H           3.0609   -9.7246  -30.6960 H       1  UNL1        0.0644
     32 H           1.5394  -14.1747  -31.9339 H       1  UNL1        0.0647
@<TRIPOS>BOND
     1     1     2    1
     2     3     5    1
     3     1     4    1
     4     2     5    1
     5     6     9    1
     6     6     7    1
     7     8    10   ar
     8     2     9    1
     9     4    10   ar
    10     4    11   ar
    11    12    15   ar
    12     5    13    1
    13     8    14    1
    14    11    15   ar
    15     1    16    2
    16     1    17    2
    17    13    18   ar
    18    14    19   ar
    19    11    20    1
    20    12    21    1
    21    13    22   ar
    22    14    23   ar
    23     3     6    1
    24     8    12   ar
    25     3     7    1
    26     3    24    1
    27     5    25    1
    28     6    26    1
    29     7    27    1
    30     7    28    1
    31     9    29    1
    32     9    30    1
    33    10    31    1
    34    15    32    1
@<TRIPOS>SUBSTRUCTURE
     1 UNL1        1 TEMP              0 ****  ****    0 ROOT


