HTS1710-02161666-01
 OpenBabel03232612363D

 37 38  0  0  0  0  0  0  0  0999 V2000
    2.3765  -10.4173  -35.8497 S   0  0  0  0  0  0  0  0  0  0  0  0
    3.1124  -10.3312  -34.2070 C   0  0  0  0  0  0  0  0  0  0  0  0
    1.2160   -9.0402  -35.8080 C   0  0  0  0  0  0  0  0  0  0  0  0
    3.4198  -10.0916  -36.8268 O   0  0  0  0  0  0  0  0  0  0  0  0
    1.6056  -11.6619  -35.9402 O   0  0  0  0  0  0  0  0  0  0  0  0
    2.9025  -10.0196  -28.8347 C   0  0  0  0  0  0  0  0  0  0  0  0
   -3.5507   -6.8874  -34.9657 C   0  0  0  0  0  0  0  0  0  0  0  0
    2.6463   -8.8983  -29.2390 O   0  5  0  0  0  0  0  0  0  0  0  0
   -4.4865   -6.6583  -35.7121 O   0  5  0  0  0  0  0  0  0  0  0  0
    1.0416   -8.2410  -36.9518 C   0  0  0  0  0  0  0  0  0  0  0  0
    2.4936  -10.9807  -33.1240 C   0  0  0  0  0  0  0  0  0  0  0  0
    4.2921   -9.5952  -33.9945 C   0  0  0  0  0  0  0  0  0  0  0  0
    0.5022   -8.7396  -34.6337 C   0  0  0  0  0  0  0  0  0  0  0  0
   -1.4500   -5.7934  -35.6726 O   0  0  0  0  0  0  0  0  0  0  0  0
    4.8399  -10.0708  -30.3840 O   0  0  0  0  0  0  0  0  0  0  0  0
   -2.5528   -5.7393  -34.7407 C   0  0  0  0  0  0  0  0  0  0  0  0
    4.2769  -10.6228  -29.1723 C   0  0  0  0  0  0  0  0  0  0  0  0
   -0.5688   -6.8566  -35.7518 C   0  0  0  0  0  0  0  0  0  0  0  0
    4.2453  -10.1768  -31.6287 C   0  0  0  0  0  0  0  0  0  0  0  0
   -3.3182   -7.9605  -34.4350 O   0  0  0  0  0  0  0  0  0  0  0  0
    2.1673  -10.7023  -28.1433 O   0  0  0  0  0  0  0  0  0  0  0  0
    3.0540  -10.9063  -31.8386 C   0  0  0  0  0  0  0  0  0  0  0  0
    0.1543   -7.1542  -36.9286 C   0  0  0  0  0  0  0  0  0  0  0  0
   -0.3868   -7.6529  -34.6091 C   0  0  0  0  0  0  0  0  0  0  0  0
    4.8546   -9.5217  -32.7111 C   0  0  0  0  0  0  0  0  0  0  0  0
    1.5688   -8.4550  -37.8128 H   0  0  0  0  0  0  0  0  0  0  0  0
    1.6234  -11.5146  -33.2746 H   0  0  0  0  0  0  0  0  0  0  0  0
    4.7447   -9.1083  -34.7839 H   0  0  0  0  0  0  0  0  0  0  0  0
    0.6320   -9.3185  -33.7893 H   0  0  0  0  0  0  0  0  0  0  0  0
   -2.1676   -5.8060  -33.7447 H   0  0  0  0  0  0  0  0  0  0  0  0
   -3.0704   -4.8153  -34.8930 H   0  0  0  0  0  0  0  0  0  0  0  0
    4.1671  -11.6801  -29.2953 H   0  0  0  0  0  0  0  0  0  0  0  0
    4.9421  -10.3880  -28.3678 H   0  0  0  0  0  0  0  0  0  0  0  0
    2.5956  -11.3846  -31.0474 H   0  0  0  0  0  0  0  0  0  0  0  0
    0.0299   -6.5719  -37.7715 H   0  0  0  0  0  0  0  0  0  0  0  0
   -0.9098   -7.4379  -33.7458 H   0  0  0  0  0  0  0  0  0  0  0  0
    5.7219   -8.9826  -32.5617 H   0  0  0  0  0  0  0  0  0  0  0  0
  1  2  1  0  0  0  0
  1  3  1  0  0  0  0
  1  4  2  0  0  0  0
  1  5  2  0  0  0  0
  2 11  2  0  0  0  0
  2 12  1  0  0  0  0
  3 10  2  0  0  0  0
  3 13  1  0  0  0  0
  6  8  1  0  0  0  0
  6 17  1  0  0  0  0
  6 21  2  0  0  0  0
  7  9  1  0  0  0  0
  7 16  1  0  0  0  0
  7 20  2  0  0  0  0
 10 23  1  0  0  0  0
 10 26  1  0  0  0  0
 11 22  1  0  0  0  0
 11 27  1  0  0  0  0
 12 25  2  0  0  0  0
 12 28  1  0  0  0  0
 13 24  2  0  0  0  0
 13 29  1  0  0  0  0
 14 16  1  0  0  0  0
 14 18  1  0  0  0  0
 15 17  1  0  0  0  0
 15 19  1  0  0  0  0
 16 30  1  0  0  0  0
 16 31  1  0  0  0  0
 17 32  1  0  0  0  0
 17 33  1  0  0  0  0
 18 23  2  0  0  0  0
 18 24  1  0  0  0  0
 19 22  2  0  0  0  0
 19 25  1  0  0  0  0
 22 34  1  0  0  0  0
 23 35  1  0  0  0  0
 24 36  1  0  0  0  0
 25 37  1  0  0  0  0
M  CHG  2   8  -1   9  -1
M  END
$$$$
