HTS1710-01242159-01
 OpenBabel03232612353D

 46 48  0  0  1  0  0  0  0  0999 V2000
    3.9032   -9.4099  -30.9558 C   0  0  0  0  0  0  0  0  0  0  0  0
    3.2157  -11.5628  -30.1725 N   0  0  0  0  0  0  0  0  0  0  0  0
    3.0949   -9.2679  -29.7083 C   0  0  0  0  0  0  0  0  0  0  0  0
    3.8910  -10.9103  -31.3093 C   0  0  1  0  0  0  0  0  0  0  0  0
    2.7499  -10.6833  -29.2227 C   0  0  0  0  0  0  0  0  0  0  0  0
    4.5151   -8.4640  -31.7348 C   0  0  0  0  0  0  0  0  0  0  0  0
    3.1899  -11.2056  -32.6321 C   0  0  0  0  0  0  0  0  0  0  0  0
    3.2153  -13.0313  -30.0420 C   0  0  0  0  0  0  0  0  0  0  0  0
    3.8872  -11.8229  -33.6889 C   0  0  0  0  0  0  0  0  0  0  0  0
    4.6215  -13.5925  -29.7046 C   0  0  0  0  0  0  0  0  0  0  0  0
    3.2393  -12.0869  -34.9147 C   0  0  0  0  0  0  0  0  0  0  0  0
    5.1343  -13.2078  -28.3067 C   0  0  0  0  0  0  0  0  0  0  0  0
    2.1752  -10.9612  -28.1843 O   0  0  0  0  0  0  0  0  0  0  0  0
    2.6870   -8.2493  -29.1792 O   0  0  0  0  0  0  0  0  0  0  0  0
    1.8418  -10.8468  -32.8079 C   0  0  0  0  0  0  0  0  0  0  0  0
    4.5490   -6.9736  -31.5521 C   0  0  0  0  0  0  0  0  0  0  0  0
    1.8885  -11.7221  -35.0767 C   0  0  0  0  0  0  0  0  0  0  0  0
    4.3229  -12.8533  -27.4694 O   0  5  0  0  0  0  0  0  0  0  0  0
    1.1943  -11.1028  -34.0248 C   0  0  0  0  0  0  0  0  0  0  0  0
    5.2091   -8.8736  -32.8255 O   0  5  0  0  0  0  0  0  0  0  0  0
    6.3377  -13.2840  -28.1316 O   0  0  0  0  0  0  0  0  0  0  0  0
    3.8914  -12.6981  -35.9708 O   0  0  0  0  0  0  0  0  0  0  0  0
    1.2458  -11.9698  -36.2565 O   0  0  0  0  0  0  0  0  0  0  0  0
    3.3461   -6.2399  -31.4261 C   0  0  0  0  0  0  0  0  0  0  0  0
    5.7641   -6.2552  -31.5769 C   0  0  0  0  0  0  0  0  0  0  0  0
    5.3004  -12.9887  -35.9613 C   0  0  0  0  0  0  0  0  0  0  0  0
    5.7819   -4.8598  -31.4216 C   0  0  0  0  0  0  0  0  0  0  0  0
    3.3647   -4.8455  -31.2665 C   0  0  0  0  0  0  0  0  0  0  0  0
    4.5834   -4.1535  -31.2564 C   0  0  0  0  0  0  0  0  0  0  0  0
    4.8849  -11.2789  -31.4551 H   0  0  0  0  0  0  0  0  0  0  0  0
    2.8869  -13.4588  -30.9664 H   0  0  0  0  0  0  0  0  0  0  0  0
    2.5585  -13.2884  -29.2374 H   0  0  0  0  0  0  0  0  0  0  0  0
    4.8780  -12.0836  -33.5661 H   0  0  0  0  0  0  0  0  0  0  0  0
    5.3143  -13.2206  -30.4303 H   0  0  0  0  0  0  0  0  0  0  0  0
    4.5387  -14.6592  -29.7193 H   0  0  0  0  0  0  0  0  0  0  0  0
    1.3264  -10.3930  -32.0376 H   0  0  0  0  0  0  0  0  0  0  0  0
    0.2051  -10.8354  -34.1478 H   0  0  0  0  0  0  0  0  0  0  0  0
    0.3158  -11.8701  -36.3134 H   0  0  0  0  0  0  0  0  0  0  0  0
    2.4421   -6.7368  -31.4519 H   0  0  0  0  0  0  0  0  0  0  0  0
    6.6523   -6.7631  -31.7111 H   0  0  0  0  0  0  0  0  0  0  0  0
    5.5737  -13.4599  -36.8823 H   0  0  0  0  0  0  0  0  0  0  0  0
    5.5240  -13.6439  -35.1454 H   0  0  0  0  0  0  0  0  0  0  0  0
    5.8516  -12.0785  -35.8491 H   0  0  0  0  0  0  0  0  0  0  0  0
    6.6808   -4.3529  -31.4293 H   0  0  0  0  0  0  0  0  0  0  0  0
    2.4785   -4.3284  -31.1563 H   0  0  0  0  0  0  0  0  0  0  0  0
    4.5978   -3.1296  -31.1279 H   0  0  0  0  0  0  0  0  0  0  0  0
  1  3  1  0  0  0  0
  1  4  1  0  0  0  0
  1  6  2  0  0  0  0
  2  4  1  0  0  0  0
  2  8  1  0  0  0  0
  2  5  1  0  0  0  0
  3  5  1  0  0  0  0
  3 14  2  0  0  0  0
  4  7  1  0  0  0  0
  4 30  1  6  0  0  0
  5 13  2  0  0  0  0
  6 16  1  0  0  0  0
  6 20  1  0  0  0  0
  7  9  2  0  0  0  0
  7 15  1  0  0  0  0
  8 10  1  0  0  0  0
  8 31  1  0  0  0  0
  8 32  1  0  0  0  0
  9 11  1  0  0  0  0
  9 33  1  0  0  0  0
 10 12  1  0  0  0  0
 10 34  1  0  0  0  0
 10 35  1  0  0  0  0
 11 22  1  0  0  0  0
 11 17  2  0  0  0  0
 12 18  1  0  0  0  0
 12 21  2  0  0  0  0
 15 19  2  0  0  0  0
 15 36  1  0  0  0  0
 16 24  2  0  0  0  0
 16 25  1  0  0  0  0
 17 19  1  0  0  0  0
 17 23  1  0  0  0  0
 19 37  1  0  0  0  0
 22 26  1  0  0  0  0
 23 38  1  0  0  0  0
 24 28  1  0  0  0  0
 24 39  1  0  0  0  0
 25 27  2  0  0  0  0
 25 40  1  0  0  0  0
 26 41  1  0  0  0  0
 26 42  1  0  0  0  0
 26 43  1  0  0  0  0
 27 29  1  0  0  0  0
 27 44  1  0  0  0  0
 28 29  2  0  0  0  0
 28 45  1  0  0  0  0
 29 46  1  0  0  0  0
M  CHG  2  18  -1  20  -1
M  END
$$$$
