##########                                Name: HTS1710-05455623-01
##########                    Molecular_Weight:             330.277
##########                DOCK_Rotatable_Bonds:                   6
##########                       Formal_Charge:                  -2
##########                     HBond_Acceptors:                   9
##########                        HBond_Donors:                   1
##########                         Heavy_Atoms:                  24
##########                          Grid_Score:          -78.401657
##########                     Grid_vdw_energy:          -38.058002
##########                      Grid_es_energy:          -40.343651
##########           Internal_energy_repulsive:            9.600660

@<TRIPOS>MOLECULE
HTS1710-05455623-01
 36 38 1 0 0
SMALL
USER_CHARGES


@<TRIPOS>ATOM
      1 C           6.5352   -6.1765  -34.3924 C.3     1  UNL1       -0.0524
      2 C           6.0480   -7.6049  -34.3717 C.2     1  UNL1       -0.1102
      3 O           5.8457   -8.2321  -35.5705 O.co2   1  UNL1       -0.7695
      4 C           5.4293   -9.4613  -35.1504 C.ar    1  UNL1        0.0167
      5 N           5.1106  -10.4676  -36.0261 N.ar    1  UNL1       -0.2514
      6 C           4.7337  -11.6330  -35.5218 C.ar    1  UNL1        0.0983
      7 N           4.6437  -11.8800  -34.1443 N.ar    1  UNL1       -0.2899
      8 C           4.3207  -13.2552  -33.7017 C.3     1  UNL1        0.1037
      9 C           2.9869  -13.2478  -32.9499 C.2     1  UNL1        0.2333
     10 O           1.9392  -12.9621  -33.5062 O.2     1  UNL1       -0.2738
     11 N           3.0028  -13.5262  -31.5910 N.am    1  UNL1       -0.3067
     12 C           1.7730  -13.5406  -30.7935 C.3     1  UNL1        0.0698
     13 C           2.1342  -13.8150  -29.3558 C.ar    1  UNL1        0.1218
     14 C           2.1442  -15.0603  -28.7878 C.ar    1  UNL1       -0.0192
     15 C           2.4873  -14.8232  -27.4353 C.ar    1  UNL1       -0.0236
     16 C           2.6407  -13.4626  -27.3352 C.ar    1  UNL1        0.0921
     17 O           2.4339  -12.7803  -28.5089 O.2     1  UNL1       -0.4662
     18 C           4.9221  -10.8963  -33.1813 C.ar    1  UNL1        0.2615
     19 O           4.8167  -11.0982  -31.9841 O.2     1  UNL1       -0.2670
     20 C           5.3582   -9.6158  -33.7927 C.ar    1  UNL1        0.0592
     21 C           5.7817   -8.3580  -33.2410 C.2     1  UNL1       -0.0003
     22 C           5.9218   -7.9416  -31.8133 C.2     1  UNL1        0.0716
     23 O           6.2426   -6.7896  -31.5811 O.co2   1  UNL1       -0.5446
     24 O           5.7129   -8.7660  -30.9457 O.co2   1  UNL1       -0.5446
     25 H           6.6535   -5.8546  -35.4060 H       1  UNL1        0.0266
     26 H           7.4756   -6.1130  -33.8859 H       1  UNL1        0.0266
     27 H           5.8218   -5.5492  -33.9000 H       1  UNL1        0.0266
     28 H           4.4948  -12.3961  -36.1743 H       1  UNL1        0.1029
     29 H           5.0937  -13.6124  -33.0537 H       1  UNL1        0.0589
     30 H           4.2465  -13.8969  -34.5547 H       1  UNL1        0.0589
     31 H           3.8622  -13.7190  -31.1509 H       1  UNL1        0.1492
     32 H           1.1191  -14.3074  -31.1534 H       1  UNL1        0.0542
     33 H           1.2760  -12.5962  -30.8714 H       1  UNL1        0.0542
     34 H           1.9467  -15.9656  -29.2421 H       1  UNL1        0.0652
     35 H           2.5984  -15.5232  -26.6851 H       1  UNL1        0.0649
     36 H           2.8906  -12.9918  -26.4516 H       1  UNL1        0.1029
@<TRIPOS>BOND
     1     1     2    1
     2     2     3    1
     3     3     4    1
     4     4     5   ar
     5     5     6   ar
     6     6     7   ar
     7     7     8    1
     8     8     9    1
     9     9    10    2
    10     9    11   am
    11    11    12    1
    12    12    13    1
    13    13    14   ar
    14    14    15   ar
    15    15    16   ar
    16    16    17   ar
    17    13    17   ar
    18     7    18   ar
    19    18    19    2
    20    18    20   ar
    21     4    20   ar
    22    20    21    1
    23     2    21    2
    24    21    22    1
    25    22    23   ar
    26    22    24   ar
    27     1    25    1
    28     1    26    1
    29     1    27    1
    30     6    28    1
    31     8    29    1
    32     8    30    1
    33    11    31    1
    34    12    32    1
    35    12    33    1
    36    14    34    1
    37    15    35    1
    38    16    36    1
@<TRIPOS>SUBSTRUCTURE
     1 UNL1        1 TEMP              0 ****  ****    0 ROOT


