##########                                Name: HTS1710-05328724-01
##########                    Molecular_Weight:             321.353
##########                DOCK_Rotatable_Bonds:                   6
##########                       Formal_Charge:                  -2
##########                     HBond_Acceptors:                   7
##########                        HBond_Donors:                   0
##########                         Heavy_Atoms:                  23
##########                          Grid_Score:          -75.415375
##########                     Grid_vdw_energy:          -39.067650
##########                      Grid_es_energy:          -36.347721
##########           Internal_energy_repulsive:            6.564311

@<TRIPOS>MOLECULE
HTS1710-05328724-01
 44 46 1 0 0
SMALL
USER_CHARGES


@<TRIPOS>ATOM
      1 O           5.4696   -8.8942  -32.1317 O.co2   1  UNL1       -0.5431
      2 C           5.9981   -7.8127  -32.3281 C.2     1  UNL1        0.0890
      3 OXT         6.3214   -7.0384  -31.4451 O.co2   1  UNL1       -0.5431
      4 CA          6.2595   -7.4327  -33.7431 C.2     1  UNL1        0.0763
      5 N           6.8261   -6.2547  -34.1175 N.2     1  UNL1       -0.2691
      6 C           6.8717   -6.3394  -35.4361 C.2     1  UNL1       -0.0366
      7 O           6.3777   -7.4940  -36.0061 O.co2   1  UNL1       -0.7726
      8 C           5.9994   -8.1603  -34.8745 C.2     1  UNL1       -0.0634
      9 C           5.4305   -9.5579  -34.9774 C.3     1  UNL1        0.0625
     10 O           4.0399   -9.5563  -34.6004 O.3     1  UNL1       -0.3671
     11 C           3.2326  -10.5746  -35.2258 C.3     1  UNL1        0.1242
     12 C           2.1864  -11.1107  -34.2366 C.2     1  UNL1        0.2414
     13 O           0.9974  -10.8974  -34.4016 O.2     1  UNL1       -0.2731
     14 N           2.6615  -11.8782  -33.1719 N.am    1  UNL1       -0.2990
     15 C           4.0655  -12.2208  -32.9090 C.3     1  UNL1        0.0153
     16 C           4.0605  -13.2371  -31.7563 C.3     1  UNL1       -0.0300
     17 C           2.7110  -13.0187  -31.0182 C.3     1  UNL1       -0.0120
     18 C           1.7937  -12.4599  -32.1397 C.3     1  UNL1        0.0204
     19 C           2.1360  -14.3464  -30.4357 C.3     1  UNL1       -0.0459
     20 C           2.9508  -14.8693  -29.2276 C.3     1  UNL1       -0.0525
     21 C           3.0612  -13.8072  -28.1106 C.3     1  UNL1       -0.0530
     22 C           3.6315  -12.4708  -28.6401 C.3     1  UNL1       -0.0525
     23 C           2.8573  -11.9531  -29.8812 C.3     1  UNL1       -0.0459
     24 H           7.2595   -5.5764  -36.0125 H       1  UNL1        0.0668
     25 H           5.9731  -10.2096  -34.3250 H       1  UNL1        0.0599
     26 H           5.5185   -9.8980  -35.9881 H       1  UNL1        0.0599
     27 H           3.8630  -11.3790  -35.5427 H       1  UNL1        0.0657
     28 H           2.7282  -10.1491  -36.0680 H       1  UNL1        0.0657
     29 H           4.6127  -11.3455  -32.6272 H       1  UNL1        0.0465
     30 H           4.5333  -12.6281  -33.7808 H       1  UNL1        0.0465
     31 H           4.8821  -13.0570  -31.0950 H       1  UNL1        0.0286
     32 H           4.1613  -14.2415  -32.1114 H       1  UNL1        0.0286
     33 H           1.1459  -11.7076  -31.7407 H       1  UNL1        0.0470
     34 H           1.1869  -13.2385  -32.5528 H       1  UNL1        0.0470
     35 H           2.1469  -15.0908  -31.2042 H       1  UNL1        0.0271
     36 H           1.1420  -14.1463  -30.0937 H       1  UNL1        0.0271
     37 H           3.9348  -15.1280  -29.5587 H       1  UNL1        0.0265
     38 H           2.4443  -15.7228  -28.8277 H       1  UNL1        0.0265
     39 H           3.7069  -14.1788  -27.3426 H       1  UNL1        0.0265
     40 H           2.0781  -13.6212  -27.7314 H       1  UNL1        0.0265
     41 H           4.6566  -12.6165  -28.9097 H       1  UNL1        0.0265
     42 H           3.5326  -11.7412  -27.8637 H       1  UNL1        0.0265
     43 H           3.3788  -11.1064  -30.2762 H       1  UNL1        0.0271
     44 H           1.8690  -11.7061  -29.5537 H       1  UNL1        0.0271
@<TRIPOS>BOND
     1     1     2   ar
     2     2     3   ar
     3     2     4    1
     4     4     5    1
     5     5     6    2
     6     6     7    1
     7     7     8    1
     8     4     8    2
     9     8     9    1
    10     9    10    1
    11    10    11    1
    12    11    12    1
    13    12    13    2
    14    12    14   am
    15    14    15    1
    16    15    16    1
    17    16    17    1
    18    17    18    1
    19    14    18    1
    20    17    19    1
    21    19    20    1
    22    20    21    1
    23    21    22    1
    24    22    23    1
    25    17    23    1
    26     6    24    1
    27     9    25    1
    28     9    26    1
    29    11    27    1
    30    11    28    1
    31    15    29    1
    32    15    30    1
    33    16    31    1
    34    16    32    1
    35    18    33    1
    36    18    34    1
    37    19    35    1
    38    19    36    1
    39    20    37    1
    40    20    38    1
    41    21    39    1
    42    21    40    1
    43    22    41    1
    44    22    42    1
    45    23    43    1
    46    23    44    1
@<TRIPOS>SUBSTRUCTURE
     1 UNL1        1 TEMP              0 ****  ****    0 ROOT


