##########                                Name: HTS1710-00958232-01
##########                    Molecular_Weight:             333.749
##########                DOCK_Rotatable_Bonds:                   6
##########                       Formal_Charge:                  -2
##########                     HBond_Acceptors:                   9
##########                        HBond_Donors:                   1
##########                         Heavy_Atoms:                  21
##########                          Grid_Score:          -75.095100
##########                     Grid_vdw_energy:          -35.422146
##########                      Grid_es_energy:          -39.672955
##########           Internal_energy_repulsive:           16.112226

@<TRIPOS>MOLECULE
HTS1710-00958232-01
 33 33 1 0 0
SMALL
USER_CHARGES


@<TRIPOS>ATOM
      1 S           1.1331  -11.5764  -33.9189 S.O2    1  UNL1        0.0440
      2 C           3.6988  -11.5637  -30.1450 C.ar    1  UNL1        0.0174
      3 C           2.9020  -10.3293  -35.8049 C.3     1  UNL1        0.0255
      4 C           4.3876  -10.2711  -29.8014 C.2     1  UNL1        0.0731
      5 C           4.1950   -9.4680  -35.7634 C.2     1  UNL1        0.0490
      6 C           2.8157  -11.2426  -34.5367 C.3     1  UNL1        0.0949
      7 N           1.3782  -12.7863  -32.7499 N.pl3   1  UNL1       -0.2206
      8 C           3.8667  -12.7342  -29.3687 C.ar    1  UNL1        0.0499
      9 O           0.6644  -10.4159  -33.1801 O.2     1  UNL1       -0.1552
     10 O           0.3487  -12.2040  -34.9687 O.2     1  UNL1       -0.1552
     11 C           2.8548  -11.6050  -31.2713 C.ar    1  UNL1       -0.0291
     12 C           2.1932  -12.7908  -31.6366 C.ar    1  UNL1        0.0484
     13 O           4.1564   -9.8005  -28.7017 O.co2   1  UNL1       -0.5446
     14 O           4.6517   -9.1601  -34.6740 O.co2   1  UNL1       -0.5492
     15 C           3.2079  -13.9200  -29.7323 C.ar    1  UNL1       -0.0410
     16 O           5.1090   -9.7733  -30.6477 O.co2   1  UNL1       -0.5446
     17 O           4.6768   -9.1372  -36.8336 O.co2   1  UNL1       -0.5492
     18 C           2.3766  -13.9524  -30.8618 C.ar    1  UNL1       -0.0379
     19 CL          4.8586  -12.7448  -27.9177 Cl      1  UNL1       -0.0829
     20 C           2.8157  -11.1873  -37.1060 C.3     1  UNL1       -0.0531
     21 C           1.6832   -9.3651  -35.7902 C.3     1  UNL1       -0.0531
     22 H           3.3665  -10.7683  -33.7515 H       1  UNL1        0.0527
     23 H           3.2126  -12.1914  -34.8319 H       1  UNL1        0.0527
     24 H           0.8584  -13.6109  -32.8888 H       1  UNL1        0.1733
     25 H           2.7198  -10.7525  -31.8371 H       1  UNL1        0.0643
     26 H           3.3362  -14.7726  -29.1652 H       1  UNL1        0.0633
     27 H           1.8988  -14.8285  -31.1253 H       1  UNL1        0.0637
     28 H           3.6447  -11.8627  -37.1434 H       1  UNL1        0.0239
     29 H           2.8414  -10.5433  -37.9602 H       1  UNL1        0.0239
     30 H           1.9019  -11.7439  -37.1062 H       1  UNL1        0.0239
     31 H           1.7160   -8.7623  -34.9068 H       1  UNL1        0.0239
     32 H           0.7776   -9.9348  -35.7999 H       1  UNL1        0.0239
     33 H           1.7171   -8.7343  -36.6539 H       1  UNL1        0.0239
@<TRIPOS>BOND
     1     2    11   ar
     2     3     6    1
     3     2     4    1
     4     3     5    1
     5     1     6    1
     6     1     7    1
     7     8    15   ar
     8     1     9    2
     9     1    10    2
    10    11    12   ar
    11     7    12    1
    12     4    13   ar
    13     5    14   ar
    14    15    18   ar
    15     4    16   ar
    16     5    17   ar
    17    12    18   ar
    18     8    19    1
    19     3    20    1
    20     3    21    1
    21     2     8   ar
    22     6    22    1
    23     6    23    1
    24     7    24    1
    25    11    25    1
    26    15    26    1
    27    18    27    1
    28    20    28    1
    29    20    29    1
    30    20    30    1
    31    21    31    1
    32    21    32    1
    33    21    33    1
@<TRIPOS>SUBSTRUCTURE
     1 UNL1        1 TEMP              0 ****  ****    0 ROOT


