##########                                Name: HTS1710-00385048-01
##########                    Molecular_Weight:             356.358
##########                DOCK_Rotatable_Bonds:                   7
##########                       Formal_Charge:                  -2
##########                     HBond_Acceptors:                   8
##########                        HBond_Donors:                   1
##########                         Heavy_Atoms:                  26
##########                          Grid_Score:          -83.611397
##########                     Grid_vdw_energy:          -46.236423
##########                      Grid_es_energy:          -37.374973
##########           Internal_energy_repulsive:            9.770967

@<TRIPOS>MOLECULE
HTS1710-00385048-01
 44 46 1 0 0
SMALL
USER_CHARGES


@<TRIPOS>ATOM
      1 C           6.7266   -6.7012  -34.3466 C.3     1  UNL1       -0.0524
      2 C           6.0194   -8.0134  -34.1287 C.2     1  UNL1       -0.1120
      3 O           5.7346   -8.7996  -35.2161 O.co2   1  UNL1       -0.7845
      4 C           5.1102   -9.8489  -34.5993 C.2     1  UNL1       -0.1000
      5 C           4.6139  -11.0144  -35.4079 C.3     1  UNL1        0.0240
      6 N           4.5999  -12.2207  -34.5761 N.am    1  UNL1       -0.3120
      7 C           3.5229  -12.5456  -33.7625 C.2     1  UNL1        0.2183
      8 O           2.5476  -11.8142  -33.7263 O.2     1  UNL1       -0.2754
      9 C           3.5918  -13.8304  -32.9227 C.3     1  UNL1        0.0595
     10 C           4.2505  -13.5606  -31.5480 C.3     1  UNL1        0.0266
     11 N           3.1442  -13.5307  -30.5953 N.am    1  UNL1       -0.2949
     12 C           3.3388  -12.9816  -29.2468 C.3     1  UNL1        0.0568
     13 C           4.3820  -13.7474  -28.4445 C.ar    1  UNL1        0.0585
     14 C           4.0787  -14.9970  -27.8690 C.ar    1  UNL1       -0.0388
     15 C           5.0592  -15.6507  -27.1080 C.ar    1  UNL1       -0.0586
     16 C           6.3062  -15.0301  -26.9486 C.ar    1  UNL1       -0.0436
     17 C           6.5291  -13.7891  -27.5681 C.ar    1  UNL1        0.0279
     18 N           5.5880  -13.1563  -28.2994 N.ar    1  UNL1       -0.2583
     19 C           1.9470  -13.9416  -31.1374 C.2     1  UNL1        0.2167
     20 O           0.8756  -13.9477  -30.5568 O.2     1  UNL1       -0.2756
     21 C           2.1701  -14.3587  -32.5856 C.3     1  UNL1        0.0367
     22 C           4.9993   -9.7528  -33.2374 C.2     1  UNL1       -0.0630
     23 C           5.6124   -8.5158  -32.9085 C.2     1  UNL1       -0.0144
     24 C           5.7490   -7.9412  -31.5478 C.2     1  UNL1        0.0708
     25 O           6.3509   -6.8861  -31.4506 O.co2   1  UNL1       -0.5447
     26 O           5.2615   -8.5452  -30.6092 O.co2   1  UNL1       -0.5447
     27 H           6.9202   -6.5694  -35.3906 H       1  UNL1        0.0266
     28 H           7.6521   -6.7014  -33.8094 H       1  UNL1        0.0266
     29 H           6.1099   -5.9009  -33.9943 H       1  UNL1        0.0266
     30 H           5.2613  -11.1676  -36.2459 H       1  UNL1        0.0500
     31 H           3.6221  -10.8100  -35.7534 H       1  UNL1        0.0500
     32 H           5.3801  -12.8209  -34.5949 H       1  UNL1        0.1490
     33 H           4.1507  -14.5314  -33.5066 H       1  UNL1        0.0414
     34 H           4.7651  -12.6226  -31.5557 H       1  UNL1        0.0472
     35 H           4.9752  -14.3069  -31.2975 H       1  UNL1        0.0472
     36 H           2.4066  -13.0223  -28.7229 H       1  UNL1        0.0529
     37 H           3.6887  -11.9762  -29.3549 H       1  UNL1        0.0529
     38 H           3.1496  -15.4249  -28.0052 H       1  UNL1        0.0636
     39 H           4.8669  -16.5676  -26.6753 H       1  UNL1        0.0619
     40 H           7.0472  -15.4770  -26.3862 H       1  UNL1        0.0633
     41 H           7.4528  -13.3419  -27.4591 H       1  UNL1        0.0829
     42 H           1.4381  -13.9122  -33.2257 H       1  UNL1        0.0366
     43 H           2.0833  -15.4161  -32.7246 H       1  UNL1        0.0366
     44 H           4.5652  -10.4311  -32.5922 H       1  UNL1        0.0615
@<TRIPOS>BOND
     1     1     2    1
     2     2     3    1
     3     3     4    1
     4     4     5    1
     5     5     6    1
     6     6     7   am
     7     7     8    2
     8     7     9    1
     9     9    10    1
    10    10    11    1
    11    11    12    1
    12    12    13    1
    13    13    14   ar
    14    14    15   ar
    15    15    16   ar
    16    16    17   ar
    17    17    18   ar
    18    13    18   ar
    19    11    19   am
    20    19    20    2
    21    19    21    1
    22     9    21    1
    23     4    22    2
    24    22    23    1
    25     2    23    2
    26    23    24    1
    27    24    25   ar
    28    24    26   ar
    29     1    27    1
    30     1    28    1
    31     1    29    1
    32     5    30    1
    33     5    31    1
    34     6    32    1
    35     9    33    1
    36    10    34    1
    37    10    35    1
    38    12    36    1
    39    12    37    1
    40    14    38    1
    41    15    39    1
    42    16    40    1
    43    17    41    1
    44    21    42    1
    45    21    43    1
    46    22    44    1
@<TRIPOS>SUBSTRUCTURE
     1 UNL1        1 TEMP              0 ****  ****    0 ROOT


