##########                                Name: HTS1710-02585265-01
##########                    Molecular_Weight:              370.34
##########                DOCK_Rotatable_Bonds:                   9
##########                       Formal_Charge:                  -2
##########                     HBond_Acceptors:                  11
##########                        HBond_Donors:                   1
##########                         Heavy_Atoms:                  25
##########                          Grid_Score:          -78.415123
##########                     Grid_vdw_energy:          -38.596439
##########                      Grid_es_energy:          -39.818684
##########           Internal_energy_repulsive:           11.879074

@<TRIPOS>MOLECULE
HTS1710-02585265-01
 39 40 1 0 0
SMALL
USER_CHARGES


@<TRIPOS>ATOM
      1 N           3.8600  -11.8664  -30.8909 N.am    1  UNL1       -0.2533
      2 C           4.0366  -10.8616  -31.8242 C.2     1  UNL1        0.2438
      3 C           4.0305  -12.9592  -31.8554 C.3     1  UNL1        0.1041
      4 CA          4.2908  -11.8820  -32.9683 C.3     1  UNL1        0.1283
      5 CA          3.4960  -12.1060  -29.5032 C.2     1  UNL1        0.0631
      6 S           2.4361  -13.8717  -31.7728 S.3     1  UNL1       -0.1310
      7 C           3.0145  -13.3442  -29.1387 C.2     1  UNL1        0.0004
      8 N           3.2299  -11.8203  -33.9809 N.am    1  UNL1       -0.3017
      9 C           3.6698  -10.9475  -28.5304 C.2     1  UNL1        0.0860
     10 C           2.8474  -14.5197  -30.1067 C.3     1  UNL1        0.0219
     11 C           3.4219  -12.2593  -35.2825 C.2     1  UNL1        0.2140
     12 O           3.9437   -9.6589  -31.6585 O.2     1  UNL1       -0.2731
     13 C           2.2262   -9.5491  -36.2042 C.2     1  UNL1        0.0422
     14 C           2.6281  -13.7644  -27.7205 C.3     1  UNL1        0.1164
     15 C           4.9984  -14.0754  -27.3431 C.2     1  UNL1        0.3043
     16 O           2.7327  -10.6043  -27.8337 O.co2   1  UNL1       -0.5433
     17 O           3.7874  -13.6557  -26.8725 O.3     1  UNL1       -0.4603
     18 O           4.5019  -12.7229  -35.6108 O.2     1  UNL1       -0.2758
     19 O           2.7119   -9.0871  -35.1859 O.co2   1  UNL1       -0.5498
     20 O           5.8885  -13.3393  -27.7372 O.2     1  UNL1       -0.2512
     21 OXT         4.7612  -10.4093  -28.4890 O.co2   1  UNL1       -0.5433
     22 C           2.2360  -12.1429  -36.2500 C.3     1  UNL1        0.0290
     23 C           1.4012  -10.8432  -36.0868 C.3     1  UNL1       -0.0050
     24 O           2.3241   -9.0599  -37.3165 O.co2   1  UNL1       -0.5498
     25 C           5.1050  -15.5985  -27.3138 C.3     1  UNL1        0.0332
     26 H           4.7351  -13.7645  -31.8499 H       1  UNL1        0.0644
     27 H           5.1600  -11.8927  -33.5922 H       1  UNL1        0.0622
     28 H           2.3517  -11.4546  -33.7274 H       1  UNL1        0.1495
     29 H           3.7595  -15.0772  -30.1542 H       1  UNL1        0.0424
     30 H           2.0608  -15.1594  -29.7645 H       1  UNL1        0.0424
     31 H           2.2809  -14.7765  -27.7271 H       1  UNL1        0.0746
     32 H           1.8481  -13.1307  -27.3532 H       1  UNL1        0.0746
     33 H           1.5884  -12.9792  -36.0882 H       1  UNL1        0.0362
     34 H           2.6479  -12.1198  -37.2372 H       1  UNL1        0.0362
     35 H           0.6465  -10.8308  -36.8453 H       1  UNL1        0.0329
     36 H           0.9923  -10.8604  -35.0981 H       1  UNL1        0.0329
     37 H           4.1969  -16.0122  -26.9278 H       1  UNL1        0.0342
     38 H           5.9230  -15.8869  -26.6872 H       1  UNL1        0.0342
     39 H           5.2698  -15.9637  -28.3060 H       1  UNL1        0.0342
@<TRIPOS>BOND
     1     1     2   am
     2     1     3    1
     3     1     5    1
     4     2     4    1
     5     2    12    2
     6     3     4    1
     7     3     6    1
     8     4     8    1
     9     5     7    2
    10     5     9    1
    11     6    10    1
    12     7    10    1
    13     7    14    1
    14     8    11   am
    15     9    16   ar
    16     9    21   ar
    17    11    18    2
    18    11    22    1
    19    13    19   ar
    20    13    23    1
    21    13    24   ar
    22    14    17    1
    23    15    17    1
    24    15    20    2
    25    15    25    1
    26    22    23    1
    27     3    26    1
    28     4    27    1
    29     8    28    1
    30    10    29    1
    31    10    30    1
    32    14    31    1
    33    14    32    1
    34    22    33    1
    35    22    34    1
    36    23    35    1
    37    23    36    1
    38    25    37    1
    39    25    38    1
    40    25    39    1
@<TRIPOS>SUBSTRUCTURE
     1 UNL1        1 TEMP              0 ****  ****    0 ROOT


