##########                                Name: HTS1710-01914179-01
##########                    Molecular_Weight:             351.315
##########                DOCK_Rotatable_Bonds:                   5
##########                       Formal_Charge:                  -2
##########                     HBond_Acceptors:                   7
##########                        HBond_Donors:                   1
##########                         Heavy_Atoms:                  26
##########                          Grid_Score:          -76.108109
##########                     Grid_vdw_energy:          -43.243042
##########                      Grid_es_energy:          -32.865063
##########           Internal_energy_repulsive:           13.583104

@<TRIPOS>MOLECULE
HTS1710-01914179-01
 39 41 1 0 0
SMALL
USER_CHARGES


@<TRIPOS>ATOM
      1 C           2.6187  -12.4665  -30.3577 C.2     1  UNL1        0.0170
      2 N           4.0152  -10.6826  -31.0323 N.am    1  UNL1       -0.2567
      3 C           3.7960  -10.5741  -29.6646 C.2     1  UNL1        0.2372
      4 C           2.9116  -11.6879  -29.3031 C.2     1  UNL1       -0.0354
      5 C           3.2736  -11.8461  -31.5937 C.3     1  UNL1        0.0842
      6 C           4.7055   -9.7564  -31.8704 C.ar    1  UNL1        0.0410
      7 C           6.0481   -7.8980  -33.5693 C.ar    1  UNL1        0.0388
      8 C           5.4882   -7.4816  -32.3274 C.ar    1  UNL1        0.1274
      9 C           4.8271   -8.4059  -31.4993 C.ar    1  UNL1        0.0019
     10 C           6.7793   -6.9564  -34.5249 C.2     1  UNL1        0.0752
     11 C           1.6551  -13.6038  -30.4644 C.2     1  UNL1        0.1579
     12 C           5.9107   -9.2587  -33.9296 C.ar    1  UNL1       -0.0476
     13 O           4.2475   -9.7202  -28.9197 O.2     1  UNL1       -0.2709
     14 C           5.2485  -10.1732  -33.0954 C.ar    1  UNL1       -0.0394
     15 C           2.2683  -11.4279  -32.6630 C.ar    1  UNL1       -0.0222
     16 O           2.4541  -11.8332  -28.0384 O.co2   1  UNL1       -0.8701
     17 O           6.5434   -7.0798  -35.7153 O.co2   1  UNL1       -0.5445
     18 O           0.8009  -13.6425  -31.3329 O.2     1  UNL1       -0.2926
     19 O           5.5605   -6.1880  -31.8909 O.3     1  UNL1       -0.5061
     20 O           7.5537   -6.1360  -34.0653 O.co2   1  UNL1       -0.5445
     21 C           1.6890  -14.6364  -29.3351 C.3     1  UNL1       -0.0017
     22 C           1.5898  -10.2010  -32.5504 C.ar    1  UNL1       -0.0565
     23 C           1.9954  -12.2717  -33.7576 C.ar    1  UNL1       -0.0565
     24 C           1.0592  -11.8871  -34.7301 C.ar    1  UNL1       -0.0614
     25 C           0.6523   -9.8182  -33.5228 C.ar    1  UNL1       -0.0614
     26 C           0.3872  -10.6601  -34.6141 C.ar    1  UNL1       -0.0617
     27 H           3.9027  -12.5403  -32.1106 H       1  UNL1        0.0605
     28 H           4.4244   -8.0876  -30.6040 H       1  UNL1        0.0673
     29 H           6.3059   -9.5863  -34.8249 H       1  UNL1        0.0626
     30 H           5.1603  -11.1596  -33.3854 H       1  UNL1        0.0636
     31 H           6.2397   -5.6246  -32.2059 H       1  UNL1        0.2922
     32 H           2.5110  -14.4253  -28.6834 H       1  UNL1        0.0309
     33 H           1.8055  -15.6156  -29.7506 H       1  UNL1        0.0309
     34 H           0.7743  -14.5903  -28.7819 H       1  UNL1        0.0309
     35 H           1.7819   -9.5794  -31.7494 H       1  UNL1        0.0621
     36 H           2.4855  -13.1757  -33.8447 H       1  UNL1        0.0621
     37 H           0.8646  -12.5074  -35.5316 H       1  UNL1        0.0618
     38 H           0.1574   -8.9168  -33.4351 H       1  UNL1        0.0618
     39 H          -0.3003  -10.3776  -35.3299 H       1  UNL1        0.0618
@<TRIPOS>BOND
     1     1     4    2
     2     1     5    1
     3     1    11    1
     4     2     3   am
     5     2     5    1
     6     2     6    1
     7     3     4    1
     8     3    13    2
     9     4    16    1
    10     5    15    1
    11     6     9   ar
    12     6    14   ar
    13     7     8   ar
    14     7    10    1
    15     7    12   ar
    16     8     9   ar
    17     8    19    1
    18    10    17   ar
    19    10    20   ar
    20    11    18    2
    21    11    21    1
    22    12    14   ar
    23    15    22   ar
    24    15    23   ar
    25    22    25   ar
    26    23    24   ar
    27    24    26   ar
    28    25    26   ar
    29     5    27    1
    30     9    28    1
    31    12    29    1
    32    14    30    1
    33    19    31    1
    34    21    32    1
    35    21    33    1
    36    21    34    1
    37    22    35    1
    38    23    36    1
    39    24    37    1
    40    25    38    1
    41    26    39    1
@<TRIPOS>SUBSTRUCTURE
     1 UNL1        1 TEMP              0 ****  ****    0 ROOT


