##########                                Name: HTS1710-02939262-01
##########                    Molecular_Weight:             455.479
##########                DOCK_Rotatable_Bonds:                   9
##########                       Formal_Charge:                  -1
##########                     HBond_Acceptors:                  16
##########                        HBond_Donors:                   2
##########                         Heavy_Atoms:                  29
##########                          Grid_Score:          -79.310158
##########                     Grid_vdw_energy:          -54.167175
##########                      Grid_es_energy:          -25.142982
##########           Internal_energy_repulsive:           18.006067

@<TRIPOS>MOLECULE
HTS1710-02939262-01
 40 43 1 0 0
SMALL
USER_CHARGES


@<TRIPOS>ATOM
      1 C           6.5672  -14.7150  -27.3185 C.ar    1  UNL1        0.2752
      2 C           1.0087   -8.8508  -35.4399 C.ar    1  UNL1        0.1386
      3 C           4.4412  -14.0286  -28.0397 C.ar    1  UNL1        0.1620
      4 C           2.8628  -11.8754  -28.9312 C.3     1  UNL1        0.0242
      5 C           4.5838   -9.5492  -30.0987 C.2     1  UNL1        0.0860
      6 C           2.5871   -9.7532  -37.2520 C.3     1  UNL1        0.1209
      7 C           3.7601   -9.9249  -36.2890 C.2     1  UNL1        0.2353
      8 C           2.8187  -12.9597  -31.1830 C.3     1  UNL1        0.0195
      9 C           3.3200  -11.7552  -30.3824 C.2     1  UNL1       -0.0264
     10 CA          4.7602  -11.1817  -34.3823 C.3     1  UNL1        0.1284
     11 C           4.8791  -10.0034  -33.3735 C.2     1  UNL1        0.2438
     12 C           4.2826  -11.9997  -33.1320 C.3     1  UNL1        0.1041
     13 CA          4.0921  -10.7428  -30.9072 C.2     1  UNL1        0.0607
     14 N           4.4603  -10.7908  -32.3160 N.am    1  UNL1       -0.2533
     15 O           4.7270   -9.1824  -36.3135 O.2     1  UNL1       -0.2738
     16 N           3.6842  -10.9398  -35.3482 N.am    1  UNL1       -0.3002
     17 S           2.5084  -12.4330  -32.9111 S.3     1  UNL1       -0.1311
     18 O           5.1497   -8.8165  -33.3653 O.2     1  UNL1       -0.2731
     19 N           0.0830   -7.3411  -36.6397 N.ar    1  UNL1       -0.0233
     20 O           4.0696   -9.3558  -29.0120 O.co2   1  UNL1       -0.5433
     21 OXT         5.4565   -8.8346  -30.5548 O.co2   1  UNL1       -0.5433
     22 N           0.9495   -7.9101  -37.4414 N.ar    1  UNL1       -0.0437
     23 S           2.7988  -13.6853  -28.5718 S.3     1  UNL1       -0.0924
     24 N           1.5475   -8.8719  -36.6990 N.ar    1  UNL1       -0.2232
     25 S           5.0803  -15.5821  -27.5801 S.2     1  UNL1       -0.0018
     26 N           0.0973   -7.9079  -35.3862 N.ar    1  UNL1       -0.1169
     27 N           6.5331  -13.4158  -27.5654 N.ar    1  UNL1       -0.1028
     28 N           5.2820  -13.0114  -27.9924 N.ar    1  UNL1       -0.1315
     29 O           7.6823  -15.3370  -26.8891 O.3     1  UNL1       -0.4864
     30 H           1.2755   -9.4738  -34.6616 H       1  UNL1        0.1063
     31 H           1.8946  -11.4367  -28.8080 H       1  UNL1        0.0427
     32 H           3.5272  -11.3652  -28.2656 H       1  UNL1        0.0427
     33 H           2.1577  -10.7134  -37.4488 H       1  UNL1        0.0606
     34 H           2.9583   -9.3051  -38.1500 H       1  UNL1        0.0606
     35 H           1.9114  -13.3265  -30.7504 H       1  UNL1        0.0423
     36 H           3.5528  -13.7380  -31.1665 H       1  UNL1        0.0423
     37 H           5.5484  -11.5102  -35.0270 H       1  UNL1        0.0622
     38 H           4.7482  -12.9573  -33.0270 H       1  UNL1        0.0644
     39 H           2.8851  -11.5146  -35.3280 H       1  UNL1        0.1496
     40 H           8.2158  -14.9397  -26.2293 H       1  UNL1        0.2943
@<TRIPOS>BOND
     1     6     7    1
     2     2    24   ar
     3     7    16   am
     4    12    17    1
     5    13    14    1
     6     9    13    2
     7     8     9    1
     8     8    17    1
     9    22    24   ar
    10    11    18    2
    11     7    15    2
    12     5    13    1
    13    19    22   ar
    14     5    20   ar
    15    10    16    1
    16     5    21   ar
    17    10    11    1
    18     4     9    1
    19    19    26   ar
    20     4    23    1
    21    11    14   am
    22     3    23    1
    23     3    25   ar
    24    10    12    1
    25    12    14    1
    26     2    26   ar
    27     6    24    1
    28     1    25   ar
    29     1    27   ar
    30    27    28   ar
    31     3    28   ar
    32     1    29    1
    33     2    30    1
    34     4    31    1
    35     4    32    1
    36     6    33    1
    37     6    34    1
    38     8    35    1
    39     8    36    1
    40    10    37    1
    41    12    38    1
    42    16    39    1
    43    29    40    1
@<TRIPOS>SUBSTRUCTURE
     1 UNL1        1 TEMP              0 ****  ****    0 ROOT


