##########                                Name: HTS1710-00768749-01
##########                    Molecular_Weight:             375.335
##########                DOCK_Rotatable_Bonds:                   9
##########                       Formal_Charge:                  -2
##########                     HBond_Acceptors:                   9
##########                        HBond_Donors:                   1
##########                         Heavy_Atoms:                  27
##########                          Grid_Score:          -77.173096
##########                     Grid_vdw_energy:          -40.488152
##########                      Grid_es_energy:          -36.684940
##########           Internal_energy_repulsive:           17.516293

@<TRIPOS>MOLECULE
HTS1710-00768749-01
 44 45 1 0 0
SMALL
USER_CHARGES


@<TRIPOS>ATOM
      1 C          -0.7216   -5.7076  -36.5199 C.ar    1  UNL1        0.1457
      2 O           0.0598   -6.5502  -37.2597 O.2     1  UNL1       -0.4216
      3 C           0.3116   -8.0440  -35.3810 C.ar    1  UNL1        0.0410
      4 C           0.5895   -7.7145  -36.8101 C.ar    1  UNL1        0.3407
      5 C          -0.4664   -7.2439  -34.5344 C.ar    1  UNL1       -0.0298
      6 C          -1.0155   -6.0289  -35.1794 C.ar    1  UNL1        0.0213
      7 C          -1.2318   -4.5386  -37.1289 C.ar    1  UNL1        0.0338
      8 N           3.1860  -10.0634  -31.7867 N.am    1  UNL1       -0.2905
      9 C           2.2102  -10.2162  -32.7864 C.2     1  UNL1        0.2165
     10 C           0.9311   -9.3529  -34.8835 C.3     1  UNL1       -0.0124
     11 C          -1.8623   -5.1614  -34.4581 C.ar    1  UNL1       -0.0474
     12 C           3.5664  -10.4664  -29.3292 C.2     1  UNL1        0.0590
     13 C           4.0160   -7.7121  -31.3022 C.2     1  UNL1        0.0590
     14 C          -2.0763   -3.6901  -36.3836 C.ar    1  UNL1        0.1233
     15 C           3.2820  -11.0887  -30.7086 C.3     1  UNL1        0.0544
     16 C           4.3178   -9.0968  -31.8982 C.3     1  UNL1        0.0544
     17 O           1.2398   -8.4285  -37.5523 O.2     1  UNL1       -0.2449
     18 C           2.1189   -9.1487  -33.8987 C.3     1  UNL1        0.0284
     19 O           1.4749  -11.1898  -32.8306 O.2     1  UNL1       -0.2756
     20 C          -2.3872   -4.0072  -35.0541 C.ar    1  UNL1       -0.0191
     21 O           4.7278  -10.3633  -28.9727 O.co2   1  UNL1       -0.5482
     22 O           2.9745   -7.5902  -30.6788 O.co2   1  UNL1       -0.5482
     23 C          -0.7353   -7.6318  -33.0866 C.3     1  UNL1       -0.0386
     24 O           2.5979  -10.1023  -28.6850 O.co2   1  UNL1       -0.5482
     25 O           4.8459   -6.8361  -31.4702 O.co2   1  UNL1       -0.5482
     26 O          -2.6125   -2.5626  -36.9401 O.3     1  UNL1       -0.5064
     27 C          -0.8862   -4.2137  -38.5872 C.3     1  UNL1       -0.0327
     28 H           1.2853   -9.9023  -35.7306 H       1  UNL1        0.0320
     29 H           0.1672   -9.8764  -34.3476 H       1  UNL1        0.0320
     30 H          -2.0984   -5.3800  -33.4775 H       1  UNL1        0.0626
     31 H           2.3566  -11.6235  -30.6598 H       1  UNL1        0.0526
     32 H           4.0984  -11.7376  -30.9479 H       1  UNL1        0.0526
     33 H           5.1628   -9.5070  -31.3859 H       1  UNL1        0.0526
     34 H           4.5007   -8.9521  -32.9425 H       1  UNL1        0.0526
     35 H           3.0289   -9.1717  -34.4613 H       1  UNL1        0.0362
     36 H           1.9562   -8.2102  -33.4114 H       1  UNL1        0.0362
     37 H          -3.0069   -3.3862  -34.5106 H       1  UNL1        0.0654
     38 H          -0.2282   -8.5469  -32.8623 H       1  UNL1        0.0278
     39 H          -1.7874   -7.7625  -32.9419 H       1  UNL1        0.0278
     40 H          -0.3794   -6.8587  -32.4382 H       1  UNL1        0.0278
     41 H          -2.0498   -1.8908  -37.2719 H       1  UNL1        0.2921
     42 H          -0.2383   -4.9706  -38.9774 H       1  UNL1        0.0280
     43 H          -0.3947   -3.2644  -38.6343 H       1  UNL1        0.0280
     44 H          -1.7846   -4.1794  -39.1675 H       1  UNL1        0.0280
@<TRIPOS>BOND
     1     1     2   ar
     2     3     5   ar
     3     2     4   ar
     4     5     6   ar
     5     1     6   ar
     6     1     7   ar
     7     8     9   am
     8     9    18    1
     9     3    10    1
    10     6    11   ar
    11    12    15    1
    12    13    16    1
    13     7    14   ar
    14     8    15    1
    15     8    16    1
    16     4    17    2
    17    10    18    1
    18     9    19    2
    19    14    20   ar
    20    12    21   ar
    21    13    22   ar
    22     5    23    1
    23    12    24   ar
    24    13    25   ar
    25    14    26    1
    26     7    27    1
    27     3     4   ar
    28    11    20   ar
    29    10    28    1
    30    10    29    1
    31    11    30    1
    32    15    31    1
    33    15    32    1
    34    16    33    1
    35    16    34    1
    36    18    35    1
    37    18    36    1
    38    20    37    1
    39    23    38    1
    40    23    39    1
    41    23    40    1
    42    26    41    1
    43    27    42    1
    44    27    43    1
    45    27    44    1
@<TRIPOS>SUBSTRUCTURE
     1 UNL1        1 TEMP              0 ****  ****    0 ROOT


