##########                                Name: HTS1710-05451633-01
##########                    Molecular_Weight:             336.307
##########                DOCK_Rotatable_Bonds:                   6
##########                       Formal_Charge:                  -2
##########                     HBond_Acceptors:                   8
##########                        HBond_Donors:                   0
##########                         Heavy_Atoms:                  25
##########                          Grid_Score:          -78.202484
##########                     Grid_vdw_energy:          -42.758144
##########                      Grid_es_energy:          -35.444340
##########           Internal_energy_repulsive:            3.958069

@<TRIPOS>MOLECULE
HTS1710-05451633-01
 37 39 1 0 0
SMALL
USER_CHARGES


@<TRIPOS>ATOM
      1 C           0.9108   -9.9474  -33.7719 C.3     1  UNL1       -0.0397
      2 C           1.5824  -10.9985  -32.8984 C.ar    1  UNL1       -0.0497
      3 C           1.3637  -12.3603  -33.1500 C.ar    1  UNL1       -0.0568
      4 C           1.9730  -13.3342  -32.3466 C.ar    1  UNL1       -0.0355
      5 C           2.8159  -12.9723  -31.2799 C.ar    1  UNL1        0.0723
      6 N           3.3791  -13.9363  -30.5213 N.ar    1  UNL1       -0.2472
      7 C           4.1819  -13.5963  -29.4930 C.ar    1  UNL1        0.0652
      8 C           4.7787  -14.6938  -28.6884 C.2     1  UNL1       -0.0342
      9 C           5.6857  -14.5946  -27.6821 C.2     1  UNL1       -0.0310
     10 C           6.2599  -15.6896  -26.9032 C.ar    1  UNL1        0.1055
     11 C           5.5721  -16.7177  -26.3495 C.ar    1  UNL1        0.0532
     12 N           6.5833  -17.4381  -25.7565 N.ar    1  UNL1       -0.2456
     13 C           6.4668  -18.6967  -25.0046 C.3     1  UNL1        0.0824
     14 C           6.1423  -18.4663  -23.5258 C.2     1  UNL1        0.0631
     15 O           7.0630  -18.5645  -22.7331 O.co2   1  UNL1       -0.5479
     16 O           4.9886  -18.1956  -23.2418 O.co2   1  UNL1       -0.5479
     17 N           7.8074  -16.8380  -25.9639 N.ar    1  UNL1       -0.0648
     18 N           7.6029  -15.7526  -26.6750 N.ar    1  UNL1       -0.1301
     19 C           4.4627  -12.2553  -29.1803 C.ar    1  UNL1       -0.0268
     20 C           3.8981  -11.2318  -29.9572 C.ar    1  UNL1        0.0085
     21 C           4.2255   -9.8055  -29.6218 C.2     1  UNL1        0.0724
     22 O           5.0133   -9.2267  -30.3494 O.co2   1  UNL1       -0.5446
     23 O           3.6905   -9.3355  -28.6332 O.co2   1  UNL1       -0.5446
     24 C           3.0466  -11.5941  -31.0290 C.ar    1  UNL1        0.0095
     25 C           2.4195  -10.6194  -31.8366 C.ar    1  UNL1       -0.0490
     26 H           0.3182  -10.4311  -34.5200 H       1  UNL1        0.0278
     27 H           1.6586   -9.3449  -34.2437 H       1  UNL1        0.0278
     28 H           0.2836   -9.3276  -33.1657 H       1  UNL1        0.0278
     29 H           0.7515  -12.6470  -33.9299 H       1  UNL1        0.0621
     30 H           1.8005  -14.3329  -32.5407 H       1  UNL1        0.0639
     31 H           4.4657  -15.6488  -28.9230 H       1  UNL1        0.0639
     32 H           6.0037  -13.6428  -27.4416 H       1  UNL1        0.0640
     33 H           4.5583  -16.9095  -26.3677 H       1  UNL1        0.0849
     34 H           7.3944  -19.2256  -25.0743 H       1  UNL1        0.0571
     35 H           5.6620  -19.2580  -25.4312 H       1  UNL1        0.0571
     36 H           5.0793  -12.0248  -28.3855 H       1  UNL1        0.0645
     37 H           2.5783   -9.6179  -31.6442 H       1  UNL1        0.0627
@<TRIPOS>BOND
     1     1     2    1
     2     2     3   ar
     3     3     4   ar
     4     4     5   ar
     5     5     6   ar
     6     6     7   ar
     7     7     8    1
     8     8     9    2
     9     9    10    1
    10    10    11   ar
    11    11    12   ar
    12    12    13    1
    13    13    14    1
    14    14    15   ar
    15    14    16   ar
    16    12    17   ar
    17    17    18   ar
    18    10    18   ar
    19     7    19   ar
    20    19    20   ar
    21    20    21    1
    22    21    22   ar
    23    21    23   ar
    24    20    24   ar
    25     5    24   ar
    26    24    25   ar
    27     2    25   ar
    28     1    26    1
    29     1    27    1
    30     1    28    1
    31     3    29    1
    32     4    30    1
    33     8    31    1
    34     9    32    1
    35    11    33    1
    36    13    34    1
    37    13    35    1
    38    19    36    1
    39    25    37    1
@<TRIPOS>SUBSTRUCTURE
     1 UNL1        1 TEMP              0 ****  ****    0 ROOT


