##########                                Name: HTS1710-00595660-01
##########                    Molecular_Weight:             327.293
##########                DOCK_Rotatable_Bonds:                   7
##########                       Formal_Charge:                  -2
##########                     HBond_Acceptors:                   7
##########                        HBond_Donors:                   1
##########                         Heavy_Atoms:                  24
##########                          Grid_Score:          -75.904900
##########                     Grid_vdw_energy:          -40.540272
##########                      Grid_es_energy:          -35.364628
##########           Internal_energy_repulsive:            9.659121

@<TRIPOS>MOLECULE
HTS1710-00595660-01
 37 38 1 0 0
SMALL
USER_CHARGES


@<TRIPOS>ATOM
      1 C           3.5274  -13.0140  -29.7655 C.ar    1  UNL1        0.0347
      2 C           2.6925  -13.1778  -30.8846 C.ar    1  UNL1       -0.0316
      3 C           3.8944  -11.7030  -29.3781 C.ar    1  UNL1       -0.0316
      4 N           3.9479  -14.1943  -29.1468 N.am    1  UNL1       -0.2827
      5 C           2.2035  -12.0717  -31.6081 C.ar    1  UNL1       -0.0003
      6 C           3.4184  -10.5784  -30.0871 C.ar    1  UNL1       -0.0003
      7 C           4.7888  -14.3572  -28.0475 C.2     1  UNL1        0.2548
      8 C           2.5716  -10.7753  -31.1982 C.ar    1  UNL1       -0.0439
      9 C           1.3000  -12.2779  -32.8046 C.2     1  UNL1        0.0717
     10 C           3.8164   -9.1791  -29.6653 C.2     1  UNL1        0.0717
     11 C           5.0713  -15.7936  -27.5914 C.3     1  UNL1        0.1655
     12 O           5.2788  -13.4143  -27.4534 O.2     1  UNL1       -0.2717
     13 O           0.6535  -13.3114  -32.8505 O.co2   1  UNL1       -0.5446
     14 O           1.2715  -11.3998  -33.6492 O.co2   1  UNL1       -0.5446
     15 O           3.6509   -8.8733  -28.4974 O.co2   1  UNL1       -0.5446
     16 O           4.2800   -8.4426  -30.5194 O.co2   1  UNL1       -0.5446
     17 O           6.3857  -15.8982  -27.0044 O.3     1  UNL1       -0.4828
     18 C           6.7502  -16.8670  -26.0889 C.ar    1  UNL1        0.1215
     19 C           5.7923  -17.8315  -25.7327 C.ar    1  UNL1       -0.0170
     20 C           8.0346  -16.9133  -25.5059 C.ar    1  UNL1       -0.0199
     21 C           6.1053  -18.8453  -24.8086 C.ar    1  UNL1       -0.0470
     22 C           8.3493  -17.9246  -24.5852 C.ar    1  UNL1       -0.0581
     23 C           7.3894  -18.8884  -24.2392 C.ar    1  UNL1       -0.0586
     24 C           5.0677  -19.8943  -24.4328 C.3     1  UNL1       -0.0396
     25 H           2.4316  -14.1305  -31.1835 H       1  UNL1        0.0642
     26 H           4.5178  -11.5672  -28.5670 H       1  UNL1        0.0642
     27 H           3.6019  -15.0267  -29.5426 H       1  UNL1        0.1549
     28 H           2.2168   -9.9576  -31.7183 H       1  UNL1        0.0630
     29 H           5.0119  -16.4475  -28.4362 H       1  UNL1        0.0795
     30 H           4.3451  -16.0677  -26.8549 H       1  UNL1        0.0795
     31 H           4.8504  -17.7959  -26.1529 H       1  UNL1        0.0657
     32 H           8.7416  -16.2044  -25.7564 H       1  UNL1        0.0654
     33 H           9.2895  -17.9598  -24.1613 H       1  UNL1        0.0619
     34 H           7.6276  -19.6315  -23.5638 H       1  UNL1        0.0620
     35 H           4.1577  -19.7013  -24.9617 H       1  UNL1        0.0278
     36 H           4.8838  -19.8528  -23.3796 H       1  UNL1        0.0278
     37 H           5.4323  -20.8659  -24.6932 H       1  UNL1        0.0278
@<TRIPOS>BOND
     1     1     2   ar
     2     1     3   ar
     3     1     4    1
     4     2     5   ar
     5     3     6   ar
     6     4     7   am
     7     5     8   ar
     8     5     9    1
     9     6    10    1
    10     7    11    1
    11     7    12    2
    12     9    13   ar
    13     9    14   ar
    14    10    15   ar
    15    10    16   ar
    16    11    17    1
    17    17    18    1
    18    18    19   ar
    19    18    20   ar
    20    19    21   ar
    21    20    22   ar
    22    21    23   ar
    23    21    24    1
    24     6     8   ar
    25    22    23   ar
    26     2    25    1
    27     3    26    1
    28     4    27    1
    29     8    28    1
    30    11    29    1
    31    11    30    1
    32    19    31    1
    33    20    32    1
    34    22    33    1
    35    23    34    1
    36    24    35    1
    37    24    36    1
    38    24    37    1
@<TRIPOS>SUBSTRUCTURE
     1 UNL1        1 TEMP              0 ****  ****    0 ROOT


