HTS1710-01264043-01
 OpenBabel03232612353D

 51 53  0  0  1  0  0  0  0  0999 V2000
    2.0962   -8.0078  -31.5543 C   0  0  0  0  0  0  0  0  0  0  0  0
    4.2401   -8.7599  -32.6332 C   0  0  0  0  0  0  0  0  0  0  0  0
    3.3540   -8.8453  -31.3985 C   0  0  2  0  0  0  0  0  0  0  0  0
    1.7332   -7.1019  -30.5710 C   0  0  0  0  0  0  0  0  0  0  0  0
    5.3501   -7.9285  -32.6387 C   0  0  0  0  0  0  0  0  0  0  0  0
    6.2060   -7.7913  -33.8266 C   0  0  0  0  0  0  0  0  0  0  0  0
    0.5092   -6.2945  -30.6802 C   0  0  0  0  0  0  0  0  0  0  0  0
    3.8531   -9.5153  -33.7248 O   0  0  0  0  0  0  0  0  0  0  0  0
    1.3477   -8.2339  -32.6944 O   0  0  0  0  0  0  0  0  0  0  0  0
    3.0060  -10.2891  -31.0167 C   0  0  0  0  0  0  0  0  0  0  0  0
    5.7486   -8.6072  -34.9493 C   0  0  0  0  0  0  0  0  0  0  0  0
   -0.2391   -6.5668  -31.9057 C   0  0  0  0  0  0  0  0  0  0  0  0
    0.1939   -7.4917  -32.8318 C   0  0  0  0  0  0  0  0  0  0  0  0
    4.6293   -9.4071  -34.8582 C   0  0  0  0  0  0  0  0  0  0  0  0
    3.4307  -10.8159  -29.7812 C   0  0  0  0  0  0  0  0  0  0  0  0
    2.2479  -11.0953  -31.8897 C   0  0  0  0  0  0  0  0  0  0  0  0
    7.1922   -7.0751  -33.8834 O   0  0  0  0  0  0  0  0  0  0  0  0
    0.1449   -5.4822  -29.8450 O   0  0  0  0  0  0  0  0  0  0  0  0
    2.3525  -12.9340  -30.3013 C   0  0  0  0  0  0  0  0  0  0  0  0
    1.9230  -12.4207  -31.5356 C   0  0  0  0  0  0  0  0  0  0  0  0
    3.1022  -12.1402  -29.4202 C   0  0  0  0  0  0  0  0  0  0  0  0
    5.7408   -7.1702  -31.5897 O   0  0  0  0  0  0  0  0  0  0  0  0
    2.4401   -6.8780  -29.4400 O   0  0  0  0  0  0  0  0  0  0  0  0
    1.1878  -13.2463  -32.3649 O   0  0  0  0  0  0  0  0  0  0  0  0
    3.4923  -12.6962  -28.2166 O   0  0  0  0  0  0  0  0  0  0  0  0
   -0.6184   -7.7421  -34.0751 C   0  0  0  0  0  0  0  0  0  0  0  0
    4.1911  -10.2172  -36.0498 C   0  0  0  0  0  0  0  0  0  0  0  0
    0.2098   -7.7368  -35.2335 O   0  0  0  0  0  0  0  0  0  0  0  0
    3.8799   -9.3722  -37.1530 O   0  0  0  0  0  0  0  0  0  0  0  0
    1.3058  -14.6798  -32.3459 C   0  0  0  0  0  0  0  0  0  0  0  0
    3.3700  -14.0987  -27.9232 C   0  0  0  0  0  0  0  0  0  0  0  0
    3.9280   -8.4396  -30.5917 H   0  0  0  0  0  0  0  0  0  0  0  0
    6.2780   -8.5841  -35.8349 H   0  0  0  0  0  0  0  0  0  0  0  0
   -1.1161   -6.0524  -32.0826 H   0  0  0  0  0  0  0  0  0  0  0  0
    3.9848  -10.2306  -29.1367 H   0  0  0  0  0  0  0  0  0  0  0  0
    1.9287  -10.7131  -32.7936 H   0  0  0  0  0  0  0  0  0  0  0  0
    2.1146  -13.9036  -30.0400 H   0  0  0  0  0  0  0  0  0  0  0  0
    6.2285   -6.3836  -31.7362 H   0  0  0  0  0  0  0  0  0  0  0  0
    2.1028   -7.1612  -28.6129 H   0  0  0  0  0  0  0  0  0  0  0  0
   -1.3585   -6.9754  -34.1703 H   0  0  0  0  0  0  0  0  0  0  0  0
   -1.0832   -8.7024  -33.9919 H   0  0  0  0  0  0  0  0  0  0  0  0
    3.3226  -10.7845  -35.7873 H   0  0  0  0  0  0  0  0  0  0  0  0
    4.9916  -10.8682  -36.3333 H   0  0  0  0  0  0  0  0  0  0  0  0
   -0.3350   -7.5761  -36.0198 H   0  0  0  0  0  0  0  0  0  0  0  0
    3.8298   -9.9034  -37.9631 H   0  0  0  0  0  0  0  0  0  0  0  0
    0.6420  -15.1020  -33.0711 H   0  0  0  0  0  0  0  0  0  0  0  0
    1.0509  -15.0458  -31.3733 H   0  0  0  0  0  0  0  0  0  0  0  0
    2.3124  -14.9580  -32.5791 H   0  0  0  0  0  0  0  0  0  0  0  0
    3.7354  -14.2897  -26.9358 H   0  0  0  0  0  0  0  0  0  0  0  0
    3.9420  -14.6622  -28.6304 H   0  0  0  0  0  0  0  0  0  0  0  0
    2.3417  -14.3877  -27.9850 H   0  0  0  0  0  0  0  0  0  0  0  0
  1  3  1  0  0  0  0
  1  4  2  0  0  0  0
  1  9  1  0  0  0  0
  2  3  1  0  0  0  0
  2  5  2  0  0  0  0
  2  8  1  0  0  0  0
  3 10  1  0  0  0  0
  3 32  1  1  0  0  0
  4  7  1  0  0  0  0
  4 23  1  0  0  0  0
  5  6  1  0  0  0  0
  5 22  1  0  0  0  0
  6 17  2  0  0  0  0
  6 11  1  0  0  0  0
  7 18  2  0  0  0  0
  7 12  1  0  0  0  0
  8 14  1  0  0  0  0
  9 13  1  0  0  0  0
 10 15  2  0  0  0  0
 10 16  1  0  0  0  0
 11 14  2  0  0  0  0
 11 33  1  0  0  0  0
 12 13  2  0  0  0  0
 12 34  1  0  0  0  0
 13 26  1  0  0  0  0
 14 27  1  0  0  0  0
 15 21  1  0  0  0  0
 15 35  1  0  0  0  0
 16 20  2  0  0  0  0
 16 36  1  0  0  0  0
 19 20  1  0  0  0  0
 19 21  2  0  0  0  0
 19 37  1  0  0  0  0
 20 24  1  0  0  0  0
 21 25  1  0  0  0  0
 22 38  1  0  0  0  0
 23 39  1  0  0  0  0
 24 30  1  0  0  0  0
 25 31  1  0  0  0  0
 26 28  1  0  0  0  0
 26 40  1  0  0  0  0
 26 41  1  0  0  0  0
 27 29  1  0  0  0  0
 27 42  1  0  0  0  0
 27 43  1  0  0  0  0
 28 44  1  0  0  0  0
 29 45  1  0  0  0  0
 30 46  1  0  0  0  0
 30 47  1  0  0  0  0
 30 48  1  0  0  0  0
 31 49  1  0  0  0  0
 31 50  1  0  0  0  0
 31 51  1  0  0  0  0
M  END
$$$$
