##########                                Name: HTS1710-00564397-01
##########                    Molecular_Weight:             381.387
##########                DOCK_Rotatable_Bonds:                   8
##########                       Formal_Charge:                  -2
##########                     HBond_Acceptors:                  10
##########                        HBond_Donors:                   0
##########                         Heavy_Atoms:                  25
##########                          Grid_Score:          -75.662094
##########                     Grid_vdw_energy:          -40.527462
##########                      Grid_es_energy:          -35.134628
##########           Internal_energy_repulsive:           10.069751

@<TRIPOS>MOLECULE
HTS1710-00564397-01
 36 37 1 0 0
SMALL
USER_CHARGES


@<TRIPOS>ATOM
      1 N           2.9780  -11.8225  -30.4738 N.am    1  UNL1       -0.2498
      2 C           2.4779  -11.2133  -31.6211 C.2     1  UNL1        0.2586
      3 C           3.3354  -13.1506  -30.6405 C.2     1  UNL1        0.1209
      4 C           3.1150  -11.1098  -29.1872 C.3     1  UNL1        0.0604
      5 C           2.4651  -12.1809  -32.7445 C.2     1  UNL1        0.0772
      6 O           2.1074  -10.0519  -31.6765 O.2     1  UNL1       -0.2690
      7 S           3.0632  -13.7683  -32.2955 S.3     1  UNL1       -0.0610
      8 S           3.9750  -14.1257  -29.4362 S.2     1  UNL1       -0.0272
      9 C           3.9588   -9.8442  -29.3675 C.2     1  UNL1        0.0595
     10 C           2.0227  -11.8147  -34.0000 C.2     1  UNL1       -0.0356
     11 O           4.9402   -9.9268  -30.0858 O.co2   1  UNL1       -0.5482
     12 O           3.5925   -8.8409  -28.7809 O.co2   1  UNL1       -0.5482
     13 C           1.4800  -10.5727  -34.6340 C.ar    1  UNL1       -0.0201
     14 C           2.0604  -10.1392  -35.8430 C.ar    1  UNL1       -0.0091
     15 C           0.4296   -9.8119  -34.0824 C.ar    1  UNL1       -0.0509
     16 C           1.6073   -8.9709  -36.4931 C.ar    1  UNL1        0.1621
     17 C          -0.0241   -8.6476  -34.7189 C.ar    1  UNL1       -0.0157
     18 C           0.5636   -8.2174  -35.9259 C.ar    1  UNL1        0.1625
     19 O           2.1704   -8.5325  -37.6797 O.3     1  UNL1       -0.4914
     20 O           0.1461   -7.0674  -36.5762 O.3     1  UNL1       -0.4826
     21 C           3.2827   -9.1866  -38.3142 C.3     1  UNL1        0.0790
     22 C          -1.0093   -6.2978  -36.1764 C.3     1  UNL1        0.1288
     23 C          -1.1849   -5.0370  -37.0394 C.2     1  UNL1        0.0789
     24 O          -0.8492   -5.0916  -38.2099 O.co2   1  UNL1       -0.5463
     25 O          -1.6069   -4.0441  -36.4741 O.co2   1  UNL1       -0.5463
     26 H           3.5907  -11.7528  -28.4764 H       1  UNL1        0.0530
     27 H           2.1424  -10.8327  -28.8377 H       1  UNL1        0.0530
     28 H           2.0812  -12.5959  -34.6717 H       1  UNL1        0.0636
     29 H           2.8300  -10.6856  -36.2604 H       1  UNL1        0.0661
     30 H          -0.0107  -10.1152  -33.1996 H       1  UNL1        0.0625
     31 H          -0.7938   -8.1018  -34.3008 H       1  UNL1        0.0655
     32 H           3.5370   -8.6657  -39.2135 H       1  UNL1        0.0660
     33 H           3.0160  -10.1957  -38.5498 H       1  UNL1        0.0660
     34 H           4.1227   -9.1851  -37.6514 H       1  UNL1        0.0660
     35 H          -0.8924   -6.0039  -35.1541 H       1  UNL1        0.0760
     36 H          -1.8768   -6.9110  -36.3045 H       1  UNL1        0.0760
@<TRIPOS>BOND
     1     1     2   am
     2     1     3    1
     3     1     4    1
     4     2     5    1
     5     2     6    2
     6     3     7    1
     7     3     8    2
     8     4     9    1
     9     5    10    2
    10     9    11   ar
    11     9    12   ar
    12    10    13    1
    13    13    14   ar
    14    13    15   ar
    15    14    16   ar
    16    15    17   ar
    17    16    18   ar
    18    16    19    1
    19    18    20    1
    20    19    21    1
    21    20    22    1
    22    22    23    1
    23    23    24   ar
    24    23    25   ar
    25     5     7    1
    26    17    18   ar
    27     4    26    1
    28     4    27    1
    29    10    28    1
    30    14    29    1
    31    15    30    1
    32    17    31    1
    33    21    32    1
    34    21    33    1
    35    21    34    1
    36    22    35    1
    37    22    36    1
@<TRIPOS>SUBSTRUCTURE
     1 UNL1        1 TEMP              0 ****  ****    0 ROOT


