##########                                Name: HTS1710-02601629-01
##########                    Molecular_Weight:             325.277
##########                DOCK_Rotatable_Bonds:                   6
##########                       Formal_Charge:                  -2
##########                     HBond_Acceptors:                   7
##########                        HBond_Donors:                   1
##########                         Heavy_Atoms:                  24
##########                          Grid_Score:          -74.728027
##########                     Grid_vdw_energy:          -36.369850
##########                      Grid_es_energy:          -38.358177
##########           Internal_energy_repulsive:            4.743176

@<TRIPOS>MOLECULE
HTS1710-02601629-01
 35 36 1 0 0
SMALL
USER_CHARGES


@<TRIPOS>ATOM
      1 C           3.3922  -10.2269  -30.9385 C.ar    1  UNL1        0.0068
      2 C           3.1330  -11.3660  -30.1336 C.ar    1  UNL1        0.0062
      3 C           2.9754  -10.2236  -32.2851 C.ar    1  UNL1       -0.0414
      4 C           2.2915  -11.3196  -32.8403 C.ar    1  UNL1        0.0229
      5 C           4.0831   -8.9985  -30.4094 C.2     1  UNL1        0.0723
      6 C           1.8756  -11.2904  -34.2894 C.2     1  UNL1        0.1932
      7 C           3.5829  -11.4703  -28.7017 C.2     1  UNL1        0.0723
      8 C           2.4512  -12.4619  -30.6956 C.ar    1  UNL1       -0.0516
      9 C          -0.9251   -5.3903  -35.7634 C.2     1  UNL1        0.2141
     10 C           1.2006  -10.0569  -34.8286 C.ar    1  UNL1        0.0224
     11 N          -0.6935   -6.6113  -36.3907 N.am    1  UNL1       -0.2857
     12 C           2.0375  -12.4433  -32.0340 C.ar    1  UNL1       -0.0503
     13 O           5.0203   -8.5598  -31.0515 O.co2   1  UNL1       -0.5446
     14 O           4.7419  -11.7883  -28.4966 O.co2   1  UNL1       -0.5446
     15 O           2.0779  -12.2506  -35.0144 O.2     1  UNL1       -0.2867
     16 O          -0.5719   -5.1813  -34.6156 O.2     1  UNL1       -0.2758
     17 C           1.5831   -9.4978  -36.0627 C.ar    1  UNL1       -0.0492
     18 C           0.1376   -9.4718  -34.1171 C.ar    1  UNL1       -0.0492
     19 C          -0.0985   -7.7396  -35.8258 C.ar    1  UNL1        0.0334
     20 O           3.6718   -8.5457  -29.3544 O.co2   1  UNL1       -0.5446
     21 O           2.7444  -11.2570  -27.8416 O.co2   1  UNL1       -0.5446
     22 C          -0.5093   -8.3262  -34.6078 C.ar    1  UNL1       -0.0398
     23 C           0.9362   -8.3539  -36.5551 C.ar    1  UNL1       -0.0398
     24 C          -1.5957   -4.2950  -36.5913 C.3     1  UNL1        0.0125
     25 H           3.1762   -9.4009  -32.8749 H       1  UNL1        0.0631
     26 H           2.2533  -13.2908  -30.1135 H       1  UNL1        0.0624
     27 H          -0.9790   -6.6863  -37.3299 H       1  UNL1        0.1548
     28 H           1.5439  -13.2584  -32.4301 H       1  UNL1        0.0625
     29 H           2.3437   -9.9318  -36.6086 H       1  UNL1        0.0625
     30 H          -0.1703   -9.8891  -33.2248 H       1  UNL1        0.0625
     31 H          -1.2895   -7.9101  -34.0756 H       1  UNL1        0.0636
     32 H           1.2231   -7.9581  -37.4640 H       1  UNL1        0.0636
     33 H          -1.8274   -4.6749  -37.5644 H       1  UNL1        0.0323
     34 H          -0.9323   -3.4605  -36.6828 H       1  UNL1        0.0323
     35 H          -2.4969   -3.9826  -36.1064 H       1  UNL1        0.0323
@<TRIPOS>BOND
     1     1     2   ar
     2     1     3   ar
     3     1     5    1
     4     2     7    1
     5     2     8   ar
     6     3     4   ar
     7     4     6    1
     8     4    12   ar
     9     5    13   ar
    10     5    20   ar
    11     6    10    1
    12     6    15    2
    13     7    14   ar
    14     7    21   ar
    15     8    12   ar
    16     9    11   am
    17     9    16    2
    18     9    24    1
    19    10    17   ar
    20    10    18   ar
    21    11    19    1
    22    17    23   ar
    23    18    22   ar
    24    19    22   ar
    25    19    23   ar
    26     3    25    1
    27     8    26    1
    28    11    27    1
    29    12    28    1
    30    17    29    1
    31    18    30    1
    32    22    31    1
    33    23    32    1
    34    24    33    1
    35    24    34    1
    36    24    35    1
@<TRIPOS>SUBSTRUCTURE
     1 UNL1        1 TEMP              0 ****  ****    0 ROOT


