##########                                Name: HTS1710-01640275-01
##########                    Molecular_Weight:             301.322
##########                DOCK_Rotatable_Bonds:                   7
##########                       Formal_Charge:                  -2
##########                     HBond_Acceptors:                   6
##########                        HBond_Donors:                   0
##########                         Heavy_Atoms:                  22
##########                          Grid_Score:          -77.551071
##########                     Grid_vdw_energy:          -36.015747
##########                      Grid_es_energy:          -41.535328
##########           Internal_energy_repulsive:            9.980246

@<TRIPOS>MOLECULE
HTS1710-01640275-01
 39 40 1 0 0
SMALL
USER_CHARGES


@<TRIPOS>ATOM
      1 C           0.7489  -12.4690  -35.6197 C.3     1  UNL1       -0.0639
      2 C           1.7342  -11.8635  -34.5969 C.3     1  UNL1       -0.0400
      3 C           2.5184  -10.6541  -35.1600 C.3     1  UNL1        0.0152
      4 N           3.4761  -10.0896  -34.1774 N.am    1  UNL1       -0.2908
      5 C           4.8862  -10.1038  -34.6567 C.3     1  UNL1        0.0544
      6 C           5.1224   -9.0973  -35.7952 C.2     1  UNL1        0.0590
      7 O           4.3857   -9.1505  -36.7660 O.co2   1  UNL1       -0.5482
      8 O           6.0373   -8.3063  -35.6463 O.co2   1  UNL1       -0.5482
      9 C           3.0092   -9.4527  -33.0063 C.2     1  UNL1        0.2647
     10 O           1.8173   -9.3929  -32.7540 O.2     1  UNL1       -0.2683
     11 C           4.0298   -8.9034  -32.0537 C.2     1  UNL1        0.1182
     12 N           4.7753   -7.7854  -32.2688 N.2     1  UNL1       -0.2654
     13 C           5.6752   -7.7992  -31.2999 C.2     1  UNL1       -0.0363
     14 O           5.6363   -8.8644  -30.4273 O.co2   1  UNL1       -0.7709
     15 C           4.5504   -9.5157  -30.9403 C.2     1  UNL1       -0.0550
     16 C           3.9611  -10.6558  -30.2085 C.ar    1  UNL1       -0.0295
     17 C           3.4419  -10.5422  -28.9000 C.ar    1  UNL1       -0.0548
     18 C           2.9220  -11.6640  -28.2337 C.ar    1  UNL1       -0.0583
     19 C           2.9298  -12.9259  -28.8505 C.ar    1  UNL1       -0.0504
     20 C           2.3647  -14.1388  -28.1262 C.3     1  UNL1       -0.0397
     21 C           3.4807  -13.0554  -30.1357 C.ar    1  UNL1       -0.0583
     22 C           4.0026  -11.9347  -30.8003 C.ar    1  UNL1       -0.0548
     23 H           0.2381  -13.2976  -35.1755 H       1  UNL1        0.0230
     24 H           1.2891  -12.8031  -36.4808 H       1  UNL1        0.0230
     25 H           0.0365  -11.7259  -35.9118 H       1  UNL1        0.0230
     26 H           2.4340  -12.6196  -34.3078 H       1  UNL1        0.0278
     27 H           1.1593  -11.5144  -33.7647 H       1  UNL1        0.0278
     28 H           1.8207   -9.8914  -35.4362 H       1  UNL1        0.0465
     29 H           3.0818  -10.9963  -36.0029 H       1  UNL1        0.0465
     30 H           5.1199  -11.0860  -35.0110 H       1  UNL1        0.0526
     31 H           5.5149   -9.8260  -33.8367 H       1  UNL1        0.0526
     32 H           6.3744   -7.0466  -31.2020 H       1  UNL1        0.0668
     33 H           3.4446   -9.6244  -28.4280 H       1  UNL1        0.0623
     34 H           2.5315  -11.5604  -27.2840 H       1  UNL1        0.0620
     35 H           1.9936  -13.8409  -27.1678 H       1  UNL1        0.0278
     36 H           3.1358  -14.8695  -27.9988 H       1  UNL1        0.0278
     37 H           1.5670  -14.5588  -28.7027 H       1  UNL1        0.0278
     38 H           3.5021  -13.9798  -30.5940 H       1  UNL1        0.0620
     39 H           4.4229  -12.0485  -31.7359 H       1  UNL1        0.0623
@<TRIPOS>BOND
     1     1     2    1
     2     2     3    1
     3     3     4    1
     4     4     5    1
     5     5     6    1
     6     6     7   ar
     7     6     8   ar
     8     4     9   am
     9     9    10    2
    10     9    11    1
    11    11    12    1
    12    12    13    2
    13    13    14    1
    14    14    15    1
    15    11    15    2
    16    15    16    1
    17    16    17   ar
    18    17    18   ar
    19    18    19   ar
    20    19    20    1
    21    19    21   ar
    22    21    22   ar
    23    16    22   ar
    24     1    23    1
    25     1    24    1
    26     1    25    1
    27     2    26    1
    28     2    27    1
    29     3    28    1
    30     3    29    1
    31     5    30    1
    32     5    31    1
    33    13    32    1
    34    17    33    1
    35    18    34    1
    36    20    35    1
    37    20    36    1
    38    20    37    1
    39    21    38    1
    40    22    39    1
@<TRIPOS>SUBSTRUCTURE
     1 UNL1        1 TEMP              0 ****  ****    0 ROOT


