##########                                Name: HTS1710-05410667-01
##########                    Molecular_Weight:             308.354
##########                DOCK_Rotatable_Bonds:                   7
##########                       Formal_Charge:                  -2
##########                     HBond_Acceptors:                   6
##########                        HBond_Donors:                   1
##########                         Heavy_Atoms:                  22
##########                          Grid_Score:          -76.291595
##########                     Grid_vdw_energy:          -37.119907
##########                      Grid_es_energy:          -39.171684
##########           Internal_energy_repulsive:           11.735950

@<TRIPOS>MOLECULE
HTS1710-05410667-01
 44 45 1 0 0
SMALL
USER_CHARGES


@<TRIPOS>ATOM
      1 C           0.9806   -9.7162  -34.8626 C.3     1  UNL1       -0.0597
      2 C           1.9224  -10.4225  -35.8665 C.3     1  UNL1       -0.0340
      3 C           1.6860  -11.9535  -35.8537 C.3     1  UNL1       -0.0597
      4 C           3.3713  -10.0674  -35.5809 C.2     1  UNL1       -0.1031
      5 O           4.0060   -9.1472  -36.3775 O.co2   1  UNL1       -0.7873
      6 C           5.2488   -9.1090  -35.8057 C.2     1  UNL1       -0.1333
      7 C           5.4013   -9.9451  -34.7314 C.2     1  UNL1       -0.0644
      8 C           4.1498  -10.5971  -34.5722 C.2     1  UNL1        0.0252
      9 C           3.8230  -11.6146  -33.5452 C.2     1  UNL1        0.2432
     10 O           4.1831  -12.7767  -33.6152 O.2     1  UNL1       -0.2702
     11 N           3.0730  -11.2060  -32.4513 N.am    1  UNL1       -0.3107
     12 C           2.6881  -12.1225  -31.3713 C.3     1  UNL1        0.0201
     13 C           3.7768  -12.1397  -30.2608 C.3     1  UNL1        0.0171
     14 C           3.6828  -13.4381  -29.3915 C.3     1  UNL1       -0.0275
     15 C           4.9122  -13.6176  -28.4570 C.3     1  UNL1       -0.0259
     16 C           4.7838  -14.9064  -27.6121 C.3     1  UNL1        0.0479
     17 O           3.5441  -14.8481  -26.8783 O.3     1  UNL1       -0.3797
     18 C           2.3636  -14.8430  -27.7075 C.3     1  UNL1        0.0479
     19 C           2.3692  -13.5550  -28.5650 C.3     1  UNL1       -0.0259
     20 C           3.7669  -10.8476  -29.4119 C.2     1  UNL1        0.0466
     21 O           2.6924  -10.3180  -29.1867 O.co2   1  UNL1       -0.5495
     22 O           4.8501  -10.4071  -29.0650 O.co2   1  UNL1       -0.5495
     23 H          -0.0337   -9.9785  -35.0800 H       1  UNL1        0.0235
     24 H           1.1006   -8.6562  -34.9461 H       1  UNL1        0.0235
     25 H           1.2235  -10.0253  -33.8676 H       1  UNL1        0.0235
     26 H           1.6976  -10.0746  -36.8531 H       1  UNL1        0.0332
     27 H           1.9013  -12.3396  -34.8793 H       1  UNL1        0.0235
     28 H           2.3279  -12.4195  -36.5719 H       1  UNL1        0.0235
     29 H           0.6655  -12.1589  -36.1012 H       1  UNL1        0.0235
     30 H           6.0068   -8.5017  -36.1543 H       1  UNL1        0.0455
     31 H           6.2491  -10.0743  -34.1574 H       1  UNL1        0.0613
     32 H           2.7882  -10.2652  -32.3976 H       1  UNL1        0.1490
     33 H           2.5753  -13.1092  -31.7697 H       1  UNL1        0.0468
     34 H           1.7642  -11.7896  -30.9465 H       1  UNL1        0.0468
     35 H           4.7301  -12.1613  -30.7464 H       1  UNL1        0.0378
     36 H           3.6744  -14.2324  -30.1084 H       1  UNL1        0.0309
     37 H           4.9791  -12.7747  -27.8014 H       1  UNL1        0.0290
     38 H           5.7915  -13.6933  -29.0620 H       1  UNL1        0.0290
     39 H           5.6050  -14.9741  -26.9294 H       1  UNL1        0.0560
     40 H           4.7939  -15.7660  -28.2491 H       1  UNL1        0.0560
     41 H           1.4895  -14.8617  -27.0906 H       1  UNL1        0.0560
     42 H           2.3581  -15.7048  -28.3417 H       1  UNL1        0.0560
     43 H           2.2854  -12.7053  -27.9201 H       1  UNL1        0.0290
     44 H           1.5430  -13.5948  -29.2437 H       1  UNL1        0.0290
@<TRIPOS>BOND
     1     1     2    1
     2     2     3    1
     3     2     4    1
     4     4     5    1
     5     5     6    1
     6     6     7    2
     7     7     8    1
     8     4     8    2
     9     8     9    1
    10     9    10    2
    11     9    11   am
    12    11    12    1
    13    12    13    1
    14    13    14    1
    15    14    15    1
    16    15    16    1
    17    16    17    1
    18    17    18    1
    19    18    19    1
    20    14    19    1
    21    13    20    1
    22    20    21   ar
    23    20    22   ar
    24     1    23    1
    25     1    24    1
    26     1    25    1
    27     2    26    1
    28     3    27    1
    29     3    28    1
    30     3    29    1
    31     6    30    1
    32     7    31    1
    33    11    32    1
    34    12    33    1
    35    12    34    1
    36    13    35    1
    37    14    36    1
    38    15    37    1
    39    15    38    1
    40    16    39    1
    41    16    40    1
    42    18    41    1
    43    18    42    1
    44    19    43    1
    45    19    44    1
@<TRIPOS>SUBSTRUCTURE
     1 UNL1        1 TEMP              0 ****  ****    0 ROOT


