HTS1710-02633111-01
 OpenBabel03232612353D

 21 21  0  0  0  0  0  0  0  0999 V2000
    4.5145   -8.4192  -30.9581 C   0  0  0  0  0  0  0  0  0  0  0  0
    4.3850   -9.2945  -29.9193 C   0  0  0  0  0  0  0  0  0  0  0  0
    3.5249   -7.3348  -31.3017 C   0  0  0  0  0  0  0  0  0  0  0  0
    5.6351   -8.4753  -31.7707 O   0  0  0  0  0  0  0  0  0  0  0  0
    3.2741   -9.4200  -28.9196 C   0  0  0  0  0  0  0  0  0  0  0  0
    5.3894   -8.9274  -33.0531 C   0  0  0  0  0  0  0  0  0  0  0  0
    3.8918   -6.1796  -31.1647 O   0  5  0  0  0  0  0  0  0  0  0  0
    5.9711   -8.2588  -34.1483 C   0  0  0  0  0  0  0  0  0  0  0  0
    3.0513   -8.4858  -28.1694 O   0  5  0  0  0  0  0  0  0  0  0  0
    2.4209   -7.6643  -31.7034 O   0  0  0  0  0  0  0  0  0  0  0  0
    6.9688   -6.8372  -33.8964 Cl  0  0  0  0  0  0  0  0  0  0  0  0
    2.6601  -10.4721  -28.9216 O   0  0  0  0  0  0  0  0  0  0  0  0
    4.6042  -10.0778  -33.2761 C   0  0  0  0  0  0  0  0  0  0  0  0
    5.7526   -8.7254  -35.4558 C   0  0  0  0  0  0  0  0  0  0  0  0
    4.3920  -10.5423  -34.5834 C   0  0  0  0  0  0  0  0  0  0  0  0
    4.9636   -9.8664  -35.6726 C   0  0  0  0  0  0  0  0  0  0  0  0
    5.1613   -9.9649  -29.8054 H   0  0  0  0  0  0  0  0  0  0  0  0
    4.1851  -10.5786  -32.4769 H   0  0  0  0  0  0  0  0  0  0  0  0
    6.1723   -8.2290  -36.2573 H   0  0  0  0  0  0  0  0  0  0  0  0
    3.8147  -11.3825  -34.7441 H   0  0  0  0  0  0  0  0  0  0  0  0
    4.8039  -10.2081  -36.6331 H   0  0  0  0  0  0  0  0  0  0  0  0
  1  2  2  0  0  0  0
  1  3  1  0  0  0  0
  1  4  1  0  0  0  0
  2  5  1  0  0  0  0
  2 17  1  0  0  0  0
  3  7  1  0  0  0  0
  3 10  2  0  0  0  0
  4  6  1  0  0  0  0
  5  9  1  0  0  0  0
  5 12  2  0  0  0  0
  6  8  2  0  0  0  0
  6 13  1  0  0  0  0
  8 11  1  0  0  0  0
  8 14  1  0  0  0  0
 13 15  2  0  0  0  0
 13 18  1  0  0  0  0
 14 16  2  0  0  0  0
 14 19  1  0  0  0  0
 15 16  1  0  0  0  0
 15 20  1  0  0  0  0
 16 21  1  0  0  0  0
M  CHG  2   7  -1   9  -1
M  END
$$$$
