##########                                Name: HTS1710-00235979-01
##########                    Molecular_Weight:             324.252
##########                DOCK_Rotatable_Bonds:                   6
##########                       Formal_Charge:                  -2
##########                     HBond_Acceptors:                   9
##########                        HBond_Donors:                   0
##########                         Heavy_Atoms:                  24
##########                          Grid_Score:          -75.558014
##########                     Grid_vdw_energy:          -41.185520
##########                      Grid_es_energy:          -34.372494
##########           Internal_energy_repulsive:            2.725388

@<TRIPOS>MOLECULE
HTS1710-00235979-01
 32 34 1 0 0
SMALL
USER_CHARGES


@<TRIPOS>ATOM
      1 N           6.6313  -16.1356  -27.1503 N.ar    1  UNL1       -0.2071
      2 C           3.9185  -12.8971  -30.6787 C.ar    1  UNL1        0.1358
      3 O           4.8222  -13.3760  -29.7696 O.2     1  UNL1       -0.4539
      4 N           8.0976  -16.9025  -25.7013 N.ar    1  UNL1       -0.1363
      5 N           6.9528  -17.6743  -25.6145 N.ar    1  UNL1       -0.1363
      6 C           4.2438  -11.7464  -31.5464 C.ar    1  UNL1        0.0185
      7 C           4.6028  -10.8748  -33.8164 C.ar    1  UNL1       -0.0014
      8 C           4.8283   -9.3823  -31.8811 C.ar    1  UNL1       -0.0014
      9 C           7.8929  -15.9830  -26.6273 C.ar    1  UNL1        0.1414
     10 C           6.0849  -17.2033  -26.4920 C.ar    1  UNL1        0.1414
     11 N           6.0128  -15.4005  -28.1425 N.2     1  UNL1       -0.1688
     12 C           2.7083  -13.5400  -30.7200 C.ar    1  UNL1       -0.0152
     13 C           4.1019  -14.3982  -29.2020 C.ar    1  UNL1        0.1482
     14 C           4.6524  -11.1058  -35.3124 C.2     1  UNL1        0.0717
     15 C           5.1160   -8.0078  -31.3097 C.2     1  UNL1        0.0717
     16 C           4.5156  -10.4619  -31.0274 C.ar    1  UNL1       -0.0422
     17 C           4.2896  -11.9345  -32.9413 C.ar    1  UNL1       -0.0422
     18 C           4.8698   -9.6021  -33.2740 C.ar    1  UNL1       -0.0440
     19 C           4.7399  -15.1767  -28.1466 C.2     1  UNL1        0.0906
     20 C           2.8375  -14.5442  -29.7288 C.ar    1  UNL1       -0.0143
     21 O           4.1664   -7.3450  -30.9284 O.co2   1  UNL1       -0.5446
     22 O           4.7802  -12.2536  -35.7031 O.co2   1  UNL1       -0.5446
     23 O           4.5616  -10.1301  -36.0390 O.co2   1  UNL1       -0.5446
     24 O           6.2797   -7.6462  -31.2663 O.co2   1  UNL1       -0.5446
     25 H           8.5741  -15.2626  -26.9134 H       1  UNL1        0.1067
     26 H           5.1392  -17.5827  -26.6559 H       1  UNL1        0.1067
     27 H           1.8980  -13.3404  -31.3270 H       1  UNL1        0.0656
     28 H           4.4851  -10.3098  -30.0071 H       1  UNL1        0.0631
     29 H           4.0895  -12.8688  -33.3313 H       1  UNL1        0.0631
     30 H           5.0994   -8.8187  -33.9053 H       1  UNL1        0.0630
     31 H           4.1600  -15.5588  -27.3833 H       1  UNL1        0.0885
     32 H           2.1284  -15.2429  -29.4567 H       1  UNL1        0.0656
@<TRIPOS>BOND
     1     2     3   ar
     2     3    13   ar
     3     4     9   ar
     4     5    10   ar
     5     2     6    1
     6     7    17   ar
     7     8    16   ar
     8     1     9   ar
     9     1    10   ar
    10     1    11    1
    11    12    20   ar
    12    13    19    1
    13     7    14    1
    14     8    15    1
    15     6    16   ar
    16     6    17   ar
    17     7    18   ar
    18    11    19    2
    19    13    20   ar
    20    15    21   ar
    21    14    22   ar
    22    14    23   ar
    23    15    24   ar
    24     4     5   ar
    25     2    12   ar
    26     8    18   ar
    27     9    25    1
    28    10    26    1
    29    12    27    1
    30    16    28    1
    31    17    29    1
    32    18    30    1
    33    19    31    1
    34    20    32    1
@<TRIPOS>SUBSTRUCTURE
     1 UNL1        1 TEMP              0 ****  ****    0 ROOT


