HTS1710-01449665-01
 OpenBabel03232612363D

 30 30  0  0  0  0  0  0  0  0999 V2000
    6.1908  -16.0558  -27.5136 N   0  0  0  0  0  0  0  0  0  0  0  0
    3.3186  -10.2439  -31.0070 C   0  0  0  0  0  0  0  0  0  0  0  0
    2.8164  -11.3849  -30.6204 N   0  0  0  0  0  0  0  0  0  0  0  0
    3.9473   -9.2556  -30.0232 C   0  0  0  0  0  0  0  0  0  0  0  0
    5.3055  -14.9497  -27.9883 C   0  0  0  0  0  0  0  0  0  0  0  0
    7.1684  -15.7640  -26.8296 O   0  5  0  0  0  0  0  0  0  0  0  0
    5.9007  -17.2075  -27.8271 O   0  0  0  0  0  0  0  0  0  0  0  0
    2.7717  -11.8616  -29.3469 N   0  0  0  0  0  0  0  0  0  0  0  0
    5.4116   -8.5000  -33.1380 C   0  0  0  0  0  0  0  0  0  0  0  0
    3.2865   -9.8602  -32.4911 C   0  0  0  0  0  0  0  0  0  0  0  0
    5.1646   -9.2627  -29.9517 O   0  5  0  0  0  0  0  0  0  0  0  0
    5.0363   -7.6368  -32.3626 O   0  5  0  0  0  0  0  0  0  0  0  0
    4.1580  -15.2330  -28.7573 C   0  0  0  0  0  0  0  0  0  0  0  0
    5.6063  -13.6073  -27.6732 C   0  0  0  0  0  0  0  0  0  0  0  0
    3.6251  -12.8549  -28.8868 C   0  0  0  0  0  0  0  0  0  0  0  0
    4.7113   -9.8720  -33.1057 C   0  0  0  0  0  0  0  0  0  0  0  0
    3.2446   -8.5119  -29.3590 O   0  0  0  0  0  0  0  0  0  0  0  0
    6.3091   -8.3690  -33.9508 O   0  0  0  0  0  0  0  0  0  0  0  0
    3.3264  -14.1923  -29.2015 C   0  0  0  0  0  0  0  0  0  0  0  0
    4.7736  -12.5683  -28.1183 C   0  0  0  0  0  0  0  0  0  0  0  0
    5.5273  -16.5738  -28.0242 H   0  0  0  0  0  0  0  0  0  0  0  0
    2.1063  -11.4865  -28.7258 H   0  0  0  0  0  0  0  0  0  0  0  0
    2.8726   -8.8783  -32.5887 H   0  0  0  0  0  0  0  0  0  0  0  0
    2.6869  -10.5765  -33.0130 H   0  0  0  0  0  0  0  0  0  0  0  0
    3.9281  -16.2106  -28.9950 H   0  0  0  0  0  0  0  0  0  0  0  0
    6.4439  -13.3880  -27.1117 H   0  0  0  0  0  0  0  0  0  0  0  0
    5.3165  -10.5413  -32.5307 H   0  0  0  0  0  0  0  0  0  0  0  0
    4.5974  -10.1765  -34.1251 H   0  0  0  0  0  0  0  0  0  0  0  0
    2.4891  -14.4110  -29.7637 H   0  0  0  0  0  0  0  0  0  0  0  0
    5.0025  -11.5900  -27.8824 H   0  0  0  0  0  0  0  0  0  0  0  0
  1  5  1  0  0  0  0
  1  6  1  0  0  0  0
  1  7  2  0  0  0  0
  1 21  1  0  0  0  0
  2  3  2  0  0  0  0
  2  4  1  0  0  0  0
  2 10  1  0  0  0  0
  3  8  1  0  0  0  0
  4 11  1  0  0  0  0
  4 17  2  0  0  0  0
  5 13  2  0  0  0  0
  5 14  1  0  0  0  0
  8 15  1  0  0  0  0
  8 22  1  0  0  0  0
  9 16  1  0  0  0  0
  9 12  1  0  0  0  0
  9 18  2  0  0  0  0
 10 16  1  0  0  0  0
 10 23  1  0  0  0  0
 10 24  1  0  0  0  0
 13 19  1  0  0  0  0
 13 25  1  0  0  0  0
 14 20  2  0  0  0  0
 14 26  1  0  0  0  0
 15 20  1  0  0  0  0
 15 19  2  0  0  0  0
 16 27  1  0  0  0  0
 16 28  1  0  0  0  0
 19 29  1  0  0  0  0
 20 30  1  0  0  0  0
M  CHG  3   6  -1  11  -1  12  -1
M  END
$$$$
