##########                                Name: HTS1710-01164314-01
##########                    Molecular_Weight:             343.336
##########                DOCK_Rotatable_Bonds:                   7
##########                       Formal_Charge:                  -2
##########                     HBond_Acceptors:                   7
##########                        HBond_Donors:                   3
##########                         Heavy_Atoms:                  25
##########                          Grid_Score:          -78.286865
##########                     Grid_vdw_energy:          -39.240437
##########                      Grid_es_energy:          -39.046429
##########           Internal_energy_repulsive:            4.679095

@<TRIPOS>MOLECULE
HTS1710-01164314-01
 42 44 1 0 0
SMALL
USER_CHARGES


@<TRIPOS>ATOM
      1 C           4.4091   -7.2641  -31.4767 C.2     1  UNL1       -0.0555
      2 C           4.9949   -8.1806  -32.3344 C.2     1  UNL1       -0.1091
      3 C           3.7796   -9.9710  -31.0506 C.2     1  UNL1        0.0538
      4 C           3.2762   -8.9656  -30.2768 C.2     1  UNL1       -0.0306
      5 O           3.4897   -7.6353  -30.5239 O.co2   1  UNL1       -0.7688
      6 C           4.6005   -9.6324  -32.3002 C.3     1  UNL1        0.0283
      7 C           4.7520   -5.8378  -31.5562 C.2     1  UNL1        0.1708
      8 O           5.9272   -7.8500  -33.2992 O.co2   1  UNL1       -0.7839
      9 C           5.7363   -5.5350  -32.5919 C.2     1  UNL1       -0.0241
     10 C           3.5450  -11.4477  -30.7730 C.2     1  UNL1        0.3367
     11 C           6.2696   -6.5189  -33.3945 C.2     1  UNL1       -0.0886
     12 C           3.8368  -10.0051  -33.5729 C.ar    1  UNL1       -0.0365
     13 N           2.5045   -9.2273  -29.1684 N.pl3   1  UNL1       -0.3685
     14 O           4.2678   -4.9856  -30.8313 O.2     1  UNL1       -0.2886
     15 O           2.4621  -12.0065  -30.8373 O.2     1  UNL1       -0.2453
     16 O           4.7008  -12.0996  -30.4303 O.3     1  UNL1       -0.4616
     17 C           7.2756   -6.1585  -34.4563 C.3     1  UNL1        0.0566
     18 O           6.6407   -5.5798  -35.5936 O.3     1  UNL1       -0.3915
     19 C           4.4686  -10.7425  -34.5931 C.ar    1  UNL1       -0.0577
     20 C           2.4907   -9.6204  -33.7344 C.ar    1  UNL1       -0.0577
     21 C           4.7022  -13.5133  -30.1431 C.3     1  UNL1        0.0900
     22 C           5.0831  -13.7290  -28.6618 C.3     1  UNL1       -0.0306
     23 C           1.7864   -9.9762  -34.8952 C.ar    1  UNL1       -0.0615
     24 C           3.7621  -11.0985  -35.7537 C.ar    1  UNL1       -0.0615
     25 C           2.4207  -10.7162  -35.9042 C.ar    1  UNL1       -0.0617
     26 H           5.4977  -10.2136  -32.2546 H       1  UNL1        0.0437
     27 H           6.0402   -4.5579  -32.7258 H       1  UNL1        0.0647
     28 H           1.9334   -8.5212  -28.7883 H       1  UNL1        0.1413
     29 H           2.5233  -10.1208  -28.7554 H       1  UNL1        0.1413
     30 H           7.7952   -7.0435  -34.7594 H       1  UNL1        0.0596
     31 H           7.9571   -5.4418  -34.0476 H       1  UNL1        0.0596
     32 H           6.5345   -4.6257  -35.4541 H       1  UNL1        0.2098
     33 H           5.4561  -11.0227  -34.4873 H       1  UNL1        0.0621
     34 H           2.0205   -9.0744  -32.9957 H       1  UNL1        0.0621
     35 H           5.4147  -14.0056  -30.7714 H       1  UNL1        0.0695
     36 H           3.7293  -13.9190  -30.3274 H       1  UNL1        0.0695
     37 H           6.0561  -13.3224  -28.4809 H       1  UNL1        0.0262
     38 H           5.0881  -14.7765  -28.4438 H       1  UNL1        0.0262
     39 H           4.3689  -13.2376  -28.0346 H       1  UNL1        0.0262
     40 H           0.8003   -9.6931  -35.0066 H       1  UNL1        0.0618
     41 H           4.2300  -11.6416  -36.4961 H       1  UNL1        0.0618
     42 H           1.9011  -10.9789  -36.7563 H       1  UNL1        0.0618
@<TRIPOS>BOND
     1     1     2    2
     2     3     4    2
     3     4     5    1
     4     1     5    1
     5     2     6    1
     6     1     7    1
     7     2     8    1
     8     7     9    1
     9     3    10    1
    10     9    11    2
    11     6    12    1
    12     4    13    1
    13     7    14    2
    14    10    15    2
    15    10    16    1
    16    11    17    1
    17    17    18    1
    18    12    19   ar
    19    12    20   ar
    20    16    21    1
    21    21    22    1
    22    20    23   ar
    23    19    24   ar
    24    23    25   ar
    25     3     6    1
    26     8    11    1
    27    24    25   ar
    28     6    26    1
    29     9    27    1
    30    13    28    1
    31    13    29    1
    32    17    30    1
    33    17    31    1
    34    18    32    1
    35    19    33    1
    36    20    34    1
    37    21    35    1
    38    21    36    1
    39    22    37    1
    40    22    38    1
    41    22    39    1
    42    23    40    1
    43    24    41    1
    44    25    42    1
@<TRIPOS>SUBSTRUCTURE
     1 UNL1        1 TEMP              0 ****  ****    0 ROOT


