##########                                Name: HTS1710-01225927-01
##########                    Molecular_Weight:             356.288
##########                DOCK_Rotatable_Bonds:                   9
##########                       Formal_Charge:                  -2
##########                     HBond_Acceptors:                   8
##########                        HBond_Donors:                   0
##########                         Heavy_Atoms:                  26
##########                          Grid_Score:          -74.744400
##########                     Grid_vdw_energy:          -37.260536
##########                      Grid_es_energy:          -37.483868
##########           Internal_energy_repulsive:            7.181476

@<TRIPOS>MOLECULE
HTS1710-01225927-01
 38 39 1 0 0
SMALL
USER_CHARGES


@<TRIPOS>ATOM
      1 C          -0.0524   -7.1045  -34.4926 C.ar    1  UNL1        0.0113
      2 C           3.6371  -10.5813  -30.0367 C.ar    1  UNL1        0.0113
      3 C           3.3469  -11.4965  -31.0831 C.ar    1  UNL1        0.0678
      4 C           0.5015   -7.8236  -35.5835 C.ar    1  UNL1        0.0678
      5 C           4.2157   -9.2164  -30.2951 C.2     1  UNL1        0.0724
      6 C           0.2252   -7.4737  -33.0611 C.2     1  UNL1        0.0724
      7 C           1.3181   -9.0738  -35.4023 C.2     1  UNL1        0.3399
      8 C           3.4910  -11.1455  -32.5390 C.2     1  UNL1        0.3399
      9 O           5.4296   -9.1049  -30.2549 O.co2   1  UNL1       -0.5446
     10 O           1.3804   -7.7332  -32.7701 O.co2   1  UNL1       -0.5446
     11 O           2.4864   -9.1441  -35.7498 O.2     1  UNL1       -0.2449
     12 O           4.5768  -10.9416  -33.0597 O.2     1  UNL1       -0.2449
     13 O           3.4271   -8.3114  -30.5069 O.co2   1  UNL1       -0.5446
     14 O          -0.7248   -7.5065  -32.2987 O.co2   1  UNL1       -0.5446
     15 O           2.2991  -11.1297  -33.2106 O.3     1  UNL1       -0.4577
     16 O           0.6138  -10.1074  -34.8426 O.3     1  UNL1       -0.4577
     17 C          -0.8589   -5.9773  -34.7471 C.ar    1  UNL1       -0.0521
     18 C           0.2654   -7.3747  -36.8974 C.ar    1  UNL1       -0.0471
     19 C           3.4145  -10.9678  -28.7007 C.ar    1  UNL1       -0.0521
     20 C           2.8730  -12.7838  -30.7598 C.ar    1  UNL1       -0.0471
     21 C           0.8920  -11.4788  -35.1955 C.3     1  UNL1        0.1268
     22 C           2.0848  -11.9911  -34.3453 C.3     1  UNL1        0.1268
     23 C          -0.5308   -6.2446  -37.1361 C.ar    1  UNL1       -0.0609
     24 C          -1.0999   -5.5513  -36.0607 C.ar    1  UNL1       -0.0611
     25 C           2.9270  -12.2467  -28.3960 C.ar    1  UNL1       -0.0611
     26 C           2.6618  -13.1573  -29.4259 C.ar    1  UNL1       -0.0609
     27 H          -1.2766   -5.4599  -33.9579 H       1  UNL1        0.0624
     28 H           0.6826   -7.8824  -37.6932 H       1  UNL1        0.0626
     29 H           3.6126  -10.3021  -27.9373 H       1  UNL1        0.0624
     30 H           2.6791  -13.4599  -31.5150 H       1  UNL1        0.0626
     31 H           1.1413  -11.5377  -36.2344 H       1  UNL1        0.0732
     32 H           0.0288  -12.0818  -35.0051 H       1  UNL1        0.0732
     33 H           1.8727  -12.9817  -34.0010 H       1  UNL1        0.0732
     34 H           2.9670  -11.9935  -34.9508 H       1  UNL1        0.0732
     35 H          -0.6969   -5.9246  -38.1030 H       1  UNL1        0.0618
     36 H          -1.6963   -4.7274  -36.2352 H       1  UNL1        0.0618
     37 H           2.7638  -12.5166  -27.4134 H       1  UNL1        0.0618
     38 H           2.3113  -14.1021  -29.2030 H       1  UNL1        0.0618
@<TRIPOS>BOND
     1     2     3   ar
     2     3     8    1
     3     1     4   ar
     4     2     5    1
     5     1     6    1
     6     4     7    1
     7     8    15    1
     8     5     9   ar
     9     6    10   ar
    10     7    11    2
    11     8    12    2
    12     5    13   ar
    13     6    14   ar
    14    15    22    1
    15     7    16    1
    16     1    17   ar
    17     4    18   ar
    18     2    19   ar
    19     3    20   ar
    20    16    21    1
    21    21    22    1
    22    23    24   ar
    23    17    24   ar
    24    25    26   ar
    25    20    26   ar
    26    18    23   ar
    27    19    25   ar
    28    17    27    1
    29    18    28    1
    30    19    29    1
    31    20    30    1
    32    21    31    1
    33    21    32    1
    34    22    33    1
    35    22    34    1
    36    23    35    1
    37    24    36    1
    38    25    37    1
    39    26    38    1
@<TRIPOS>SUBSTRUCTURE
     1 UNL1        1 TEMP              0 ****  ****    0 ROOT


