HTS1710-03575865-01
 OpenBabel03232612353D

 50 53  0  0  0  0  0  0  0  0999 V2000
    3.5964  -10.8174  -33.5632 C   0  0  0  0  0  0  0  0  0  0  0  0
    2.0479  -10.2049  -35.6920 C   0  0  0  0  0  0  0  0  0  0  0  0
    3.3528  -10.7321  -31.1544 N   0  0  0  0  0  0  0  0  0  0  0  0
    0.2179   -8.7301  -35.1069 N   0  0  0  0  0  0  0  0  0  0  0  0
    3.0877  -11.4540  -32.3233 C   0  0  0  0  0  0  0  0  0  0  0  0
    0.8748   -9.9296  -34.8263 C   0  0  0  0  0  0  0  0  0  0  0  0
    3.1341  -11.5887  -35.1595 S   0  0  0  0  0  0  0  0  0  0  0  0
    4.3143   -9.6327  -33.5362 C   0  0  0  0  0  0  0  0  0  0  0  0
    2.3410   -9.4083  -36.7908 C   0  0  0  0  0  0  0  0  0  0  0  0
    4.0643   -9.5308  -31.1391 C   0  0  0  0  0  0  0  0  0  0  0  0
    0.5253   -7.9256  -36.2055 C   0  0  0  0  0  0  0  0  0  0  0  0
    1.5459   -8.3079  -37.0561 N   0  0  0  0  0  0  0  0  0  0  0  0
    4.5445   -9.0102  -32.3250 N   0  0  0  0  0  0  0  0  0  0  0  0
   -0.7966   -8.2671  -34.1211 C   0  0  0  0  0  0  0  0  0  0  0  0
    2.8436  -11.2669  -29.8657 C   0  0  0  0  0  0  0  0  0  0  0  0
    2.4752  -12.5096  -32.3344 O   0  0  0  0  0  0  0  0  0  0  0  0
    0.5362  -10.6773  -33.9235 O   0  0  0  0  0  0  0  0  0  0  0  0
    4.3981  -11.5872  -35.9916 O   0  0  0  0  0  0  0  0  0  0  0  0
    4.2937   -8.8998  -30.1217 O   0  0  0  0  0  0  0  0  0  0  0  0
   -0.0580   -6.8870  -36.4633 O   0  0  0  0  0  0  0  0  0  0  0  0
    4.8070   -9.0254  -34.6345 O   0  5  0  0  0  0  0  0  0  0  0  0
    3.3663   -9.6252  -37.6380 O   0  5  0  0  0  0  0  0  0  0  0  0
    3.6946  -12.4124  -29.3306 C   0  0  0  0  0  0  0  0  0  0  0  0
   -0.2053   -7.2753  -33.1204 C   0  0  0  0  0  0  0  0  0  0  0  0
    4.8572  -12.1460  -28.5840 C   0  0  0  0  0  0  0  0  0  0  0  0
    3.3264  -13.7476  -29.5809 C   0  0  0  0  0  0  0  0  0  0  0  0
   -0.5895   -5.9216  -33.1502 C   0  0  0  0  0  0  0  0  0  0  0  0
    0.6744   -7.7213  -32.1152 C   0  0  0  0  0  0  0  0  0  0  0  0
    4.1083  -14.8032  -29.0850 C   0  0  0  0  0  0  0  0  0  0  0  0
   -0.1053   -5.0262  -32.1833 C   0  0  0  0  0  0  0  0  0  0  0  0
    1.1594   -6.8250  -31.1495 C   0  0  0  0  0  0  0  0  0  0  0  0
    5.6392  -13.2021  -28.0890 C   0  0  0  0  0  0  0  0  0  0  0  0
    5.2644  -14.5319  -28.3383 C   0  0  0  0  0  0  0  0  0  0  0  0
    0.7685   -5.4777  -31.1820 C   0  0  0  0  0  0  0  0  0  0  0  0
    1.7113   -7.7829  -37.8724 H   0  0  0  0  0  0  0  0  0  0  0  0
    5.0641   -8.1742  -32.3063 H   0  0  0  0  0  0  0  0  0  0  0  0
   -1.1727   -9.1147  -33.5874 H   0  0  0  0  0  0  0  0  0  0  0  0
   -1.5789   -7.7716  -34.6573 H   0  0  0  0  0  0  0  0  0  0  0  0
    1.8447  -11.6212  -30.0123 H   0  0  0  0  0  0  0  0  0  0  0  0
    2.8792  -10.4737  -29.1485 H   0  0  0  0  0  0  0  0  0  0  0  0
    5.1364  -11.1698  -28.3995 H   0  0  0  0  0  0  0  0  0  0  0  0
    2.4778  -13.9518  -30.1316 H   0  0  0  0  0  0  0  0  0  0  0  0
   -1.2300   -5.5856  -33.8863 H   0  0  0  0  0  0  0  0  0  0  0  0
    0.9638   -8.7115  -32.0883 H   0  0  0  0  0  0  0  0  0  0  0  0
    3.8319  -15.7802  -29.2701 H   0  0  0  0  0  0  0  0  0  0  0  0
   -0.3921   -4.0352  -32.2087 H   0  0  0  0  0  0  0  0  0  0  0  0
    1.8039   -7.1574  -30.4152 H   0  0  0  0  0  0  0  0  0  0  0  0
    6.4904  -13.0004  -27.5413 H   0  0  0  0  0  0  0  0  0  0  0  0
    5.8382  -15.3080  -27.9731 H   0  0  0  0  0  0  0  0  0  0  0  0
    1.1231   -4.8196  -30.4705 H   0  0  0  0  0  0  0  0  0  0  0  0
  1  5  1  0  0  0  0
  1  7  1  0  0  0  0
  1  8  2  0  0  0  0
  2  7  1  0  0  0  0
  2  6  1  0  0  0  0
  2  9  2  0  0  0  0
  3  5  1  0  0  0  0
  3 15  1  0  0  0  0
  3 10  1  0  0  0  0
  4  6  1  0  0  0  0
  4 14  1  0  0  0  0
  4 11  1  0  0  0  0
  5 16  2  0  0  0  0
  6 17  2  0  0  0  0
  7 18  2  0  0  0  0
  8 13  1  0  0  0  0
  8 21  1  0  0  0  0
  9 12  1  0  0  0  0
  9 22  1  0  0  0  0
 10 13  1  0  0  0  0
 10 19  2  0  0  0  0
 11 12  1  0  0  0  0
 11 20  2  0  0  0  0
 12 35  1  0  0  0  0
 13 36  1  0  0  0  0
 14 24  1  0  0  0  0
 14 37  1  0  0  0  0
 14 38  1  0  0  0  0
 15 23  1  0  0  0  0
 15 39  1  0  0  0  0
 15 40  1  0  0  0  0
 23 25  2  0  0  0  0
 23 26  1  0  0  0  0
 24 27  2  0  0  0  0
 24 28  1  0  0  0  0
 25 32  1  0  0  0  0
 25 41  1  0  0  0  0
 26 29  2  0  0  0  0
 26 42  1  0  0  0  0
 27 30  1  0  0  0  0
 27 43  1  0  0  0  0
 28 31  2  0  0  0  0
 28 44  1  0  0  0  0
 29 33  1  0  0  0  0
 29 45  1  0  0  0  0
 30 34  2  0  0  0  0
 30 46  1  0  0  0  0
 31 34  1  0  0  0  0
 31 47  1  0  0  0  0
 32 33  2  0  0  0  0
 32 48  1  0  0  0  0
 33 49  1  0  0  0  0
 34 50  1  0  0  0  0
M  CHG  2  21  -1  22  -1
M  END
$$$$
