HTS1710-00350404-01
 OpenBabel03232612353D

 38 39  0  0  0  0  0  0  0  0999 V2000
    2.8162  -14.2402  -27.8590 C   0  0  0  0  0  0  0  0  0  0  0  0
    2.5168  -13.7574  -29.2764 C   0  0  0  0  0  0  0  0  0  0  0  0
    2.0916  -14.6927  -30.2382 C   0  0  0  0  0  0  0  0  0  0  0  0
    1.7804  -14.2873  -31.5437 C   0  0  0  0  0  0  0  0  0  0  0  0
    1.8838  -12.9363  -31.9079 C   0  0  0  0  0  0  0  0  0  0  0  0
    1.5648  -12.5677  -33.2007 N   0  0  0  0  0  0  0  0  0  0  0  0
    1.2990  -11.0263  -33.8674 S   0  0  0  0  0  0  0  0  0  0  0  0
    0.3659  -10.3675  -32.9472 O   0  0  0  0  0  0  0  0  0  0  0  0
    0.9936  -11.2811  -35.2785 O   0  0  0  0  0  0  0  0  0  0  0  0
    2.9271  -10.2266  -33.7441 C   0  0  0  0  0  0  0  0  0  0  0  0
    3.0885   -9.1857  -32.8074 C   0  0  0  0  0  0  0  0  0  0  0  0
    4.3157   -8.5002  -32.6502 C   0  0  0  0  0  0  0  0  0  0  0  0
    4.4005   -7.3781  -31.6163 C   0  0  0  0  0  0  0  0  0  0  0  0
    3.4656   -7.2614  -30.8425 O   0  5  0  0  0  0  0  0  0  0  0  0
    5.3827   -6.6574  -31.6089 O   0  0  0  0  0  0  0  0  0  0  0  0
    5.4053   -8.8946  -33.4724 C   0  0  0  0  0  0  0  0  0  0  0  0
    6.6327   -8.2959  -33.3989 O   0  0  0  0  0  0  0  0  0  0  0  0
    5.2487   -9.9367  -34.3998 C   0  0  0  0  0  0  0  0  0  0  0  0
    4.0263  -10.6134  -34.5481 C   0  0  0  0  0  0  0  0  0  0  0  0
    3.9458  -11.7413  -35.5762 C   0  0  0  0  0  0  0  0  0  0  0  0
    2.3111  -11.9939  -30.9530 C   0  0  0  0  0  0  0  0  0  0  0  0
    2.6392  -12.3934  -29.6414 C   0  0  0  0  0  0  0  0  0  0  0  0
    3.1093  -11.3458  -28.6679 C   0  0  0  0  0  0  0  0  0  0  0  0
    2.4301  -11.1746  -27.6707 O   0  5  0  0  0  0  0  0  0  0  0  0
    4.1233  -10.7296  -28.9495 O   0  0  0  0  0  0  0  0  0  0  0  0
    2.6611  -15.2974  -27.8021 H   0  0  0  0  0  0  0  0  0  0  0  0
    2.1644  -13.7465  -27.1688 H   0  0  0  0  0  0  0  0  0  0  0  0
    3.8329  -14.0151  -27.6128 H   0  0  0  0  0  0  0  0  0  0  0  0
    2.0080  -15.6883  -29.9796 H   0  0  0  0  0  0  0  0  0  0  0  0
    1.4742  -14.9852  -32.2395 H   0  0  0  0  0  0  0  0  0  0  0  0
    1.4777  -13.3150  -33.8357 H   0  0  0  0  0  0  0  0  0  0  0  0
    2.2859   -8.9153  -32.2178 H   0  0  0  0  0  0  0  0  0  0  0  0
    7.3484   -8.6312  -33.9021 H   0  0  0  0  0  0  0  0  0  0  0  0
    6.0511  -10.2126  -34.9870 H   0  0  0  0  0  0  0  0  0  0  0  0
    4.8939  -11.8516  -36.0597 H   0  0  0  0  0  0  0  0  0  0  0  0
    3.1987  -11.5066  -36.3054 H   0  0  0  0  0  0  0  0  0  0  0  0
    3.6883  -12.6554  -35.0833 H   0  0  0  0  0  0  0  0  0  0  0  0
    2.3850  -10.9988  -31.2163 H   0  0  0  0  0  0  0  0  0  0  0  0
  1  2  1  0  0  0  0
  1 26  1  0  0  0  0
  1 27  1  0  0  0  0
  1 28  1  0  0  0  0
  2  3  2  0  0  0  0
  2 22  1  0  0  0  0
  3  4  1  0  0  0  0
  3 29  1  0  0  0  0
  4  5  2  0  0  0  0
  4 30  1  0  0  0  0
  5  6  1  0  0  0  0
  5 21  1  0  0  0  0
  6  7  1  0  0  0  0
  6 31  1  0  0  0  0
  7  8  2  0  0  0  0
  7  9  2  0  0  0  0
  7 10  1  0  0  0  0
 10 11  2  0  0  0  0
 10 19  1  0  0  0  0
 11 12  1  0  0  0  0
 11 32  1  0  0  0  0
 12 13  1  0  0  0  0
 12 16  2  0  0  0  0
 13 14  1  0  0  0  0
 13 15  2  0  0  0  0
 16 17  1  0  0  0  0
 16 18  1  0  0  0  0
 17 33  1  0  0  0  0
 18 19  2  0  0  0  0
 18 34  1  0  0  0  0
 19 20  1  0  0  0  0
 20 35  1  0  0  0  0
 20 36  1  0  0  0  0
 20 37  1  0  0  0  0
 21 22  2  0  0  0  0
 21 38  1  0  0  0  0
 22 23  1  0  0  0  0
 23 24  1  0  0  0  0
 23 25  2  0  0  0  0
M  CHG  2  14  -1  24  -1
M  END
$$$$
