##########                                Name: HTS1710-05334052-01
##########                    Molecular_Weight:             343.319
##########                DOCK_Rotatable_Bonds:                   8
##########                       Formal_Charge:                  -2
##########                     HBond_Acceptors:                   9
##########                        HBond_Donors:                   1
##########                         Heavy_Atoms:                  25
##########                          Grid_Score:          -77.248779
##########                     Grid_vdw_energy:          -41.477337
##########                      Grid_es_energy:          -35.771439
##########           Internal_energy_repulsive:            5.331813

@<TRIPOS>MOLECULE
HTS1710-05334052-01
 40 42 1 0 0
SMALL
USER_CHARGES


@<TRIPOS>ATOM
      1 C           5.7587  -13.7915  -27.6532 C.3     1  UNL1       -0.0455
      2 C           5.1248  -13.1231  -28.8885 C.3     1  UNL1        0.0394
      3 N           3.7845  -13.6401  -29.2000 N.ar    1  UNL1       -0.2639
      4 N           3.1103  -14.4980  -28.3266 N.ar    1  UNL1       -0.1785
      5 C           1.9524  -14.7235  -28.9564 C.ar    1  UNL1        0.0571
      6 C           1.8569  -14.0337  -30.2134 C.ar    1  UNL1        0.0198
      7 C           0.8746  -13.9778  -31.2025 C.ar    1  UNL1       -0.0493
      8 C           1.1482  -13.1834  -32.3361 C.ar    1  UNL1       -0.0397
      9 C           2.3680  -12.4638  -32.4587 C.ar    1  UNL1        0.0358
     10 N           2.5427  -11.7261  -33.6297 N.am    1  UNL1       -0.2802
     11 C           3.7251  -11.5382  -34.3434 C.2     1  UNL1        0.2657
     12 O           4.7726  -12.0181  -33.9462 O.2     1  UNL1       -0.2682
     13 C           3.6445  -10.7030  -35.5674 C.2     1  UNL1        0.1159
     14 N           2.6680  -10.8144  -36.5041 N.2     1  UNL1       -0.2657
     15 C           2.9879   -9.8870  -37.3919 C.2     1  UNL1       -0.0365
     16 O           4.1199   -9.1411  -37.1355 O.co2   1  UNL1       -0.7726
     17 C           4.5010   -9.7100  -35.9532 C.2     1  UNL1       -0.0600
     18 C           5.7433   -9.2379  -35.2420 C.3     1  UNL1        0.0625
     19 O           5.3600   -8.5294  -34.0473 O.3     1  UNL1       -0.3705
     20 C           6.4022   -7.7113  -33.4754 C.3     1  UNL1        0.0872
     21 C           5.9181   -6.9558  -32.2272 C.2     1  UNL1        0.0673
     22 O           5.4666   -5.8383  -32.4050 O.co2   1  UNL1       -0.5474
     23 O           6.0574   -7.4969  -31.1437 O.co2   1  UNL1       -0.5474
     24 C           3.3462  -12.5725  -31.4312 C.ar    1  UNL1       -0.0148
     25 C           3.0268  -13.3667  -30.3237 C.ar    1  UNL1        0.0706
     26 H           6.7284  -13.3737  -27.4799 H       1  UNL1        0.0247
     27 H           5.8491  -14.8439  -27.8241 H       1  UNL1        0.0247
     28 H           5.1389  -13.6210  -26.7979 H       1  UNL1        0.0247
     29 H           5.7604  -13.2943  -29.7321 H       1  UNL1        0.0506
     30 H           5.0216  -12.0809  -28.6695 H       1  UNL1        0.0506
     31 H           1.2063  -15.3288  -28.5796 H       1  UNL1        0.0854
     32 H          -0.0136  -14.4950  -31.1092 H       1  UNL1        0.0625
     33 H           0.4482  -13.1235  -33.0919 H       1  UNL1        0.0636
     34 H           1.7394  -11.2883  -33.9934 H       1  UNL1        0.1552
     35 H           2.4172   -9.7289  -38.2370 H       1  UNL1        0.0668
     36 H           6.2978   -8.5855  -35.8836 H       1  UNL1        0.0599
     37 H           6.3531  -10.0784  -34.9836 H       1  UNL1        0.0599
     38 H           6.7244   -7.0001  -34.2070 H       1  UNL1        0.0622
     39 H           7.2057   -8.3546  -33.1828 H       1  UNL1        0.0622
     40 H           4.2537  -12.0860  -31.4996 H       1  UNL1        0.0657
@<TRIPOS>BOND
     1     1     2    1
     2     2     3    1
     3     3     4   ar
     4     4     5   ar
     5     5     6   ar
     6     6     7   ar
     7     7     8   ar
     8     8     9   ar
     9     9    10    1
    10    10    11   am
    11    11    12    2
    12    11    13    1
    13    13    14    1
    14    14    15    2
    15    15    16    1
    16    16    17    1
    17    13    17    2
    18    17    18    1
    19    18    19    1
    20    19    20    1
    21    20    21    1
    22    21    22   ar
    23    21    23   ar
    24     9    24   ar
    25    24    25   ar
    26     3    25   ar
    27     6    25   ar
    28     1    26    1
    29     1    27    1
    30     1    28    1
    31     2    29    1
    32     2    30    1
    33     5    31    1
    34     7    32    1
    35     8    33    1
    36    10    34    1
    37    15    35    1
    38    18    36    1
    39    18    37    1
    40    20    38    1
    41    20    39    1
    42    24    40    1
@<TRIPOS>SUBSTRUCTURE
     1 UNL1        1 TEMP              0 ****  ****    0 ROOT


