HTS1710-05377662-01
 OpenBabel03232612363D

 41 43  0  0  1  0  0  0  0  0999 V2000
    0.9929  -13.3455  -33.1248 C   0  0  0  0  0  0  0  0  0  0  0  0
    1.0111  -11.9160  -33.2513 O   0  0  0  0  0  0  0  0  0  0  0  0
    1.1964  -11.4567  -34.6045 C   0  0  0  0  0  0  0  0  0  0  0  0
    1.5080   -9.9227  -34.6074 C   0  0  1  0  0  0  0  0  0  0  0  0
    0.1820   -9.1344  -34.3961 C   0  0  0  0  0  0  0  0  0  0  0  0
    0.5338   -7.9720  -33.4654 C   0  0  0  0  0  0  0  0  0  0  0  0
    1.7810   -8.4408  -32.7044 C   0  0  0  0  0  0  0  0  0  0  0  0
    2.4009   -9.5393  -33.4734 N   0  0  0  0  0  0  0  0  0  0  0  0
    3.7169  -10.0269  -33.3306 C   0  0  0  0  0  0  0  0  0  0  0  0
    4.1114  -10.9713  -33.9935 O   0  0  0  0  0  0  0  0  0  0  0  0
    4.5956   -9.3788  -32.2980 C   0  0  0  0  0  0  0  0  0  0  0  0
    5.3975   -8.2988  -32.5133 N   0  0  0  0  0  0  0  0  0  0  0  0
    5.8167   -7.9513  -31.3084 C   0  0  0  0  0  0  0  0  0  0  0  0
    5.3536   -8.6976  -30.2491 O   0  0  0  0  0  0  0  0  0  0  0  0
    4.6117   -9.6099  -30.9413 C   0  0  0  0  0  0  0  0  0  0  0  0
    4.0402  -10.7763  -30.2376 C   0  0  0  0  0  0  0  0  0  0  0  0
    3.3312  -10.5567  -29.0361 C   0  0  0  0  0  0  0  0  0  0  0  0
    2.7823  -11.6302  -28.3173 C   0  0  0  0  0  0  0  0  0  0  0  0
    2.9617  -12.9417  -28.7757 C   0  0  0  0  0  0  0  0  0  0  0  0
    2.4367  -13.9743  -28.0845 F   0  0  0  0  0  0  0  0  0  0  0  0
    3.7055  -13.1840  -29.9388 C   0  0  0  0  0  0  0  0  0  0  0  0
    4.2531  -12.1089  -30.6569 C   0  0  0  0  0  0  0  0  0  0  0  0
    2.1632   -9.4621  -35.9425 C   0  0  0  0  0  0  0  0  0  0  0  0
    1.4169   -9.1694  -36.8623 O   0  5  0  0  0  0  0  0  0  0  0  0
    3.3799   -9.4011  -35.9918 O   0  0  0  0  0  0  0  0  0  0  0  0
    0.8522  -13.6109  -32.0978 H   0  0  0  0  0  0  0  0  0  0  0  0
    1.9220  -13.7463  -33.4727 H   0  0  0  0  0  0  0  0  0  0  0  0
    0.1908  -13.7452  -33.7094 H   0  0  0  0  0  0  0  0  0  0  0  0
    0.3043  -11.6387  -35.1665 H   0  0  0  0  0  0  0  0  0  0  0  0
    2.0158  -11.9838  -35.0467 H   0  0  0  0  0  0  0  0  0  0  0  0
   -0.5574   -9.7626  -33.9451 H   0  0  0  0  0  0  0  0  0  0  0  0
   -0.2231   -8.7882  -35.3240 H   0  0  0  0  0  0  0  0  0  0  0  0
   -0.2701   -7.7762  -32.7869 H   0  0  0  0  0  0  0  0  0  0  0  0
    0.7071   -7.0632  -34.0030 H   0  0  0  0  0  0  0  0  0  0  0  0
    1.5028   -8.7904  -31.7322 H   0  0  0  0  0  0  0  0  0  0  0  0
    2.4720   -7.6318  -32.5903 H   0  0  0  0  0  0  0  0  0  0  0  0
    6.4612   -7.1574  -31.1690 H   0  0  0  0  0  0  0  0  0  0  0  0
    3.2152   -9.5943  -28.6819 H   0  0  0  0  0  0  0  0  0  0  0  0
    2.2475  -11.4535  -27.4526 H   0  0  0  0  0  0  0  0  0  0  0  0
    3.8504  -14.1517  -30.2670 H   0  0  0  0  0  0  0  0  0  0  0  0
    4.8177  -12.2941  -31.5008 H   0  0  0  0  0  0  0  0  0  0  0  0
  1  2  1  0  0  0  0
  1 26  1  0  0  0  0
  1 27  1  0  0  0  0
  1 28  1  0  0  0  0
  2  3  1  0  0  0  0
  3  4  1  0  0  0  0
  3 29  1  0  0  0  0
  3 30  1  0  0  0  0
  4  5  1  0  0  0  0
  4  8  1  0  0  0  0
  4 23  1  6  0  0  0
  5  6  1  0  0  0  0
  5 31  1  0  0  0  0
  5 32  1  0  0  0  0
  6  7  1  0  0  0  0
  6 33  1  0  0  0  0
  6 34  1  0  0  0  0
  7  8  1  0  0  0  0
  7 35  1  0  0  0  0
  7 36  1  0  0  0  0
  8  9  1  0  0  0  0
  9 10  2  0  0  0  0
  9 11  1  0  0  0  0
 11 12  1  0  0  0  0
 11 15  2  0  0  0  0
 12 13  2  0  0  0  0
 13 14  1  0  0  0  0
 13 37  1  0  0  0  0
 14 15  1  0  0  0  0
 15 16  1  0  0  0  0
 16 17  2  0  0  0  0
 16 22  1  0  0  0  0
 17 18  1  0  0  0  0
 17 38  1  0  0  0  0
 18 19  2  0  0  0  0
 18 39  1  0  0  0  0
 19 20  1  0  0  0  0
 19 21  1  0  0  0  0
 21 22  2  0  0  0  0
 21 40  1  0  0  0  0
 22 41  1  0  0  0  0
 23 24  1  0  0  0  0
 23 25  2  0  0  0  0
M  CHG  1  24  -1
M  END
$$$$
