##########                                Name: HTS1710-01235413-01
##########                    Molecular_Weight:             297.244
##########                DOCK_Rotatable_Bonds:                   2
##########                       Formal_Charge:                  -3
##########                     HBond_Acceptors:                   6
##########                        HBond_Donors:                   1
##########                         Heavy_Atoms:                  22
##########                          Grid_Score:          -83.624031
##########                     Grid_vdw_energy:          -29.862577
##########                      Grid_es_energy:          -53.761456
##########           Internal_energy_repulsive:            3.492511

@<TRIPOS>MOLECULE
HTS1710-01235413-01
 31 33 1 0 0
SMALL
USER_CHARGES


@<TRIPOS>ATOM
      1 C           3.3584   -9.6950  -29.8653 C.2     1  UNL1       -0.0744
      2 C           3.7953  -10.1898  -31.0964 C.2     1  UNL1       -0.0507
      3 O           3.1089  -10.5506  -28.8105 O.co2   1  UNL1       -0.7789
      4 C           4.0494  -11.6419  -31.2933 C.2     1  UNL1        0.1784
      5 C           3.2643  -11.9152  -28.9285 C.ar    1  UNL1       -0.0796
      6 C           3.7190  -12.5044  -30.1192 C.ar    1  UNL1        0.0146
      7 C           3.1162   -8.2452  -29.5728 C.2     1  UNL1        0.0574
      8 O           4.0616   -9.3096  -32.1260 O.co2   1  UNL1       -0.7782
      9 C           2.9613  -12.7180  -27.8155 C.ar    1  UNL1       -0.0262
     10 C           3.8658  -13.9056  -30.1872 C.ar    1  UNL1       -0.0481
     11 O           4.5147  -12.1249  -32.3134 O.2     1  UNL1       -0.2879
     12 O           2.7541   -7.9635  -28.4417 O.co2   1  UNL1       -0.5458
     13 C           3.1090  -14.1127  -27.8865 C.ar    1  UNL1        0.1164
     14 O           3.2831   -7.4159  -30.4498 O.co2   1  UNL1       -0.5458
     15 C           3.5613  -14.7058  -29.0752 C.ar    1  UNL1       -0.0195
     16 C           3.7569   -9.6578  -33.4245 C.ar    1  UNL1       -0.0941
     17 O           2.8151  -14.8888  -26.8032 O.3     1  UNL1       -0.5068
     18 C           2.4984  -10.2008  -33.7527 C.ar    1  UNL1       -0.0685
     19 C           4.7058   -9.4244  -34.4323 C.ar    1  UNL1       -0.0685
     20 C           2.2073  -10.5321  -35.0866 C.ar    1  UNL1       -0.0623
     21 C           4.4117   -9.7569  -35.7651 C.ar    1  UNL1       -0.0623
     22 C           3.1640  -10.3135  -36.0917 C.ar    1  UNL1       -0.0618
     23 H           2.6286  -12.2806  -26.9420 H       1  UNL1        0.0648
     24 H           4.1989  -14.3449  -31.0596 H       1  UNL1        0.0626
     25 H           3.6701  -15.7306  -29.1316 H       1  UNL1        0.0654
     26 H           2.9312  -15.8175  -26.8469 H       1  UNL1        0.2921
     27 H           1.7929  -10.3545  -33.0155 H       1  UNL1        0.0612
     28 H           5.6197   -9.0084  -34.1940 H       1  UNL1        0.0612
     29 H           1.2892  -10.9366  -35.3284 H       1  UNL1        0.0617
     30 H           5.1126   -9.5922  -36.5045 H       1  UNL1        0.0617
     31 H           2.9502  -10.5619  -37.0703 H       1  UNL1        0.0618
@<TRIPOS>BOND
     1     1     2    2
     2     1     3    1
     3     2     4    1
     4     3     5    1
     5     5     6   ar
     6     1     7    1
     7     2     8    1
     8     5     9   ar
     9     6    10   ar
    10     4    11    2
    11     7    12   ar
    12     9    13   ar
    13     7    14   ar
    14    13    15   ar
    15     8    16    1
    16    13    17    1
    17    16    18   ar
    18    16    19   ar
    19    18    20   ar
    20    19    21   ar
    21    21    22   ar
    22     4     6    1
    23    10    15   ar
    24    20    22   ar
    25     9    23    1
    26    10    24    1
    27    15    25    1
    28    17    26    1
    29    18    27    1
    30    19    28    1
    31    20    29    1
    32    21    30    1
    33    22    31    1
@<TRIPOS>SUBSTRUCTURE
     1 UNL1        1 TEMP              0 ****  ****    0 ROOT


