##########                                Name: HTS1710-01329420-01
##########                    Molecular_Weight:              402.36
##########                DOCK_Rotatable_Bonds:                  10
##########                       Formal_Charge:                  -2
##########                     HBond_Acceptors:                  10
##########                        HBond_Donors:                   5
##########                         Heavy_Atoms:                  29
##########                          Grid_Score:          -78.414734
##########                     Grid_vdw_energy:          -37.597675
##########                      Grid_es_energy:          -40.817062
##########           Internal_energy_repulsive:           12.892923

@<TRIPOS>MOLECULE
HTS1710-01329420-01
 47 49 1 0 0
SMALL
USER_CHARGES


@<TRIPOS>ATOM
      1 C           4.4275   -7.1502  -31.2670 C.2     1  UNL1       -0.0555
      2 C           5.0788   -8.1965  -31.8987 C.2     1  UNL1       -0.1091
      3 C           4.0187   -9.7178  -30.2067 C.2     1  UNL1        0.0538
      4 C           3.4512   -8.5984  -29.6696 C.2     1  UNL1       -0.0306
      5 O           3.5317   -7.3563  -30.2453 O.co2   1  UNL1       -0.7688
      6 C           4.7657   -9.6231  -31.5419 C.3     1  UNL1        0.0283
      7 C           4.6693   -5.7599  -31.6776 C.2     1  UNL1        0.1708
      8 O           5.9971   -8.0345  -32.9179 O.co2   1  UNL1       -0.7839
      9 C           5.6404   -5.6377  -32.7628 C.2     1  UNL1       -0.0241
     10 C           3.9409  -11.0941  -29.5640 C.2     1  UNL1        0.3364
     11 C           6.2525   -6.7409  -33.3162 C.2     1  UNL1       -0.0886
     12 C           3.9769  -10.2836  -32.6745 C.ar    1  UNL1       -0.0363
     13 C           0.2704  -13.5661  -34.4751 C.2     1  UNL1        0.2481
     14 N           2.7397   -8.6426  -28.4934 N.pl3   1  UNL1       -0.3685
     15 O           4.1197   -4.7999  -31.1666 O.2     1  UNL1       -0.2886
     16 O           3.3266  -11.3544  -28.5421 O.2     1  UNL1       -0.2453
     17 O           0.6577  -13.3275  -33.3447 O.2     1  UNL1       -0.2723
     18 C           2.5887  -10.0760  -32.7853 C.ar    1  UNL1       -0.0543
     19 C           4.6202  -11.1246  -33.6029 C.ar    1  UNL1       -0.0543
     20 O           1.8235  -12.1726  -35.7590 O.3     1  UNL1       -0.4828
     21 C           0.4487  -12.5888  -35.6437 C.3     1  UNL1        0.1649
     22 N          -0.3597  -14.7713  -34.7113 N.am    1  UNL1       -0.3265
     23 C           2.5035  -11.5337  -34.7383 C.ar    1  UNL1        0.1212
     24 O           4.6489  -12.0358  -30.2637 O.3     1  UNL1       -0.4646
     25 C           3.8884  -11.7406  -34.6298 C.ar    1  UNL1       -0.0196
     26 C           1.8533  -10.6947  -33.8089 C.ar    1  UNL1       -0.0196
     27 C           7.2490   -6.5687  -34.4351 C.3     1  UNL1        0.0566
     28 O           6.6377   -6.7510  -35.7094 O.3     1  UNL1       -0.3915
     29 C           4.3495  -13.4318  -30.0826 C.3     1  UNL1        0.0820
     30 H           5.6879  -10.1515  -31.4183 H       1  UNL1        0.0437
     31 H           5.8739   -4.6997  -33.1244 H       1  UNL1        0.0647
     32 H           2.2894   -7.8333  -28.1598 H       1  UNL1        0.1413
     33 H           2.6808   -9.4838  -27.9851 H       1  UNL1        0.1413
     34 H           2.1074   -9.4637  -32.1081 H       1  UNL1        0.0622
     35 H           5.6363  -11.2889  -33.5277 H       1  UNL1        0.0622
     36 H          -0.1653  -11.7283  -35.4779 H       1  UNL1        0.0795
     37 H           0.1631  -13.0820  -36.5492 H       1  UNL1        0.0795
     38 H          -0.4848  -15.4137  -33.9759 H       1  UNL1        0.1450
     39 H          -0.6839  -14.9885  -35.6152 H       1  UNL1        0.1450
     40 H           4.3708  -12.3494  -35.3092 H       1  UNL1        0.0654
     41 H           0.8362  -10.5356  -33.8815 H       1  UNL1        0.0654
     42 H           8.0314   -7.2891  -34.3182 H       1  UNL1        0.0596
     43 H           7.6388   -5.5733  -34.3882 H       1  UNL1        0.0596
     44 H           5.8243   -6.2247  -35.7560 H       1  UNL1        0.2098
     45 H           4.9946  -14.0184  -30.7027 H       1  UNL1        0.0661
     46 H           3.3306  -13.6160  -30.3528 H       1  UNL1        0.0661
     47 H           4.5005  -13.6989  -29.0575 H       1  UNL1        0.0661
@<TRIPOS>BOND
     1     1     2    2
     2     3     4    2
     3     4     5    1
     4     1     5    1
     5     2     6    1
     6     1     7    1
     7     2     8    1
     8     7     9    1
     9     3    10    1
    10     9    11    2
    11     6    12    1
    12    13    21    1
    13     4    14    1
    14     7    15    2
    15    10    16    2
    16    13    17    2
    17    12    18   ar
    18    12    19   ar
    19    20    23    1
    20    20    21    1
    21    13    22   am
    22    23    25   ar
    23    10    24    1
    24    19    25   ar
    25    18    26   ar
    26    11    27    1
    27    27    28    1
    28    24    29    1
    29     3     6    1
    30     8    11    1
    31    23    26   ar
    32     6    30    1
    33     9    31    1
    34    14    32    1
    35    14    33    1
    36    18    34    1
    37    19    35    1
    38    21    36    1
    39    21    37    1
    40    22    38    1
    41    22    39    1
    42    25    40    1
    43    26    41    1
    44    27    42    1
    45    27    43    1
    46    28    44    1
    47    29    45    1
    48    29    46    1
    49    29    47    1
@<TRIPOS>SUBSTRUCTURE
     1 UNL1        1 TEMP              0 ****  ****    0 ROOT


