##########                                Name: HTS1710-01458428-01
##########                    Molecular_Weight:             259.259
##########                DOCK_Rotatable_Bonds:                  11
##########                       Formal_Charge:                  -2
##########                     HBond_Acceptors:                   7
##########                        HBond_Donors:                   1
##########                         Heavy_Atoms:                  18
##########                          Grid_Score:          -77.550072
##########                     Grid_vdw_energy:          -33.229500
##########                      Grid_es_energy:          -44.320572
##########           Internal_energy_repulsive:            6.712996

@<TRIPOS>MOLECULE
HTS1710-01458428-01
 35 34 1 0 0
SMALL
USER_CHARGES


@<TRIPOS>ATOM
      1 C           3.2073  -11.6414  -28.0113 C.2     1  UNL1        0.0863
      2 C           6.2192  -14.4012  -27.5930 C.2     1  UNL1        0.0863
      3 C           5.4067   -8.6400  -32.3744 C.2     1  UNL1        0.0417
      4 N           3.9811  -13.8880  -28.6178 N.4     1  UNL1        0.2434
      5 O           6.4142  -13.2045  -27.7072 O.co2   1  UNL1       -0.5444
      6 O           4.2513  -11.1822  -28.4372 O.co2   1  UNL1       -0.5444
      7 O           5.4087   -8.6402  -31.1557 O.co2   1  UNL1       -0.5498
      8 C           4.8267  -14.9175  -27.9666 C.3     1  UNL1        0.0090
      9 C           3.2120  -13.1137  -27.6202 C.3     1  UNL1        0.0090
     10 O           2.1652  -11.0311  -27.8635 O.co2   1  UNL1       -0.5444
     11 O           7.0308  -15.2189  -27.1994 O.co2   1  UNL1       -0.5444
     12 O           5.7543   -7.7112  -33.0824 O.co2   1  UNL1       -0.5498
     13 C           4.9486   -9.9248  -33.0773 C.3     1  UNL1       -0.0132
     14 C           3.1055  -14.5092  -29.6384 C.3     1  UNL1       -0.0312
     15 C           4.3998  -10.9851  -32.0898 C.3     1  UNL1       -0.0480
     16 C           2.9378  -13.6224  -30.8961 C.3     1  UNL1       -0.0125
     17 C           4.1648  -12.3628  -32.7584 C.3     1  UNL1       -0.0525
     18 C           4.2319  -13.5251  -31.7414 C.3     1  UNL1       -0.0482
     19 H           4.5901  -13.2240  -29.0958 H       1  UNL1        0.2041
     20 H           4.3355  -15.2480  -27.0754 H       1  UNL1        0.0879
     21 H           4.9590  -15.7135  -28.6693 H       1  UNL1        0.0879
     22 H           3.6643  -13.2251  -26.6569 H       1  UNL1        0.0879
     23 H           2.2059  -13.4764  -27.5868 H       1  UNL1        0.0879
     24 H           5.7822  -10.3441  -33.6010 H       1  UNL1        0.0325
     25 H           4.1535   -9.6622  -33.7434 H       1  UNL1        0.0325
     26 H           2.1413  -14.6776  -29.2064 H       1  UNL1        0.0815
     27 H           3.5647  -15.4254  -29.9460 H       1  UNL1        0.0815
     28 H           3.4699  -10.6343  -31.6934 H       1  UNL1        0.0269
     29 H           5.1326  -11.1203  -31.3219 H       1  UNL1        0.0269
     30 H           2.6584  -12.6375  -30.5847 H       1  UNL1        0.0317
     31 H           2.1864  -14.0739  -31.5097 H       1  UNL1        0.0317
     32 H           4.9151  -12.5154  -33.5060 H       1  UNL1        0.0265
     33 H           3.1841  -12.3571  -33.1862 H       1  UNL1        0.0265
     34 H           5.0627  -13.3650  -31.0863 H       1  UNL1        0.0267
     35 H           4.3437  -14.4390  -32.2864 H       1  UNL1        0.0267
@<TRIPOS>BOND
     1     2     8    1
     2     3    13    1
     3     4     9    1
     4     2     5   ar
     5     1     6   ar
     6     3     7   ar
     7     4     8    1
     8     1     9    1
     9     1    10   ar
    10     2    11   ar
    11     3    12   ar
    12    13    15    1
    13     4    14    1
    14    15    17    1
    15    14    16    1
    16    17    18    1
    17    16    18    1
    18     4    19    1
    19     8    20    1
    20     8    21    1
    21     9    22    1
    22     9    23    1
    23    13    24    1
    24    13    25    1
    25    14    26    1
    26    14    27    1
    27    15    28    1
    28    15    29    1
    29    16    30    1
    30    16    31    1
    31    17    32    1
    32    17    33    1
    33    18    34    1
    34    18    35    1
@<TRIPOS>SUBSTRUCTURE
     1 UNL1        1 TEMP              0 ****  ****    0 ROOT


