##########                                Name: HTS1710-04197901-01
##########                    Molecular_Weight:             331.348
##########                DOCK_Rotatable_Bonds:                   8
##########                       Formal_Charge:                  -2
##########                     HBond_Acceptors:                   7
##########                        HBond_Donors:                   1
##########                         Heavy_Atoms:                  24
##########                          Grid_Score:          -77.202301
##########                     Grid_vdw_energy:          -39.972946
##########                      Grid_es_energy:          -37.229355
##########           Internal_energy_repulsive:           16.574574

@<TRIPOS>MOLECULE
HTS1710-04197901-01
 43 44 1 0 0
SMALL
USER_CHARGES


@<TRIPOS>ATOM
      1 C           3.8525   -9.3503  -31.9505 C.2     1  UNL1        0.1137
      2 C           2.7538   -9.8697  -32.8035 C.2     1  UNL1        0.2620
      3 C           4.1700   -9.7192  -30.6685 C.2     1  UNL1       -0.0833
      4 N           4.7207   -8.3839  -32.3461 N.2     1  UNL1       -0.2658
      5 N           2.9367   -9.8251  -34.1810 N.am    1  UNL1       -0.3029
      6 C           2.6253  -10.6541  -36.4918 C.3     1  UNL1        0.0094
      7 C           1.9352  -10.3038  -35.1471 C.3     1  UNL1        0.0538
      8 C           5.5024   -8.2209  -31.2925 C.2     1  UNL1       -0.0365
      9 O           5.2363   -9.0049  -30.1909 O.co2   1  UNL1       -0.7738
     10 C           4.0523  -10.0986  -36.5778 C.2     1  UNL1        0.0438
     11 C           0.8598   -9.2310  -35.3098 C.ar    1  UNL1       -0.0266
     12 O           1.7132  -10.3197  -32.3549 O.2     1  UNL1       -0.2685
     13 O           4.9087  -10.6477  -35.9064 O.co2   1  UNL1       -0.5497
     14 C           3.4974  -10.7693  -29.8022 C.3     1  UNL1       -0.0325
     15 C          -0.2864   -9.2212  -34.4902 C.ar    1  UNL1       -0.0533
     16 C           1.0070   -8.2352  -36.2926 C.ar    1  UNL1       -0.0533
     17 C          -1.1122   -7.2297  -35.6279 C.ar    1  UNL1        0.1201
     18 O           4.2294   -9.1298  -37.2972 O.co2   1  UNL1       -0.5497
     19 C           0.0313   -7.2392  -36.4543 C.ar    1  UNL1       -0.0196
     20 C          -1.2637   -8.2264  -34.6495 C.ar    1  UNL1       -0.0196
     21 O          -2.0999   -6.2703  -35.7433 O.3     1  UNL1       -0.4951
     22 C           2.5656  -10.1035  -28.7643 C.3     1  UNL1       -0.0597
     23 C           4.5315  -11.6859  -29.1034 C.3     1  UNL1       -0.0597
     24 C          -3.2538   -6.2277  -34.8846 C.3     1  UNL1        0.0788
     25 H           3.7800   -9.4541  -34.5281 H       1  UNL1        0.1497
     26 H           2.0473  -10.2421  -37.2925 H       1  UNL1        0.0346
     27 H           2.6852  -11.7202  -36.5602 H       1  UNL1        0.0346
     28 H           1.4651  -11.1978  -34.7939 H       1  UNL1        0.0552
     29 H           6.2762   -7.5380  -31.2949 H       1  UNL1        0.0668
     30 H           2.9060  -11.3869  -30.4453 H       1  UNL1        0.0333
     31 H          -0.4080   -9.9493  -33.7691 H       1  UNL1        0.0622
     32 H           1.8408   -8.2370  -36.9007 H       1  UNL1        0.0622
     33 H           0.1505   -6.5134  -37.1782 H       1  UNL1        0.0654
     34 H          -2.0991   -8.2272  -34.0437 H       1  UNL1        0.0654
     35 H           3.1437   -9.4816  -28.1131 H       1  UNL1        0.0235
     36 H           2.0727  -10.8601  -28.1904 H       1  UNL1        0.0235
     37 H           1.8354   -9.5077  -29.2710 H       1  UNL1        0.0235
     38 H           5.1431  -11.1000  -28.4495 H       1  UNL1        0.0235
     39 H           5.1471  -12.1565  -29.8413 H       1  UNL1        0.0235
     40 H           4.0188  -12.4346  -28.5364 H       1  UNL1        0.0235
     41 H          -3.8749   -5.4018  -35.1625 H       1  UNL1        0.0660
     42 H          -2.9384   -6.1109  -33.8688 H       1  UNL1        0.0660
     43 H          -3.8063   -7.1386  -34.9841 H       1  UNL1        0.0660
@<TRIPOS>BOND
     1     1     2    1
     2     1     3    2
     3     1     4    1
     4     2     5   am
     5     6     7    1
     6     5     7    1
     7     4     8    2
     8     3     9    1
     9     6    10    1
    10     7    11    1
    11     2    12    2
    12    10    13   ar
    13     3    14    1
    14    11    15   ar
    15    11    16   ar
    16    17    20   ar
    17    10    18   ar
    18    16    19   ar
    19    15    20   ar
    20    17    21    1
    21    14    22    1
    22    14    23    1
    23    21    24    1
    24     8     9    1
    25    17    19   ar
    26     5    25    1
    27     6    26    1
    28     6    27    1
    29     7    28    1
    30     8    29    1
    31    14    30    1
    32    15    31    1
    33    16    32    1
    34    19    33    1
    35    20    34    1
    36    22    35    1
    37    22    36    1
    38    22    37    1
    39    23    38    1
    40    23    39    1
    41    23    40    1
    42    24    41    1
    43    24    42    1
    44    24    43    1
@<TRIPOS>SUBSTRUCTURE
     1 UNL1        1 TEMP              0 ****  ****    0 ROOT


