##########                                Name: HTS1710-01271202-01
##########                    Molecular_Weight:             355.324
##########                DOCK_Rotatable_Bonds:                   5
##########                       Formal_Charge:                  -2
##########                     HBond_Acceptors:                   7
##########                        HBond_Donors:                   0
##########                         Heavy_Atoms:                  26
##########                          Grid_Score:          -75.462006
##########                     Grid_vdw_energy:          -36.479179
##########                      Grid_es_energy:          -38.982822
##########           Internal_energy_repulsive:           15.264235

@<TRIPOS>MOLECULE
HTS1710-01271202-01
 41 43 1 0 0
SMALL
USER_CHARGES


@<TRIPOS>ATOM
      1 C           3.7269   -9.0832  -32.2323 C.ar    1  UNL1        0.0374
      2 C           3.4084   -9.9890  -29.8942 C.2     1  UNL1       -0.0059
      3 C           2.4983   -9.6188  -32.8795 C.ar    1  UNL1        0.3401
      4 C           4.9151   -8.8895  -32.9327 C.ar    1  UNL1       -0.0946
      5 C           3.6539   -8.7380  -30.7394 C.3     1  UNL1        0.0280
      6 C           4.2640  -11.1637  -30.1560 C.2     1  UNL1        0.1882
      7 C           2.4203  -10.0194  -28.9261 C.2     1  UNL1       -0.1262
      8 C           4.9299   -9.2394  -34.3289 C.ar    1  UNL1       -0.0310
      9 O           2.6239   -9.9156  -34.2007 O.2     1  UNL1       -0.4273
     10 C           3.9649  -12.3513  -29.2965 C.ar    1  UNL1        0.0152
     11 O           2.1827  -11.1337  -28.1585 O.co2   1  UNL1       -0.7845
     12 C           3.7802   -9.7393  -34.9015 C.ar    1  UNL1        0.1055
     13 C           2.9364  -12.2785  -28.3356 C.ar    1  UNL1       -0.0834
     14 C           2.6595   -7.5687  -30.4634 C.3     1  UNL1        0.0560
     15 C           3.0246   -6.2926  -31.2313 C.2     1  UNL1        0.3077
     16 O           1.4421   -9.7879  -32.2966 O.2     1  UNL1       -0.2449
     17 O           5.1456  -11.1831  -30.9986 O.2     1  UNL1       -0.2870
     18 O           2.2017   -5.5783  -31.7818 O.2     1  UNL1       -0.2508
     19 O           6.0448   -8.3931  -32.3829 O.co2   1  UNL1       -0.8732
     20 O           4.3745   -6.0746  -31.2387 O.3     1  UNL1       -0.4679
     21 C           4.7014  -13.5453  -29.4342 C.ar    1  UNL1       -0.0515
     22 C           3.7598  -10.1270  -36.3577 C.3     1  UNL1       -0.0063
     23 C           2.6528  -13.3916  -27.5251 C.ar    1  UNL1       -0.0678
     24 C           4.8906   -4.8841  -31.8589 C.3     1  UNL1        0.0817
     25 C           4.4138  -14.6528  -28.6219 C.ar    1  UNL1       -0.0611
     26 C           3.3902  -14.5764  -27.6673 C.ar    1  UNL1       -0.0623
     27 H           4.6079   -8.3654  -30.4297 H       1  UNL1        0.0405
     28 H           1.8429   -9.1773  -28.7757 H       1  UNL1        0.0459
     29 H           5.7866   -9.1181  -34.8914 H       1  UNL1        0.0645
     30 H           2.6668   -7.3523  -29.4155 H       1  UNL1        0.0387
     31 H           1.6911   -7.8810  -30.7942 H       1  UNL1        0.0387
     32 H           5.4557  -13.6052  -30.1359 H       1  UNL1        0.0624
     33 H           4.7208   -9.9410  -36.7899 H       1  UNL1        0.0308
     34 H           3.0201   -9.5484  -36.8705 H       1  UNL1        0.0308
     35 H           3.5240  -11.1669  -36.4466 H       1  UNL1        0.0308
     36 H           1.8988  -13.3369  -26.8226 H       1  UNL1        0.0612
     37 H           5.9573   -4.8721  -31.7754 H       1  UNL1        0.0661
     38 H           4.4848   -4.0229  -31.3705 H       1  UNL1        0.0661
     39 H           4.6136   -4.8716  -32.8924 H       1  UNL1        0.0661
     40 H           4.9563  -15.5243  -28.7275 H       1  UNL1        0.0618
     41 H           3.1793  -15.3910  -27.0698 H       1  UNL1        0.0617
@<TRIPOS>BOND
     1     2     5    1
     2     1     3   ar
     3     1     4   ar
     4     1     5    1
     5     2     6    1
     6     2     7    2
     7     4     8   ar
     8     3     9   ar
     9     6    10    1
    10     7    11    1
    11     8    12   ar
    12    11    13    1
    13     5    14    1
    14    14    15    1
    15     3    16    2
    16     6    17    2
    17    15    18    2
    18     4    19    1
    19    15    20    1
    20    10    21   ar
    21    12    22    1
    22    13    23   ar
    23    20    24    1
    24    21    25   ar
    25    23    26   ar
    26     9    12   ar
    27    10    13   ar
    28    25    26   ar
    29     5    27    1
    30     7    28    1
    31     8    29    1
    32    14    30    1
    33    14    31    1
    34    21    32    1
    35    22    33    1
    36    22    34    1
    37    22    35    1
    38    23    36    1
    39    24    37    1
    40    24    38    1
    41    24    39    1
    42    25    40    1
    43    26    41    1
@<TRIPOS>SUBSTRUCTURE
     1 UNL1        1 TEMP              0 ****  ****    0 ROOT


