##########                                Name: HTS1710-05162999-01
##########                    Molecular_Weight:             315.327
##########                DOCK_Rotatable_Bonds:                   5
##########                       Formal_Charge:                  -2
##########                     HBond_Acceptors:                   9
##########                        HBond_Donors:                   1
##########                         Heavy_Atoms:                  21
##########                          Grid_Score:          -74.791832
##########                     Grid_vdw_energy:          -36.129112
##########                      Grid_es_energy:          -38.662720
##########           Internal_energy_repulsive:           14.003045

@<TRIPOS>MOLECULE
HTS1710-05162999-01
 36 37 1 0 0
SMALL
USER_CHARGES


@<TRIPOS>ATOM
      1 C           0.7928  -11.4796  -35.9759 C.3     1  UNL1        0.0058
      2 N           1.5623  -10.2543  -36.2301 N.3     1  UNL1       -0.1941
      3 S           3.2429  -10.4197  -36.4184 S.O2    1  UNL1        0.0456
      4 O           3.6252   -9.4418  -37.4416 O.2     1  UNL1       -0.1542
      5 O           3.4639  -11.8640  -36.5513 O.2     1  UNL1       -0.1542
      6 C           3.8880   -9.9010  -34.8337 C.2     1  UNL1        0.0444
      7 C           3.4696  -10.3690  -33.6160 C.2     1  UNL1       -0.0379
      8 C           4.2344   -9.6714  -32.6331 C.2     1  UNL1        0.0268
      9 C           4.2069   -9.7367  -31.1324 C.2     1  UNL1        0.2463
     10 O           4.2876   -8.7250  -30.4568 O.2     1  UNL1       -0.2700
     11 N           4.1034  -10.9958  -30.5157 N.am    1  UNL1       -0.2893
     12 C           4.0140  -12.3177  -31.1544 C.3     1  UNL1        0.0157
     13 C           4.4089  -13.3611  -30.0986 C.3     1  UNL1       -0.0351
     14 C           4.1090  -12.6851  -28.7568 C.3     1  UNL1       -0.0276
     15 C           4.2098  -11.1724  -29.0480 C.3     1  UNL1        0.0658
     16 C           3.1234  -10.3807  -28.2960 C.2     1  UNL1        0.0622
     17 O           2.0819  -10.9553  -28.0242 O.co2   1  UNL1       -0.5479
     18 O           3.3729   -9.2151  -28.0393 O.co2   1  UNL1       -0.5479
     19 C           5.0218   -8.8378  -33.4063 C.2     1  UNL1       -0.1078
     20 C           6.0450   -7.8591  -32.8841 C.3     1  UNL1       -0.0523
     21 O           4.8609   -8.9459  -34.7604 O.co2   1  UNL1       -0.7696
     22 H          -0.2444  -11.2355  -35.8780 H       1  UNL1        0.0405
     23 H           1.1384  -11.9368  -35.0723 H       1  UNL1        0.0405
     24 H           0.9239  -12.1589  -36.7922 H       1  UNL1        0.0405
     25 H           1.4018   -9.6227  -35.4455 H       1  UNL1        0.1476
     26 H           2.7454  -11.0838  -33.4436 H       1  UNL1        0.0632
     27 H           4.6835  -12.3680  -31.9875 H       1  UNL1        0.0465
     28 H           3.0229  -12.4988  -31.5146 H       1  UNL1        0.0465
     29 H           5.4484  -13.6025  -30.1761 H       1  UNL1        0.0281
     30 H           3.8756  -14.2811  -30.2178 H       1  UNL1        0.0281
     31 H           4.8275  -12.9758  -28.0190 H       1  UNL1        0.0287
     32 H           3.1495  -12.9597  -28.3709 H       1  UNL1        0.0287
     33 H           5.1454  -10.7873  -28.6999 H       1  UNL1        0.0562
     34 H           6.0538   -7.8892  -31.8145 H       1  UNL1        0.0266
     35 H           5.7936   -6.8718  -33.2111 H       1  UNL1        0.0266
     36 H           7.0129   -8.1224  -33.2563 H       1  UNL1        0.0266
@<TRIPOS>BOND
     1     1     2    1
     2     2     3    1
     3     3     4    2
     4     3     5    2
     5     3     6    1
     6     6     7    2
     7     7     8    1
     8     8     9    1
     9     9    10    2
    10     9    11   am
    11    11    12    1
    12    12    13    1
    13    13    14    1
    14    14    15    1
    15    11    15    1
    16    15    16    1
    17    16    17   ar
    18    16    18   ar
    19     8    19    2
    20    19    20    1
    21    19    21    1
    22     6    21    1
    23     1    22    1
    24     1    23    1
    25     1    24    1
    26     2    25    1
    27     7    26    1
    28    12    27    1
    29    12    28    1
    30    13    29    1
    31    13    30    1
    32    14    31    1
    33    14    32    1
    34    15    33    1
    35    20    34    1
    36    20    35    1
    37    20    36    1
@<TRIPOS>SUBSTRUCTURE
     1 UNL1        1 TEMP              0 ****  ****    0 ROOT


