HTS1710-04760615-01
 OpenBabel03232612353D

 41 42  0  0  1  0  0  0  0  0999 V2000
    2.8647  -13.5172  -27.7515 C   0  0  0  0  0  0  0  0  0  0  0  0
    2.9824  -13.9083  -29.2400 C   0  0  1  0  0  0  0  0  0  0  0  0
    1.8576  -14.8414  -29.7388 C   0  0  0  0  0  0  0  0  0  0  0  0
    1.5637  -14.3546  -31.1702 C   0  0  0  0  0  0  0  0  0  0  0  0
    2.5493  -13.1874  -31.3885 C   0  0  1  0  0  0  0  0  0  0  0  0
    1.9698  -12.0186  -32.2199 C   0  0  0  0  0  0  0  0  0  0  0  0
    1.9699  -12.3196  -33.7364 C   0  0  0  0  0  0  0  0  0  0  0  0
    2.6548  -11.2071  -34.5312 C   0  0  0  0  0  0  0  0  0  0  0  0
    2.0972  -10.1459  -34.7589 O   0  0  0  0  0  0  0  0  0  0  0  0
    3.9372  -11.4333  -35.0099 N   0  0  0  0  0  0  0  0  0  0  0  0
    4.6704  -10.4246  -35.7811 C   0  0  0  0  0  0  0  0  0  0  0  0
    5.2119   -9.3638  -34.8620 C   0  0  0  0  0  0  0  0  0  0  0  0
    5.0236   -9.3428  -33.5045 C   0  0  0  0  0  0  0  0  0  0  0  0
    5.6984   -8.1741  -33.0609 C   0  0  0  0  0  0  0  0  0  0  0  0
    5.7968   -7.6988  -31.6590 C   0  0  0  0  0  0  0  0  0  0  0  0
    5.7607   -8.5452  -30.7833 O   0  5  0  0  0  0  0  0  0  0  0  0
    5.9075   -6.5019  -31.4573 O   0  0  0  0  0  0  0  0  0  0  0  0
    6.2108   -7.6288  -34.2214 C   0  0  0  0  0  0  0  0  0  0  0  0
    7.0210   -6.3608  -34.3144 C   0  0  0  0  0  0  0  0  0  0  0  0
    5.9403   -8.3241  -35.3715 O   0  0  0  0  0  0  0  0  0  0  0  0
    2.8224  -12.7370  -30.0524 O   0  0  0  0  0  0  0  0  0  0  0  0
    2.9836  -14.3893  -27.1430 H   0  0  0  0  0  0  0  0  0  0  0  0
    1.9025  -13.0852  -27.5712 H   0  0  0  0  0  0  0  0  0  0  0  0
    3.6262  -12.8060  -27.5082 H   0  0  0  0  0  0  0  0  0  0  0  0
    3.9338  -14.3918  -29.3177 H   0  0  0  0  0  0  0  0  0  0  0  0
    0.9883  -14.7502  -29.1218 H   0  0  0  0  0  0  0  0  0  0  0  0
    2.1397  -15.8731  -29.7084 H   0  0  0  0  0  0  0  0  0  0  0  0
    0.5520  -14.0168  -31.2550 H   0  0  0  0  0  0  0  0  0  0  0  0
    1.6827  -15.1304  -31.8974 H   0  0  0  0  0  0  0  0  0  0  0  0
    3.4043  -13.5125  -31.9437 H   0  0  0  0  0  0  0  0  0  0  0  0
    2.5609  -11.1444  -32.0428 H   0  0  0  0  0  0  0  0  0  0  0  0
    0.9545  -11.8726  -31.9156 H   0  0  0  0  0  0  0  0  0  0  0  0
    0.9581  -12.4135  -34.0718 H   0  0  0  0  0  0  0  0  0  0  0  0
    2.5118  -13.2281  -33.8971 H   0  0  0  0  0  0  0  0  0  0  0  0
    4.3688  -12.2989  -34.8258 H   0  0  0  0  0  0  0  0  0  0  0  0
    4.0098   -9.9735  -36.4918 H   0  0  0  0  0  0  0  0  0  0  0  0
    5.4850  -10.8965  -36.2895 H   0  0  0  0  0  0  0  0  0  0  0  0
    4.5053  -10.0262  -32.9305 H   0  0  0  0  0  0  0  0  0  0  0  0
    7.1424   -5.9427  -33.3370 H   0  0  0  0  0  0  0  0  0  0  0  0
    6.5136   -5.6586  -34.9423 H   0  0  0  0  0  0  0  0  0  0  0  0
    7.9821   -6.5814  -34.7299 H   0  0  0  0  0  0  0  0  0  0  0  0
  1  2  1  0  0  0  0
  1 22  1  0  0  0  0
  1 23  1  0  0  0  0
  1 24  1  0  0  0  0
  2  3  1  0  0  0  0
  2 21  1  0  0  0  0
  2 25  1  6  0  0  0
  3  4  1  0  0  0  0
  3 26  1  0  0  0  0
  3 27  1  0  0  0  0
  4  5  1  0  0  0  0
  4 28  1  0  0  0  0
  4 29  1  0  0  0  0
  5  6  1  0  0  0  0
  5 21  1  0  0  0  0
  5 30  1  6  0  0  0
  6  7  1  0  0  0  0
  6 31  1  0  0  0  0
  6 32  1  0  0  0  0
  7  8  1  0  0  0  0
  7 33  1  0  0  0  0
  7 34  1  0  0  0  0
  8  9  2  0  0  0  0
  8 10  1  0  0  0  0
 10 11  1  0  0  0  0
 10 35  1  0  0  0  0
 11 12  1  0  0  0  0
 11 36  1  0  0  0  0
 11 37  1  0  0  0  0
 12 13  2  0  0  0  0
 12 20  1  0  0  0  0
 13 14  1  0  0  0  0
 13 38  1  0  0  0  0
 14 15  1  0  0  0  0
 14 18  2  0  0  0  0
 15 16  1  0  0  0  0
 15 17  2  0  0  0  0
 18 19  1  0  0  0  0
 18 20  1  0  0  0  0
 19 39  1  0  0  0  0
 19 40  1  0  0  0  0
 19 41  1  0  0  0  0
M  CHG  1  16  -1
M  END
$$$$
