HTS1710-00207099-01
 OpenBabel03232612353D

 24 25  0  0  0  0  0  0  0  0999 V2000
    4.5002   -8.6230  -31.0585 C   0  0  0  0  0  0  0  0  0  0  0  0
    4.6467   -9.8931  -30.5935 N   0  0  0  0  0  0  0  0  0  0  0  0
    3.7589   -9.9334  -29.6173 C   0  0  0  0  0  0  0  0  0  0  0  0
    3.5283   -7.9891  -30.3231 C   0  0  0  0  0  0  0  0  0  0  0  0
    3.0056   -8.8106  -29.3582 O   0  0  0  0  0  0  0  0  0  0  0  0
    5.2872   -8.0543  -32.1831 C   0  0  0  0  0  0  0  0  0  0  0  0
    3.6214  -11.1548  -28.8720 C   0  0  0  0  0  0  0  0  0  0  0  0
    2.8749  -11.2518  -27.7256 O   0  0  0  0  0  0  0  0  0  0  0  0
    4.2438  -12.3039  -29.2791 C   0  0  0  0  0  0  0  0  0  0  0  0
    5.9381   -8.8136  -32.8794 O   0  5  0  0  0  0  0  0  0  0  0  0
    3.0663  -12.5757  -27.4172 C   0  0  0  0  0  0  0  0  0  0  0  0
    3.8693  -13.2573  -28.3004 C   0  0  0  0  0  0  0  0  0  0  0  0
    3.1239   -6.6945  -30.5081 O   0  0  0  0  0  0  0  0  0  0  0  0
    5.2364   -6.8466  -32.3461 O   0  0  0  0  0  0  0  0  0  0  0  0
    2.1074   -6.1430  -29.6544 C   0  0  0  0  0  0  0  0  0  0  0  0
    1.8693   -4.6784  -30.0659 C   0  0  0  0  0  0  0  0  0  0  0  0
    4.8453  -12.4433  -30.1061 H   0  0  0  0  0  0  0  0  0  0  0  0
    2.6419  -13.0229  -26.5897 H   0  0  0  0  0  0  0  0  0  0  0  0
    4.1416  -14.2518  -28.2593 H   0  0  0  0  0  0  0  0  0  0  0  0
    2.4301   -6.1841  -28.6351 H   0  0  0  0  0  0  0  0  0  0  0  0
    1.2015   -6.7040  -29.7515 H   0  0  0  0  0  0  0  0  0  0  0  0
    2.7806   -4.1269  -29.9650 H   0  0  0  0  0  0  0  0  0  0  0  0
    1.1202   -4.2479  -29.4347 H   0  0  0  0  0  0  0  0  0  0  0  0
    1.5415   -4.6426  -31.0838 H   0  0  0  0  0  0  0  0  0  0  0  0
  1  2  1  0  0  0  0
  1  4  2  0  0  0  0
  1  6  1  0  0  0  0
  2  3  2  0  0  0  0
  3  7  1  0  0  0  0
  3  5  1  0  0  0  0
  4  5  1  0  0  0  0
  4 13  1  0  0  0  0
  6 10  1  0  0  0  0
  6 14  2  0  0  0  0
  7  8  1  0  0  0  0
  7  9  2  0  0  0  0
  8 11  1  0  0  0  0
  9 12  1  0  0  0  0
  9 17  1  0  0  0  0
 11 12  2  0  0  0  0
 11 18  1  0  0  0  0
 12 19  1  0  0  0  0
 13 15  1  0  0  0  0
 15 16  1  0  0  0  0
 15 20  1  0  0  0  0
 15 21  1  0  0  0  0
 16 22  1  0  0  0  0
 16 23  1  0  0  0  0
 16 24  1  0  0  0  0
M  CHG  1  10  -1
M  END
$$$$
