##########                                Name: HTS1710-01263510-01
##########                    Molecular_Weight:             402.357
##########                DOCK_Rotatable_Bonds:                  10
##########                       Formal_Charge:                  -2
##########                     HBond_Acceptors:                   9
##########                        HBond_Donors:                   4
##########                         Heavy_Atoms:                  29
##########                          Grid_Score:          -75.549271
##########                     Grid_vdw_energy:          -42.606796
##########                      Grid_es_energy:          -32.942471
##########           Internal_energy_repulsive:           12.591032

@<TRIPOS>MOLECULE
HTS1710-01263510-01
 47 49 1 0 0
SMALL
USER_CHARGES


@<TRIPOS>ATOM
      1 C           4.0235   -8.7247  -32.5227 C.2     1  UNL1       -0.0602
      2 C           2.9876  -10.1984  -30.7692 C.2     1  UNL1       -0.0602
      3 C           3.0613   -8.7903  -31.3457 C.3     1  UNL1        0.0187
      4 C           5.1818   -7.9680  -32.4434 C.2     1  UNL1        0.1535
      5 C           3.3796  -10.4876  -29.4667 C.2     1  UNL1        0.1535
      6 C           3.2838  -11.8502  -28.9175 C.2     1  UNL1        0.2184
      7 C           6.1311   -7.8944  -33.5655 C.2     1  UNL1        0.2184
      8 O           2.4740  -11.1482  -31.6334 O.co2   1  UNL1       -0.7814
      9 O           3.6680   -9.4606  -33.6388 O.co2   1  UNL1       -0.7814
     10 C           2.7325  -12.8064  -29.8735 C.2     1  UNL1       -0.0198
     11 C           5.7146   -8.7016  -34.7107 C.2     1  UNL1       -0.0198
     12 C           1.6991   -8.1324  -31.6570 C.ar    1  UNL1        0.0040
     13 C           4.5425   -9.4286  -34.7021 C.2     1  UNL1       -0.0884
     14 C           2.3606  -12.4328  -31.1461 C.2     1  UNL1       -0.0884
     15 O           3.6229  -12.1626  -27.7875 O.2     1  UNL1       -0.2841
     16 O           7.1609   -7.2394  -33.5554 O.2     1  UNL1       -0.2841
     17 C           1.2979   -6.9900  -30.9224 C.ar    1  UNL1        0.1241
     18 O           3.8892   -9.5879  -28.5947 O.2     1  UNL1       -0.5038
     19 O           5.5509   -7.2467  -31.3596 O.2     1  UNL1       -0.5038
     20 O           2.1408   -6.5039  -29.9369 O.3     1  UNL1       -0.4948
     21 C           4.1680  -10.2641  -35.8995 C.3     1  UNL1        0.0566
     22 C           1.7879  -13.4598  -32.0881 C.3     1  UNL1        0.0566
     23 C           0.8296   -8.6438  -32.6477 C.ar    1  UNL1       -0.0543
     24 O           4.0133   -9.4601  -37.0648 O.3     1  UNL1       -0.3915
     25 O           0.3846  -13.6044  -31.8942 O.3     1  UNL1       -0.3915
     26 C           0.0590   -6.3696  -31.1977 C.ar    1  UNL1       -0.0197
     27 C           1.8281   -5.3680  -29.1141 C.3     1  UNL1        0.0788
     28 C          -0.3983   -8.0212  -32.9140 C.ar    1  UNL1       -0.0612
     29 C          -0.7826   -6.8847  -32.1923 C.ar    1  UNL1       -0.0583
     30 H           3.4563   -8.1870  -30.5551 H       1  UNL1        0.0427
     31 H           2.6181  -13.7913  -29.5873 H       1  UNL1        0.0649
     32 H           6.3148   -8.7284  -35.5498 H       1  UNL1        0.0649
     33 H           4.1411   -9.8602  -27.7343 H       1  UNL1        0.2923
     34 H           6.0504   -6.4614  -31.4674 H       1  UNL1        0.2923
     35 H           3.2453  -10.7672  -35.6984 H       1  UNL1        0.0596
     36 H           4.9531  -10.9689  -36.0777 H       1  UNL1        0.0596
     37 H           2.2644  -14.4013  -31.9109 H       1  UNL1        0.0596
     38 H           1.9613  -13.1348  -33.0927 H       1  UNL1        0.0596
     39 H           1.1017   -9.4845  -33.1807 H       1  UNL1        0.0622
     40 H           3.8202  -10.0286  -37.8266 H       1  UNL1        0.2098
     41 H           0.2143  -13.9328  -30.9976 H       1  UNL1        0.2098
     42 H          -0.2272   -5.5339  -30.6641 H       1  UNL1        0.0654
     43 H           2.6327   -5.1897  -28.4315 H       1  UNL1        0.0660
     44 H           0.9306   -5.5617  -28.5647 H       1  UNL1        0.0660
     45 H           1.6884   -4.5066  -29.7333 H       1  UNL1        0.0660
     46 H          -1.0206   -8.4019  -33.6440 H       1  UNL1        0.0618
     47 H          -1.6853   -6.4265  -32.3929 H       1  UNL1        0.0619
@<TRIPOS>BOND
     1     2     3    1
     2     1     3    1
     3     1     4    2
     4     2     5    2
     5     5     6    1
     6     4     7    1
     7     2     8    1
     8     1     9    1
     9    10    14    2
    10    11    13    2
    11     3    12    1
    12     9    13    1
    13     8    14    1
    14     6    15    2
    15     7    16    2
    16    12    17   ar
    17     5    18    1
    18     4    19    1
    19    17    20    1
    20    13    21    1
    21    14    22    1
    22    12    23   ar
    23    21    24    1
    24    22    25    1
    25    17    26   ar
    26    20    27    1
    27    23    28   ar
    28    28    29   ar
    29     7    11    1
    30    26    29   ar
    31     6    10    1
    32     3    30    1
    33    10    31    1
    34    11    32    1
    35    18    33    1
    36    19    34    1
    37    21    35    1
    38    21    36    1
    39    22    37    1
    40    22    38    1
    41    23    39    1
    42    24    40    1
    43    25    41    1
    44    26    42    1
    45    27    43    1
    46    27    44    1
    47    27    45    1
    48    28    46    1
    49    29    47    1
@<TRIPOS>SUBSTRUCTURE
     1 UNL1        1 TEMP              0 ****  ****    0 ROOT


