##########                                Name: HTS1710-01239398-01
##########                    Molecular_Weight:             361.351
##########                DOCK_Rotatable_Bonds:                   8
##########                       Formal_Charge:                  -2
##########                     HBond_Acceptors:                   8
##########                        HBond_Donors:                   0
##########                         Heavy_Atoms:                  26
##########                          Grid_Score:          -79.078300
##########                     Grid_vdw_energy:          -39.420177
##########                      Grid_es_energy:          -39.658123
##########           Internal_energy_repulsive:           13.660320

@<TRIPOS>MOLECULE
HTS1710-01239398-01
 45 46 1 0 0
SMALL
USER_CHARGES


@<TRIPOS>ATOM
      1 C           3.2497   -8.2277  -31.5670 C.2     1  UNL1        0.0168
      2 N           4.5555   -9.7107  -32.8385 N.am    1  UNL1       -0.2872
      3 C           4.4070   -7.6343  -31.9245 C.2     1  UNL1       -0.0358
      4 C           3.2647   -9.6594  -32.1037 C.3     1  UNL1        0.0830
      5 C           5.2559   -8.5213  -32.7337 C.2     1  UNL1        0.2329
      6 C           3.1335  -10.7344  -31.0183 C.ar    1  UNL1        0.0193
      7 C           2.3639  -11.9050  -31.2096 C.ar    1  UNL1        0.1288
      8 C           2.1747   -7.7944  -30.6282 C.2     1  UNL1        0.1579
      9 C           3.7908  -10.5347  -29.7909 C.ar    1  UNL1       -0.0495
     10 C           2.2657  -12.8542  -30.1690 C.ar    1  UNL1        0.0221
     11 O           6.3564   -8.2809  -33.2000 O.2     1  UNL1       -0.2712
     12 C           4.6878   -9.4349  -36.3658 C.2     1  UNL1        0.0418
     13 O           4.8252   -6.3929  -31.5883 O.co2   1  UNL1       -0.8701
     14 O           2.4304   -7.3788  -29.5108 O.2     1  UNL1       -0.2926
     15 O           3.6537   -9.2609  -36.9889 O.co2   1  UNL1       -0.5498
     16 C           5.0608  -10.9728  -33.4096 C.3     1  UNL1        0.0162
     17 C           2.9235  -12.6454  -28.9467 C.ar    1  UNL1        0.1236
     18 C           3.6895  -11.4780  -28.7589 C.ar    1  UNL1       -0.0194
     19 O           1.7160  -12.0942  -32.4171 O.3     1  UNL1       -0.4946
     20 O           5.4645   -8.5583  -36.0308 O.co2   1  UNL1       -0.5498
     21 O           2.7917  -13.6064  -27.9614 O.3     1  UNL1       -0.4950
     22 C           4.3250  -11.3783  -34.7100 C.3     1  UNL1       -0.0320
     23 C           5.0549  -10.8780  -35.9814 C.3     1  UNL1       -0.0118
     24 C           0.7573   -7.7188  -31.1983 C.3     1  UNL1       -0.0017
     25 C           0.7974  -13.1708  -32.6661 C.3     1  UNL1        0.0788
     26 C           2.3126  -14.9364  -28.2265 C.3     1  UNL1        0.0788
     27 H           2.4188   -9.8788  -32.7211 H       1  UNL1        0.0603
     28 H           4.3551   -9.6825  -29.6482 H       1  UNL1        0.0623
     29 H           1.7052  -13.7095  -30.3084 H       1  UNL1        0.0691
     30 H           4.9321  -11.7511  -32.6867 H       1  UNL1        0.0465
     31 H           6.0920  -10.8261  -33.6547 H       1  UNL1        0.0465
     32 H           4.1754  -11.3176  -27.8627 H       1  UNL1        0.0654
     33 H           3.3401  -10.9604  -34.6922 H       1  UNL1        0.0284
     34 H           4.2965  -12.4472  -34.7492 H       1  UNL1        0.0284
     35 H           6.1097  -10.9254  -35.8082 H       1  UNL1        0.0325
     36 H           4.7502  -11.5086  -36.7904 H       1  UNL1        0.0325
     37 H           0.7470   -8.1336  -32.1846 H       1  UNL1        0.0309
     38 H           0.4428   -6.6968  -31.2380 H       1  UNL1        0.0309
     39 H           0.0906   -8.2730  -30.5713 H       1  UNL1        0.0309
     40 H           0.4304  -13.1018  -33.6688 H       1  UNL1        0.0660
     41 H          -0.0221  -13.1061  -31.9811 H       1  UNL1        0.0660
     42 H           1.2998  -14.1062  -32.5338 H       1  UNL1        0.0660
     43 H           2.2967  -15.4979  -27.3158 H       1  UNL1        0.0660
     44 H           2.9613  -15.4157  -28.9297 H       1  UNL1        0.0660
     45 H           1.3234  -14.8851  -28.6312 H       1  UNL1        0.0660
@<TRIPOS>BOND
     1     2     4    1
     2     1     3    2
     3     1     4    1
     4     3     5    1
     5     4     6    1
     6     6     7   ar
     7     1     8    1
     8     6     9   ar
     9     7    10   ar
    10     5    11    2
    11    12    23    1
    12     3    13    1
    13     8    14    2
    14    12    15   ar
    15     2    16    1
    16    17    18   ar
    17     9    18   ar
    18     7    19    1
    19    12    20   ar
    20    17    21    1
    21    16    22    1
    22    22    23    1
    23     8    24    1
    24    19    25    1
    25    21    26    1
    26     2     5   am
    27    10    17   ar
    28     4    27    1
    29     9    28    1
    30    10    29    1
    31    16    30    1
    32    16    31    1
    33    18    32    1
    34    22    33    1
    35    22    34    1
    36    23    35    1
    37    23    36    1
    38    24    37    1
    39    24    38    1
    40    24    39    1
    41    25    40    1
    42    25    41    1
    43    25    42    1
    44    26    43    1
    45    26    44    1
    46    26    45    1
@<TRIPOS>SUBSTRUCTURE
     1 UNL1        1 TEMP              0 ****  ****    0 ROOT


