HTS1710-02528641-01
 OpenBabel03232612343D

 21 21  0  0  0  0  0  0  0  0999 V2000
    4.8689   -9.5360  -32.4133 C   0  0  0  0  0  0  0  0  0  0  0  0
    4.6334   -9.5832  -34.9400 C   0  0  0  0  0  0  0  0  0  0  0  0
    5.5358   -8.5046  -33.0505 C   0  0  0  0  0  0  0  0  0  0  0  0
    5.4252   -8.5458  -34.4878 C   0  0  0  0  0  0  0  0  0  0  0  0
    4.0035  -10.5259  -33.5882 S   0  0  0  0  0  0  0  0  0  0  0  0
    4.8618   -9.8611  -30.9615 C   0  0  0  0  0  0  0  0  0  0  0  0
    4.3092   -9.9197  -36.3517 C   0  0  0  0  0  0  0  0  0  0  0  0
    5.4234   -9.1084  -30.1856 O   0  5  0  0  0  0  0  0  0  0  0  0
    4.6414   -9.1437  -37.2317 O   0  5  0  0  0  0  0  0  0  0  0  0
    6.0397   -7.6578  -35.3495 O   0  0  0  0  0  0  0  0  0  0  0  0
    6.2551   -7.5367  -32.4020 O   0  0  0  0  0  0  0  0  0  0  0  0
    3.7206  -10.9684  -36.5510 O   0  0  0  0  0  0  0  0  0  0  0  0
    4.2951  -10.8868  -30.6279 O   0  0  0  0  0  0  0  0  0  0  0  0
    5.5462   -6.4859  -31.7193 C   0  0  0  0  0  0  0  0  0  0  0  0
    6.9506   -6.6151  -34.9671 C   0  0  0  0  0  0  0  0  0  0  0  0
    6.2485   -5.8167  -31.2679 H   0  0  0  0  0  0  0  0  0  0  0  0
    4.9212   -6.9109  -30.9620 H   0  0  0  0  0  0  0  0  0  0  0  0
    4.9421   -5.9492  -32.4206 H   0  0  0  0  0  0  0  0  0  0  0  0
    7.2703   -6.0833  -35.8389 H   0  0  0  0  0  0  0  0  0  0  0  0
    7.8007   -7.0451  -34.4799 H   0  0  0  0  0  0  0  0  0  0  0  0
    6.4595   -5.9401  -34.2977 H   0  0  0  0  0  0  0  0  0  0  0  0
  1  3  2  0  0  0  0
  1  5  1  0  0  0  0
  1  6  1  0  0  0  0
  2  4  2  0  0  0  0
  2  5  1  0  0  0  0
  2  7  1  0  0  0  0
  3  4  1  0  0  0  0
  3 11  1  0  0  0  0
  4 10  1  0  0  0  0
  6  8  1  0  0  0  0
  6 13  2  0  0  0  0
  7  9  1  0  0  0  0
  7 12  2  0  0  0  0
 10 15  1  0  0  0  0
 11 14  1  0  0  0  0
 14 16  1  0  0  0  0
 14 17  1  0  0  0  0
 14 18  1  0  0  0  0
 15 19  1  0  0  0  0
 15 20  1  0  0  0  0
 15 21  1  0  0  0  0
M  CHG  2   8  -1   9  -1
M  END
$$$$
