##########                                Name: HTS1710-02528641-01
##########                    Molecular_Weight:             230.198
##########                DOCK_Rotatable_Bonds:                   2
##########                       Formal_Charge:                  -4
##########                     HBond_Acceptors:                   7
##########                        HBond_Donors:                   0
##########                         Heavy_Atoms:                  15
##########                          Grid_Score:          -92.671539
##########                     Grid_vdw_energy:          -24.161892
##########                      Grid_es_energy:          -68.509651
##########           Internal_energy_repulsive:            5.766255

@<TRIPOS>MOLECULE
HTS1710-02528641-01
 21 21 1 0 0
SMALL
USER_CHARGES


@<TRIPOS>ATOM
      1 C           4.8689   -9.5360  -32.4133 C.ar    1  UNL1        0.0277
      2 C           4.6334   -9.5832  -34.9400 C.ar    1  UNL1        0.0277
      3 C           5.5358   -8.5046  -33.0505 C.ar    1  UNL1       -0.0872
      4 C           5.4252   -8.5458  -34.4878 C.ar    1  UNL1       -0.0872
      5 S           4.0035  -10.5259  -33.5882 S.2     1  UNL1       -0.0871
      6 C           4.8618   -9.8611  -30.9615 C.2     1  UNL1        0.0777
      7 C           4.3092   -9.9197  -36.3517 C.2     1  UNL1        0.0777
      8 O           5.4234   -9.1084  -30.1856 O.co2   1  UNL1       -0.5441
      9 O           4.6414   -9.1437  -37.2317 O.co2   1  UNL1       -0.5441
     10 O           6.0397   -7.6578  -35.3495 O.co2   1  UNL1       -0.8035
     11 O           6.2551   -7.5367  -32.4020 O.co2   1  UNL1       -0.8035
     12 O           3.7206  -10.9684  -36.5510 O.co2   1  UNL1       -0.5441
     13 O           4.2951  -10.8868  -30.6279 O.co2   1  UNL1       -0.5441
     14 C           5.5462   -6.4859  -31.7193 C.3     1  UNL1       -0.1135
     15 C           6.9506   -6.6151  -34.9671 C.3     1  UNL1       -0.1135
     16 H           6.2485   -5.8167  -31.2679 H       1  UNL1        0.0102
     17 H           4.9212   -6.9109  -30.9620 H       1  UNL1        0.0102
     18 H           4.9421   -5.9492  -32.4206 H       1  UNL1        0.0102
     19 H           7.2703   -6.0833  -35.8389 H       1  UNL1        0.0102
     20 H           7.8007   -7.0451  -34.4799 H       1  UNL1        0.0102
     21 H           6.4595   -5.9401  -34.2977 H       1  UNL1        0.0102
@<TRIPOS>BOND
     1     1     3   ar
     2     1     5   ar
     3     1     6    1
     4     2     4   ar
     5     2     5   ar
     6     2     7    1
     7     3     4   ar
     8     3    11    1
     9     4    10    1
    10     6     8   ar
    11     6    13   ar
    12     7     9   ar
    13     7    12   ar
    14    10    15    1
    15    11    14    1
    16    14    16    1
    17    14    17    1
    18    14    18    1
    19    15    19    1
    20    15    20    1
    21    15    21    1
@<TRIPOS>SUBSTRUCTURE
     1 UNL1        1 TEMP              0 ****  ****    0 ROOT


