HTS1710-00097882-01
 OpenBabel03232612363D

 31 32  0  0  0  0  0  0  0  0999 V2000
    5.8553   -8.1422  -30.6961 O   0  0  0  0  0  1  0  0  0  0  0  0
    5.1203   -7.4700  -31.7717 S   0  0  0  0  0  0  0  0  0  0  0  0
    5.9296   -6.5825  -32.6125 O   0  0  0  0  0  0  0  0  0  0  0  0
    3.8054   -6.9486  -31.3862 O   0  0  0  0  0  0  0  0  0  0  0  0
    4.7216   -8.8483  -32.8682 C   0  0  0  0  0  0  0  0  0  0  0  0
    5.6077   -9.2044  -33.9018 C   0  0  0  0  0  0  0  0  0  0  0  0
    5.2878  -10.2565  -34.7743 C   0  0  0  0  0  0  0  0  0  0  0  0
    4.0818  -10.9565  -34.6212 C   0  0  0  0  0  0  0  0  0  0  0  0
    3.1900  -10.6070  -33.5902 C   0  0  0  0  0  0  0  0  0  0  0  0
    3.5072   -9.5473  -32.7209 C   0  0  0  0  0  0  0  0  0  0  0  0
    1.6295  -11.4910  -33.4159 S   0  0  0  0  0  0  0  0  0  0  0  0
    1.4094  -12.2766  -34.6342 O   0  0  0  0  0  0  0  0  0  0  0  0
    0.6269  -10.5368  -32.9304 O   0  0  0  0  0  0  0  0  0  0  0  0
    2.0011  -12.6309  -32.0711 C   0  0  0  0  0  0  0  0  0  0  0  0
    1.5858  -13.9722  -32.1528 C   0  0  0  0  0  0  0  0  0  0  0  0
    1.8541  -14.8565  -31.0980 C   0  0  0  0  0  0  0  0  0  0  0  0
    2.5342  -14.4060  -29.9555 C   0  0  0  0  0  0  0  0  0  0  0  0
    2.9524  -13.0652  -29.8653 C   0  0  0  0  0  0  0  0  0  0  0  0
    2.6766  -12.1775  -30.9230 C   0  0  0  0  0  0  0  0  0  0  0  0
    3.7945  -12.4741  -28.3814 S   0  0  0  0  0  0  0  0  0  0  0  0
    4.3973  -13.6878  -27.8219 O   0  0  0  0  0  0  0  0  0  0  0  0
    2.7153  -11.8806  -27.5857 O   0  0  0  0  0  0  0  0  0  0  0  0
    4.7499  -11.5125  -28.9392 O   0  0  0  0  0  1  0  0  0  0  0  0
    6.4952   -8.6909  -34.0186 H   0  0  0  0  0  0  0  0  0  0  0  0
    5.9411  -10.5155  -35.5300 H   0  0  0  0  0  0  0  0  0  0  0  0
    3.8483  -11.7284  -35.2651 H   0  0  0  0  0  0  0  0  0  0  0  0
    2.8481   -9.2810  -31.9729 H   0  0  0  0  0  0  0  0  0  0  0  0
    1.0831  -14.3059  -32.9899 H   0  0  0  0  0  0  0  0  0  0  0  0
    1.5507  -15.8408  -31.1617 H   0  0  0  0  0  0  0  0  0  0  0  0
    2.7279  -15.0592  -29.1804 H   0  0  0  0  0  0  0  0  0  0  0  0
    2.9710  -11.1907  -30.8559 H   0  0  0  0  0  0  0  0  0  0  0  0
  1  2  1  0  0  0  0
  2  3  2  0  0  0  0
  2  4  2  0  0  0  0
  2  5  1  0  0  0  0
  5  6  2  0  0  0  0
  5 10  1  0  0  0  0
  6  7  1  0  0  0  0
  6 24  1  0  0  0  0
  7  8  2  0  0  0  0
  7 25  1  0  0  0  0
  8  9  1  0  0  0  0
  8 26  1  0  0  0  0
  9 10  2  0  0  0  0
  9 11  1  0  0  0  0
 10 27  1  0  0  0  0
 11 12  2  0  0  0  0
 11 13  2  0  0  0  0
 11 14  1  0  0  0  0
 14 15  2  0  0  0  0
 14 19  1  0  0  0  0
 15 16  1  0  0  0  0
 15 28  1  0  0  0  0
 16 17  2  0  0  0  0
 16 29  1  0  0  0  0
 17 18  1  0  0  0  0
 17 30  1  0  0  0  0
 18 19  2  0  0  0  0
 18 20  1  0  0  0  0
 19 31  1  0  0  0  0
 20 21  2  0  0  0  0
 20 22  2  0  0  0  0
 20 23  1  0  0  0  0
M  END
$$$$
