##########                                Name: HTS1710-01011638-01
##########                    Molecular_Weight:             453.433
##########                DOCK_Rotatable_Bonds:                   9
##########                       Formal_Charge:                  -1
##########                     HBond_Acceptors:                  14
##########                        HBond_Donors:                   2
##########                         Heavy_Atoms:                  31
##########                          Grid_Score:          -77.635193
##########                     Grid_vdw_energy:          -51.324154
##########                      Grid_es_energy:          -26.311039
##########           Internal_energy_repulsive:           14.176254

@<TRIPOS>MOLECULE
HTS1710-01011638-01
 50 52 1 0 0
SMALL
USER_CHARGES


@<TRIPOS>ATOM
      1 N           3.4824  -12.2872  -29.7138 N.am    1  UNL1       -0.2533
      2 C           3.1943  -12.4667  -28.3700 C.2     1  UNL1        0.2438
      3 O           3.0938  -11.6218  -27.4987 O.2     1  UNL1       -0.2731
      4 CA          3.0563  -14.0052  -28.5363 C.3     1  UNL1        0.1283
      5 C           3.4699  -13.7252  -30.0172 C.3     1  UNL1        0.1041
      6 S           2.2260  -13.8995  -31.3486 S.3     1  UNL1       -0.1310
      7 C           3.3610  -13.0945  -32.5395 C.3     1  UNL1        0.0219
      8 C           3.6255  -11.6589  -32.0727 C.2     1  UNL1        0.0004
      9 CA          3.7077  -11.2810  -30.7475 C.2     1  UNL1        0.0631
     10 C           4.0006   -9.8516  -30.2969 C.2     1  UNL1        0.0860
     11 O           5.1408   -9.4443  -30.4126 O.co2   1  UNL1       -0.5433
     12 OXT         3.0987   -9.1650  -29.8529 O.co2   1  UNL1       -0.5433
     13 C           3.7879  -10.7361  -33.2816 C.3     1  UNL1        0.1164
     14 O           2.5468  -10.7079  -34.0172 O.3     1  UNL1       -0.4603
     15 C           2.3734   -9.9903  -35.1760 C.2     1  UNL1        0.3043
     16 O           3.2081   -9.2025  -35.5837 O.2     1  UNL1       -0.2512
     17 C           1.0529  -10.2489  -35.9254 C.3     1  UNL1        0.0332
     18 N           4.0983  -14.7080  -27.7850 N.am    1  UNL1       -0.3017
     19 C           5.4288  -14.3147  -27.8035 C.2     1  UNL1        0.2154
     20 C           6.4261  -15.1320  -26.9748 C.3     1  UNL1        0.0435
     21 C           5.9721  -16.6022  -26.7856 C.3     1  UNL1        0.0500
     22 N           6.8932  -17.4143  -25.9747 N.ar    1  UNL1       -0.2642
     23 N           6.4300  -18.4571  -25.2142 N.ar    1  UNL1       -0.1697
     24 C           7.4925  -18.8720  -24.5472 C.ar    1  UNL1        0.1303
     25 C           7.4824  -19.9793  -23.5237 C.3     1  UNL1       -0.0142
     26 C           8.6601  -18.1124  -24.8787 C.ar    1  UNL1        0.2455
     27 C           8.2466  -17.1891  -25.7983 C.ar    1  UNL1        0.0965
     28 N          10.0112  -18.2377  -24.3765 N.pl3   1  UNL1       -0.1586
     29 O          10.8354  -17.4259  -24.7858 O.co2   1  UNL1       -0.6334
     30 O          10.2854  -19.1765  -23.6393 O.2     1  UNL1       -0.0291
     31 O           5.7754  -13.3537  -28.4693 O.2     1  UNL1       -0.2757
     32 H           2.1865  -14.5681  -28.2689 H       1  UNL1        0.0622
     33 H           4.2733  -14.3296  -30.3833 H       1  UNL1        0.0644
     34 H           2.9126  -13.0804  -33.5109 H       1  UNL1        0.0424
     35 H           4.2818  -13.6371  -32.5894 H       1  UNL1        0.0424
     36 H           4.5707  -11.1037  -33.9117 H       1  UNL1        0.0746
     37 H           4.0377   -9.7487  -32.9534 H       1  UNL1        0.0746
     38 H           0.4752  -10.9732  -35.3904 H       1  UNL1        0.0342
     39 H           1.2662  -10.6172  -36.9071 H       1  UNL1        0.0342
     40 H           0.5001   -9.3358  -35.9994 H       1  UNL1        0.0342
     41 H           3.8446  -15.4912  -27.2449 H       1  UNL1        0.1495
     42 H           6.5271  -14.6768  -26.0117 H       1  UNL1        0.0376
     43 H           7.3569  -15.1433  -27.5026 H       1  UNL1        0.0376
     44 H           5.8861  -17.0546  -27.7514 H       1  UNL1        0.0513
     45 H           5.0408  -16.5729  -26.2594 H       1  UNL1        0.0513
     46 H           6.4978  -20.3926  -23.4550 H       1  UNL1        0.0295
     47 H           7.7719  -19.5872  -22.5711 H       1  UNL1        0.0295
     48 H           8.1704  -20.7439  -23.8186 H       1  UNL1        0.0295
     49 H           8.8246  -16.4723  -26.2643 H       1  UNL1        0.0893
     50 H           9.9295  -17.6196  -25.1384 H       1  UNL1        0.4510
@<TRIPOS>BOND
     1     1     2   am
     2     2     3    2
     3     2     4    1
     4     4     5    1
     5     1     5    1
     6     5     6    1
     7     6     7    1
     8     7     8    1
     9     8     9    2
    10     1     9    1
    11     9    10    1
    12    10    11   ar
    13    10    12   ar
    14     8    13    1
    15    13    14    1
    16    14    15    1
    17    15    16    2
    18    15    17    1
    19     4    18    1
    20    18    19   am
    21    19    20    1
    22    20    21    1
    23    21    22    1
    24    22    23   ar
    25    23    24   ar
    26    24    25    1
    27    24    26   ar
    28    26    27   ar
    29    22    27   ar
    30    26    28    1
    31    28    29    1
    32    28    30    2
    33    19    31    2
    34     4    32    1
    35     5    33    1
    36     7    34    1
    37     7    35    1
    38    13    36    1
    39    13    37    1
    40    17    38    1
    41    17    39    1
    42    17    40    1
    43    18    41    1
    44    20    42    1
    45    20    43    1
    46    21    44    1
    47    21    45    1
    48    25    46    1
    49    25    47    1
    50    25    48    1
    51    27    49    1
    52    28    50    1
@<TRIPOS>SUBSTRUCTURE
     1 UNL1        1 TEMP              0 ****  ****    0 ROOT


