##########                                Name: HTS1710-00384859-01
##########                    Molecular_Weight:             262.242
##########                DOCK_Rotatable_Bonds:                   5
##########                       Formal_Charge:                  -3
##########                     HBond_Acceptors:                   6
##########                        HBond_Donors:                   0
##########                         Heavy_Atoms:                  19
##########                          Grid_Score:          -81.524055
##########                     Grid_vdw_energy:          -28.860121
##########                      Grid_es_energy:          -52.663937
##########           Internal_energy_repulsive:            7.671174

@<TRIPOS>MOLECULE
HTS1710-00384859-01
 31 32 1 0 0
SMALL
USER_CHARGES


@<TRIPOS>ATOM
      1 C           4.1034  -13.8967  -33.0286 C.3     1  UNL1        0.0038
      2 N           3.8196  -12.8077  -33.9828 N.am    1  UNL1       -0.2974
      3 C           2.7377  -11.9013  -33.5319 C.3     1  UNL1        0.0269
      4 C           3.1885  -10.9823  -32.4264 C.2     1  UNL1       -0.0998
      5 C           2.8621  -11.1431  -31.1069 C.2     1  UNL1       -0.0630
      6 C           3.4784  -10.0513  -30.4408 C.2     1  UNL1       -0.0144
      7 C           3.4154   -9.7687  -28.9873 C.2     1  UNL1        0.0708
      8 O           3.3614   -8.6080  -28.6220 O.co2   1  UNL1       -0.5447
      9 O           3.4217  -10.7290  -28.2361 O.co2   1  UNL1       -0.5447
     10 C           4.1119   -9.3622  -31.4573 C.2     1  UNL1       -0.1120
     11 C           4.9282   -8.1047  -31.2898 C.3     1  UNL1       -0.0524
     12 O           3.9667   -9.8945  -32.7129 O.co2   1  UNL1       -0.7845
     13 C           4.5559  -12.5100  -35.1455 C.2     1  UNL1        0.2455
     14 O           5.4516  -13.2434  -35.5302 O.2     1  UNL1       -0.2700
     15 C           4.2332  -11.2710  -35.9173 C.2     1  UNL1        0.0219
     16 C           3.1610  -11.1778  -36.8445 C.2     1  UNL1       -0.0647
     17 C           3.2120   -9.9101  -37.3530 C.2     1  UNL1       -0.1335
     18 O           4.2337   -9.1523  -36.8540 O.co2   1  UNL1       -0.7897
     19 C           4.8326  -10.0289  -35.9877 C.2     1  UNL1       -0.1218
     20 H           3.3774  -13.8806  -32.2428 H       1  UNL1        0.0429
     21 H           5.0806  -13.7620  -32.6141 H       1  UNL1        0.0429
     22 H           4.0582  -14.8372  -33.5370 H       1  UNL1        0.0429
     23 H           1.9191  -12.4919  -33.1768 H       1  UNL1        0.0502
     24 H           2.4484  -11.2954  -34.3651 H       1  UNL1        0.0502
     25 H           2.2923  -11.8944  -30.6876 H       1  UNL1        0.0615
     26 H           4.9424   -7.8236  -30.2575 H       1  UNL1        0.0266
     27 H           4.4922   -7.3169  -31.8680 H       1  UNL1        0.0266
     28 H           5.9288   -8.2816  -31.6252 H       1  UNL1        0.0266
     29 H           2.4820  -11.9168  -37.0851 H       1  UNL1        0.0613
     30 H           2.5391   -9.5569  -38.0512 H       1  UNL1        0.0455
     31 H           5.6657   -9.7806  -35.4317 H       1  UNL1        0.0462
@<TRIPOS>BOND
     1     1     2    1
     2     2     3    1
     3     3     4    1
     4     4     5    2
     5     5     6    1
     6     6     7    1
     7     7     8   ar
     8     7     9   ar
     9     6    10    2
    10    10    11    1
    11    10    12    1
    12     4    12    1
    13     2    13   am
    14    13    14    2
    15    13    15    1
    16    15    16    1
    17    16    17    2
    18    17    18    1
    19    18    19    1
    20    15    19    2
    21     1    20    1
    22     1    21    1
    23     1    22    1
    24     3    23    1
    25     3    24    1
    26     5    25    1
    27    11    26    1
    28    11    27    1
    29    11    28    1
    30    16    29    1
    31    17    30    1
    32    19    31    1
@<TRIPOS>SUBSTRUCTURE
     1 UNL1        1 TEMP              0 ****  ****    0 ROOT


