HTS1710-02553580-01
 OpenBabel03232612353D

 38 39  0  0  0  0  0  0  0  0999 V2000
    2.6948  -11.4310  -35.9953 S   0  0  0  0  0  0  0  0  0  0  0  0
    4.2652  -10.7919  -35.8378 N   0  0  0  0  0  0  0  0  0  0  0  0
    5.0847   -9.3350  -32.5218 C   0  0  0  0  0  0  0  0  0  0  0  0
    6.0413   -7.9388  -34.3023 C   0  0  0  0  0  0  0  0  0  0  0  0
    6.8284   -6.7236  -34.7407 C   0  0  0  0  0  0  0  0  0  0  0  0
    4.8332   -9.6073  -31.0576 C   0  0  0  0  0  0  0  0  0  0  0  0
    1.5764  -10.0404  -35.7369 C   0  0  0  0  0  0  0  0  0  0  0  0
    4.7793   -9.9566  -34.8667 C   0  0  0  0  0  0  0  0  0  0  0  0
    5.8118   -8.1979  -32.9337 C   0  0  0  0  0  0  0  0  0  0  0  0
    2.6418  -11.7430  -37.4265 O   0  0  0  0  0  0  0  0  0  0  0  0
    2.5483  -12.4501  -34.9518 O   0  0  0  0  0  0  0  0  0  0  0  0
   -2.4285   -6.8716  -34.7527 C   0  0  0  0  0  0  0  0  0  0  0  0
    4.5872  -10.2181  -33.4989 C   0  0  0  0  0  0  0  0  0  0  0  0
    5.5154   -8.8285  -35.2618 C   0  0  0  0  0  0  0  0  0  0  0  0
   -1.1367   -6.8429  -35.2722 N   0  0  0  0  0  0  0  0  0  0  0  0
    7.2400   -5.9736  -33.8715 O   0  5  0  0  0  0  0  0  0  0  0  0
    4.1792  -10.5961  -30.7713 O   0  5  0  0  0  0  0  0  0  0  0  0
   -2.9393   -7.9079  -34.3659 O   0  0  0  0  0  0  0  0  0  0  0  0
    1.5555   -8.9648  -36.6386 C   0  0  0  0  0  0  0  0  0  0  0  0
    0.6997  -10.0443  -34.6398 C   0  0  0  0  0  0  0  0  0  0  0  0
   -0.2635   -7.9237  -35.3811 C   0  0  0  0  0  0  0  0  0  0  0  0
    5.3037   -8.8213  -30.2517 O   0  0  0  0  0  0  0  0  0  0  0  0
    7.0039   -6.5679  -35.9375 O   0  0  0  0  0  0  0  0  0  0  0  0
   -0.2113   -8.9925  -34.4574 C   0  0  0  0  0  0  0  0  0  0  0  0
    0.6464   -7.9109  -36.4546 C   0  0  0  0  0  0  0  0  0  0  0  0
   -3.2054   -5.5567  -34.7336 C   0  0  0  0  0  0  0  0  0  0  0  0
    4.8994  -11.0571  -36.5426 H   0  0  0  0  0  0  0  0  0  0  0  0
    6.1811   -7.5460  -32.2240 H   0  0  0  0  0  0  0  0  0  0  0  0
    4.0760  -11.0662  -33.2080 H   0  0  0  0  0  0  0  0  0  0  0  0
    5.6733   -8.6482  -36.2656 H   0  0  0  0  0  0  0  0  0  0  0  0
   -0.8077   -5.9728  -35.5945 H   0  0  0  0  0  0  0  0  0  0  0  0
    2.2088   -8.9487  -37.4374 H   0  0  0  0  0  0  0  0  0  0  0  0
    0.7255  -10.8243  -33.9645 H   0  0  0  0  0  0  0  0  0  0  0  0
   -0.8468   -8.9995  -33.6443 H   0  0  0  0  0  0  0  0  0  0  0  0
    0.6453   -7.1175  -37.1144 H   0  0  0  0  0  0  0  0  0  0  0  0
   -2.5851   -4.7704  -35.1104 H   0  0  0  0  0  0  0  0  0  0  0  0
   -3.4982   -5.3299  -33.7298 H   0  0  0  0  0  0  0  0  0  0  0  0
   -4.0771   -5.6484  -35.3474 H   0  0  0  0  0  0  0  0  0  0  0  0
  1  2  1  0  0  0  0
  1  7  1  0  0  0  0
  1 10  2  0  0  0  0
  1 11  2  0  0  0  0
  2  8  1  0  0  0  0
  2 27  1  0  0  0  0
  3  6  1  0  0  0  0
  3  9  2  0  0  0  0
  3 13  1  0  0  0  0
  4  5  1  0  0  0  0
  4  9  1  0  0  0  0
  4 14  2  0  0  0  0
  5 16  1  0  0  0  0
  5 23  2  0  0  0  0
  6 17  1  0  0  0  0
  6 22  2  0  0  0  0
  7 19  2  0  0  0  0
  7 20  1  0  0  0  0
  8 13  2  0  0  0  0
  8 14  1  0  0  0  0
  9 28  1  0  0  0  0
 12 15  1  0  0  0  0
 12 18  2  0  0  0  0
 12 26  1  0  0  0  0
 13 29  1  0  0  0  0
 14 30  1  0  0  0  0
 15 21  1  0  0  0  0
 15 31  1  0  0  0  0
 19 25  1  0  0  0  0
 19 32  1  0  0  0  0
 20 24  2  0  0  0  0
 20 33  1  0  0  0  0
 21 24  1  0  0  0  0
 21 25  2  0  0  0  0
 24 34  1  0  0  0  0
 25 35  1  0  0  0  0
 26 36  1  0  0  0  0
 26 37  1  0  0  0  0
 26 38  1  0  0  0  0
M  CHG  2  16  -1  17  -1
M  END
$$$$
