##########                                Name: HTS1710-01246511-01
##########                    Molecular_Weight:             344.324
##########                DOCK_Rotatable_Bonds:                   7
##########                       Formal_Charge:                  -2
##########                     HBond_Acceptors:                   8
##########                        HBond_Donors:                   3
##########                         Heavy_Atoms:                  25
##########                          Grid_Score:          -77.843063
##########                     Grid_vdw_energy:          -39.143990
##########                      Grid_es_energy:          -38.699074
##########           Internal_energy_repulsive:           11.452597

@<TRIPOS>MOLECULE
HTS1710-01246511-01
 41 43 1 0 0
SMALL
USER_CHARGES


@<TRIPOS>ATOM
      1 C           4.4214   -7.2957  -31.4263 C.2     1  UNL1       -0.0555
      2 C           4.9866   -8.2626  -32.2409 C.2     1  UNL1       -0.1091
      3 C           3.6986   -9.9620  -30.9079 C.2     1  UNL1        0.0538
      4 C           3.2331   -8.9146  -30.1681 C.2     1  UNL1       -0.0306
      5 O           3.4838   -7.6007  -30.4684 O.co2   1  UNL1       -0.7688
      6 C           4.5346   -9.6951  -32.1649 C.3     1  UNL1        0.0284
      7 C           4.8039   -5.8837  -31.5624 C.2     1  UNL1        0.1708
      8 O           5.9425   -8.0003  -33.2042 O.co2   1  UNL1       -0.7839
      9 C           5.8086   -5.6527  -32.5981 C.2     1  UNL1       -0.0241
     10 C           3.4160  -11.4195  -30.5774 C.2     1  UNL1        0.3367
     11 C           6.3287   -6.6854  -33.3479 C.2     1  UNL1       -0.0886
     12 C           3.7674  -10.0715  -33.4327 C.ar    1  UNL1       -0.0336
     13 N           2.4586   -9.1103  -29.0484 N.pl3   1  UNL1       -0.3685
     14 O           4.3352   -4.9877  -30.8813 O.2     1  UNL1       -0.2886
     15 O           2.4969  -11.8132  -29.8766 O.2     1  UNL1       -0.2453
     16 N           2.3461  -10.7526  -35.7775 N.ar    1  UNL1       -0.2632
     17 O           4.3135  -12.2667  -31.1691 O.3     1  UNL1       -0.4616
     18 C           7.3596   -6.4033  -34.4111 C.3     1  UNL1        0.0566
     19 O           6.7999   -6.4939  -35.7191 O.3     1  UNL1       -0.3915
     20 C           1.7039  -10.2929  -34.6855 C.ar    1  UNL1        0.0278
     21 C           3.6868  -10.8808  -35.7171 C.ar    1  UNL1        0.0278
     22 C           4.4361  -10.5562  -34.5723 C.ar    1  UNL1       -0.0395
     23 C           2.3679   -9.9431  -33.4973 C.ar    1  UNL1       -0.0395
     24 C           4.4012  -13.6360  -30.7388 C.3     1  UNL1        0.0900
     25 C           4.7865  -13.6414  -29.2482 C.3     1  UNL1       -0.0306
     26 H           5.4040  -10.3147  -32.0951 H       1  UNL1        0.0437
     27 H           6.1376   -4.6902  -32.7728 H       1  UNL1        0.0647
     28 H           2.5717   -9.9254  -28.5080 H       1  UNL1        0.1413
     29 H           1.7912   -8.4353  -28.7873 H       1  UNL1        0.1413
     30 H           8.1538   -7.1149  -34.3227 H       1  UNL1        0.0596
     31 H           7.7232   -5.4069  -34.2700 H       1  UNL1        0.0596
     32 H           6.0513   -5.8816  -35.7936 H       1  UNL1        0.2098
     33 H           0.6773  -10.1932  -34.7235 H       1  UNL1        0.0829
     34 H           4.1859  -11.2331  -36.5489 H       1  UNL1        0.0829
     35 H           5.4616  -10.6717  -34.5678 H       1  UNL1        0.0636
     36 H           1.8363   -9.5969  -32.6834 H       1  UNL1        0.0636
     37 H           5.1476  -14.1489  -31.3087 H       1  UNL1        0.0695
     38 H           3.4642  -14.1321  -30.8827 H       1  UNL1        0.0695
     39 H           5.7245  -13.1425  -29.1204 H       1  UNL1        0.0262
     40 H           4.8702  -14.6514  -28.9051 H       1  UNL1        0.0262
     41 H           4.0327  -13.1340  -28.6831 H       1  UNL1        0.0262
@<TRIPOS>BOND
     1     1     2    2
     2     3     4    2
     3     4     5    1
     4     1     5    1
     5     2     6    1
     6     1     7    1
     7     2     8    1
     8     7     9    1
     9     3    10    1
    10     9    11    2
    11     6    12    1
    12     4    13    1
    13     7    14    2
    14    10    15    2
    15    16    20   ar
    16    10    17    1
    17    11    18    1
    18    18    19    1
    19    20    23   ar
    20    21    22   ar
    21    12    22   ar
    22    12    23   ar
    23    17    24    1
    24    24    25    1
    25     3     6    1
    26     8    11    1
    27    16    21   ar
    28     6    26    1
    29     9    27    1
    30    13    28    1
    31    13    29    1
    32    18    30    1
    33    18    31    1
    34    19    32    1
    35    20    33    1
    36    21    34    1
    37    22    35    1
    38    23    36    1
    39    24    37    1
    40    24    38    1
    41    25    39    1
    42    25    40    1
    43    25    41    1
@<TRIPOS>SUBSTRUCTURE
     1 UNL1        1 TEMP              0 ****  ****    0 ROOT


