##########                                Name: HTS1710-04601346-01
##########                    Molecular_Weight:             405.404
##########                DOCK_Rotatable_Bonds:                  10
##########                       Formal_Charge:                  -2
##########                     HBond_Acceptors:                   9
##########                        HBond_Donors:                   0
##########                         Heavy_Atoms:                  29
##########                          Grid_Score:          -79.705704
##########                     Grid_vdw_energy:          -46.552574
##########                      Grid_es_energy:          -33.153126
##########           Internal_energy_repulsive:           15.463619

@<TRIPOS>MOLECULE
HTS1710-04601346-01
 52 54 1 0 0
SMALL
USER_CHARGES


@<TRIPOS>ATOM
      1 N           3.0692  -11.7079  -33.0532 N.am    1  UNL1       -0.2575
      2 C           3.5036  -12.7258  -32.2083 C.2     1  UNL1        0.4038
      3 C          -1.0766   -7.6390  -33.3398 C.2     1  UNL1        0.0441
      4 C           5.7058   -8.5301  -33.1754 C.2     1  UNL1        0.0440
      5 C           0.1862   -8.2725  -32.9192 C.2     1  UNL1        0.3383
      6 C           3.1546  -11.7747  -34.5226 C.3     1  UNL1        0.0668
      7 C           5.5008   -9.3676  -34.3697 C.2     1  UNL1        0.3381
      8 O           3.2356  -12.4161  -30.8973 O.3     1  UNL1       -0.4445
      9 C           2.0059   -9.6946  -33.8762 C.3     1  UNL1        0.1209
     10 O           0.6346   -9.2208  -33.8066 O.3     1  UNL1       -0.4562
     11 C           2.2253  -10.6588  -35.0642 C.3     1  UNL1        0.0078
     12 C           2.4129  -10.4694  -32.6050 C.3     1  UNL1        0.0554
     13 C          -1.8341   -6.7309  -32.6430 C.2     1  UNL1       -0.1199
     14 C           5.4520   -8.8681  -31.8702 C.2     1  UNL1       -0.1199
     15 O           5.3187  -10.6927  -34.0786 O.3     1  UNL1       -0.4593
     16 O           4.0535  -13.7427  -32.5996 O.2     1  UNL1       -0.2262
     17 C          -1.7737   -7.8356  -34.5569 C.2     1  UNL1       -0.0629
     18 C           6.2065   -7.2051  -33.1147 C.2     1  UNL1       -0.0629
     19 O          -2.9655   -6.3197  -33.2998 O.co2   1  UNL1       -0.7896
     20 O           5.7425   -7.8804  -30.9642 O.co2   1  UNL1       -0.7896
     21 C           4.6213  -11.5649  -34.9946 C.3     1  UNL1        0.1115
     22 O           0.7587   -7.9688  -31.8851 O.2     1  UNL1       -0.2450
     23 O           5.4999   -8.9149  -35.5030 O.2     1  UNL1       -0.2450
     24 C           6.2028   -6.8822  -31.7836 C.2     1  UNL1       -0.1334
     25 C          -2.8780   -7.0295  -34.4696 C.2     1  UNL1       -0.1334
     26 C           3.3500  -13.3502  -29.7924 C.3     1  UNL1        0.1068
     27 C           4.7834  -13.9494  -29.7666 C.3     1  UNL1       -0.0253
     28 C           2.2561  -14.4470  -29.9212 C.3     1  UNL1       -0.0253
     29 C           3.1066  -12.5107  -28.5120 C.3     1  UNL1       -0.0253
     30 H           2.8505  -12.7329  -34.8891 H       1  UNL1        0.0536
     31 H           2.6002   -8.8121  -33.9898 H       1  UNL1        0.0750
     32 H           1.2931  -11.0723  -35.3878 H       1  UNL1        0.0320
     33 H           2.6534  -10.1593  -35.9081 H       1  UNL1        0.0320
     34 H           1.5462  -10.7020  -32.0221 H       1  UNL1        0.0502
     35 H           3.0700   -9.8863  -31.9941 H       1  UNL1        0.0502
     36 H          -1.5745   -6.3870  -31.7053 H       1  UNL1        0.0463
     37 H           5.0745   -9.7879  -31.5936 H       1  UNL1        0.0463
     38 H          -1.5075   -8.4525  -35.3401 H       1  UNL1        0.0614
     39 H           6.5086   -6.6119  -33.9032 H       1  UNL1        0.0614
     40 H           5.1199  -12.5110  -35.0310 H       1  UNL1        0.0716
     41 H           4.6153  -11.1182  -35.9668 H       1  UNL1        0.0716
     42 H           6.5192   -5.9665  -31.4282 H       1  UNL1        0.0455
     43 H          -3.5834   -6.9624  -35.2198 H       1  UNL1        0.0455
     44 H           4.9444  -14.5273  -30.6526 H       1  UNL1        0.0268
     45 H           4.8922  -14.5769  -28.9068 H       1  UNL1        0.0268
     46 H           5.5006  -13.1565  -29.7225 H       1  UNL1        0.0268
     47 H           2.4302  -15.0222  -30.8065 H       1  UNL1        0.0268
     48 H           1.2928  -13.9849  -29.9798 H       1  UNL1        0.0268
     49 H           2.2923  -15.0890  -29.0659 H       1  UNL1        0.0268
     50 H           3.8628  -11.7581  -28.4299 H       1  UNL1        0.0268
     51 H           3.1442  -13.1492  -27.6543 H       1  UNL1        0.0268
     52 H           2.1449  -12.0451  -28.5683 H       1  UNL1        0.0268
@<TRIPOS>BOND
     1     1     2   am
     2     3     5    1
     3     4     7    1
     4     5    10    1
     5     1     6    1
     6     7    15    1
     7     2     8    1
     8     9    12    1
     9     9    10    1
    10     6    11    1
    11     1    12    1
    12     3    13    2
    13     4    14    2
    14    15    21    1
    15     2    16    2
    16     3    17    1
    17     4    18    1
    18    13    19    1
    19    14    20    1
    20     6    21    1
    21     5    22    2
    22     7    23    2
    23    18    24    2
    24    17    25    2
    25     8    26    1
    26    26    27    1
    27    26    28    1
    28    26    29    1
    29     9    11    1
    30    20    24    1
    31    19    25    1
    32     6    30    1
    33     9    31    1
    34    11    32    1
    35    11    33    1
    36    12    34    1
    37    12    35    1
    38    13    36    1
    39    14    37    1
    40    17    38    1
    41    18    39    1
    42    21    40    1
    43    21    41    1
    44    24    42    1
    45    25    43    1
    46    27    44    1
    47    27    45    1
    48    27    46    1
    49    28    47    1
    50    28    48    1
    51    28    49    1
    52    29    50    1
    53    29    51    1
    54    29    52    1
@<TRIPOS>SUBSTRUCTURE
     1 UNL1        1 TEMP              0 ****  ****    0 ROOT


