HTS1710-02534528-01
 OpenBabel03232612353D

 42 44  0  0  0  0  0  0  0  0999 V2000
    3.1122  -10.8291  -33.9639 C   0  0  0  0  0  0  0  0  0  0  0  0
    1.5901   -9.4158  -34.7466 N   0  0  0  0  0  0  0  0  0  0  0  0
    1.8191  -10.2205  -33.6558 C   0  0  0  0  0  0  0  0  0  0  0  0
    2.6116   -9.4450  -35.6542 N   0  0  0  0  0  0  0  0  0  0  0  0
    3.5492  -10.2809  -35.2276 C   0  0  0  0  0  0  0  0  0  0  0  0
    3.7332  -11.7110  -33.1036 C   0  0  0  0  0  0  0  0  0  0  0  0
    0.4376   -8.6212  -35.0289 C   0  0  0  0  0  0  0  0  0  0  0  0
    3.3917  -12.3389  -31.7971 C   0  0  0  0  0  0  0  0  0  0  0  0
   -3.0706   -6.1884  -35.8855 C   0  0  0  0  0  0  0  0  0  0  0  0
    1.1044  -10.3715  -32.6783 O   0  0  0  0  0  0  0  0  0  0  0  0
   -1.8508   -7.0330  -35.5864 C   0  0  0  0  0  0  0  0  0  0  0  0
    3.6079   -8.8431  -29.5466 C   0  0  0  0  0  0  0  0  0  0  0  0
    3.8645  -11.8260  -30.5659 C   0  0  0  0  0  0  0  0  0  0  0  0
    4.7501  -10.7661  -30.5821 O   0  0  0  0  0  0  0  0  0  0  0  0
   -2.8879   -5.0855  -36.3738 O   0  5  0  0  0  0  0  0  0  0  0  0
    3.8644   -9.3207  -28.4548 O   0  5  0  0  0  0  0  0  0  0  0  0
   -0.6964   -8.6822  -34.1954 C   0  0  0  0  0  0  0  0  0  0  0  0
    0.4197   -7.7560  -36.1387 C   0  0  0  0  0  0  0  0  0  0  0  0
   -1.8282   -7.8977  -34.4714 C   0  0  0  0  0  0  0  0  0  0  0  0
   -0.7111   -6.9715  -36.4147 C   0  0  0  0  0  0  0  0  0  0  0  0
    4.3484   -9.3931  -30.7755 C   0  0  0  0  0  0  0  0  0  0  0  0
   -4.1620   -6.6607  -35.6187 O   0  0  0  0  0  0  0  0  0  0  0  0
    2.8052   -7.9503  -29.7548 O   0  0  0  0  0  0  0  0  0  0  0  0
    4.9393  -10.3978  -35.8048 C   0  0  0  0  0  0  0  0  0  0  0  0
    2.6573  -13.5408  -31.8023 C   0  0  0  0  0  0  0  0  0  0  0  0
    3.5167  -12.4707  -29.3572 C   0  0  0  0  0  0  0  0  0  0  0  0
    2.3157  -14.1771  -30.5998 C   0  0  0  0  0  0  0  0  0  0  0  0
    2.7323  -13.6338  -29.3774 C   0  0  0  0  0  0  0  0  0  0  0  0
    4.6592  -12.0075  -33.4495 H   0  0  0  0  0  0  0  0  0  0  0  0
   -0.6955   -9.3085  -33.3751 H   0  0  0  0  0  0  0  0  0  0  0  0
    1.2454   -7.6977  -36.7550 H   0  0  0  0  0  0  0  0  0  0  0  0
   -2.6520   -7.9542  -33.8523 H   0  0  0  0  0  0  0  0  0  0  0  0
   -0.7084   -6.3427  -37.2331 H   0  0  0  0  0  0  0  0  0  0  0  0
    5.2198   -8.7976  -30.9514 H   0  0  0  0  0  0  0  0  0  0  0  0
    3.6836   -9.3533  -31.6129 H   0  0  0  0  0  0  0  0  0  0  0  0
    5.4849  -11.1484  -35.2719 H   0  0  0  0  0  0  0  0  0  0  0  0
    5.4435   -9.4584  -35.7140 H   0  0  0  0  0  0  0  0  0  0  0  0
    4.8749  -10.6696  -36.8378 H   0  0  0  0  0  0  0  0  0  0  0  0
    2.3673  -13.9579  -32.7007 H   0  0  0  0  0  0  0  0  0  0  0  0
    3.8408  -12.0846  -28.4567 H   0  0  0  0  0  0  0  0  0  0  0  0
    1.7577  -15.0451  -30.6155 H   0  0  0  0  0  0  0  0  0  0  0  0
    2.4621  -14.0893  -28.4917 H   0  0  0  0  0  0  0  0  0  0  0  0
  1  3  1  0  0  0  0
  1  5  1  0  0  0  0
  1  6  2  0  0  0  0
  2  3  1  0  0  0  0
  2  4  1  0  0  0  0
  2  7  1  0  0  0  0
  3 10  2  0  0  0  0
  4  5  2  0  0  0  0
  5 24  1  0  0  0  0
  6  8  1  0  0  0  0
  6 29  1  0  0  0  0
  7 17  2  0  0  0  0
  7 18  1  0  0  0  0
  8 13  2  0  0  0  0
  8 25  1  0  0  0  0
  9 11  1  0  0  0  0
  9 15  1  0  0  0  0
  9 22  2  0  0  0  0
 11 19  2  0  0  0  0
 11 20  1  0  0  0  0
 12 16  1  0  0  0  0
 12 21  1  0  0  0  0
 12 23  2  0  0  0  0
 13 14  1  0  0  0  0
 13 26  1  0  0  0  0
 14 21  1  0  0  0  0
 17 19  1  0  0  0  0
 17 30  1  0  0  0  0
 18 20  2  0  0  0  0
 18 31  1  0  0  0  0
 19 32  1  0  0  0  0
 20 33  1  0  0  0  0
 21 34  1  0  0  0  0
 21 35  1  0  0  0  0
 24 36  1  0  0  0  0
 24 37  1  0  0  0  0
 24 38  1  0  0  0  0
 25 27  2  0  0  0  0
 25 39  1  0  0  0  0
 26 28  2  0  0  0  0
 26 40  1  0  0  0  0
 27 28  1  0  0  0  0
 27 41  1  0  0  0  0
 28 42  1  0  0  0  0
M  CHG  2  15  -1  16  -1
M  END
$$$$
