##########                                Name: HTS1710-04740697-01
##########                    Molecular_Weight:             333.751
##########                DOCK_Rotatable_Bonds:                   4
##########                       Formal_Charge:                  -2
##########                     HBond_Acceptors:                   7
##########                        HBond_Donors:                   0
##########                         Heavy_Atoms:                  23
##########                          Grid_Score:          -75.866638
##########                     Grid_vdw_energy:          -35.840767
##########                      Grid_es_energy:          -40.025871
##########           Internal_energy_repulsive:            7.649392

@<TRIPOS>MOLECULE
HTS1710-04740697-01
 37 39 1 0 0
SMALL
USER_CHARGES


@<TRIPOS>ATOM
      1 C           3.2611  -11.9661  -35.5415 C.3     1  UNL1       -0.0529
      2 C           3.0469  -10.4437  -35.2852 C.3     1  UNL1        0.0245
      3 C           1.5813  -10.0308  -35.5619 C.3     1  UNL1       -0.0252
      4 C           1.2267   -8.9844  -34.4901 C.3     1  UNL1        0.0159
      5 N           2.2400   -9.0829  -33.4228 N.am    1  UNL1       -0.2966
      6 C           3.2330  -10.1095  -33.7841 C.3     1  UNL1        0.0255
      7 C           2.4195   -8.2376  -32.3178 C.2     1  UNL1        0.2476
      8 O           1.6874   -7.2777  -32.1396 O.2     1  UNL1       -0.2699
      9 C           3.5317   -8.5563  -31.3697 C.2     1  UNL1        0.0490
     10 C           3.5584   -9.5383  -30.4264 C.2     1  UNL1       -0.1081
     11 O           4.7874   -9.7252  -29.8885 O.co2   1  UNL1       -0.7160
     12 N           5.6545   -8.7894  -30.5304 N.2     1  UNL1       -0.3025
     13 C           4.8941   -8.0901  -31.3683 C.2     1  UNL1        0.0724
     14 C           5.3481   -6.9370  -32.1744 C.ar    1  UNL1        0.0004
     15 C           6.3905   -7.1288  -33.1064 C.ar    1  UNL1       -0.0512
     16 C           6.8836   -6.0580  -33.8703 C.ar    1  UNL1       -0.0428
     17 C           6.3584   -4.7711  -33.6919 C.ar    1  UNL1        0.0410
     18 CL          6.9774   -3.4328  -34.6386 Cl      1  UNL1       -0.0835
     19 C           5.3552   -4.5524  -32.7378 C.ar    1  UNL1       -0.0428
     20 C           4.8620   -5.6241  -31.9763 C.ar    1  UNL1       -0.0512
     21 C           4.0080   -9.5658  -36.1417 C.2     1  UNL1        0.0492
     22 O           3.5991   -9.1403  -37.2097 O.co2   1  UNL1       -0.5492
     23 O           5.1282   -9.3645  -35.7025 O.co2   1  UNL1       -0.5492
     24 H           2.5827  -12.5288  -34.9348 H       1  UNL1        0.0239
     25 H           4.2671  -12.2317  -35.2921 H       1  UNL1        0.0239
     26 H           3.0803  -12.1829  -36.5737 H       1  UNL1        0.0239
     27 H           0.9343  -10.8793  -35.4816 H       1  UNL1        0.0290
     28 H           1.4647   -9.6358  -36.5494 H       1  UNL1        0.0290
     29 H           0.2546   -9.1853  -34.0908 H       1  UNL1        0.0465
     30 H           1.2176   -8.0009  -34.9117 H       1  UNL1        0.0465
     31 H           3.0785  -10.9885  -33.1940 H       1  UNL1        0.0473
     32 H           4.2242   -9.7498  -33.6022 H       1  UNL1        0.0473
     33 H           2.7274  -10.0842  -30.1497 H       1  UNL1        0.0471
     34 H           6.7965   -8.0697  -33.2285 H       1  UNL1        0.0625
     35 H           7.6321   -6.2189  -34.5623 H       1  UNL1        0.0632
     36 H           4.9785   -3.6023  -32.5947 H       1  UNL1        0.0632
     37 H           4.1361   -5.4514  -31.2634 H       1  UNL1        0.0625
@<TRIPOS>BOND
     1     1     2    1
     2     2     3    1
     3     3     4    1
     4     4     5    1
     5     5     6    1
     6     2     6    1
     7     5     7   am
     8     7     8    2
     9     7     9    1
    10     9    10    2
    11    10    11    1
    12    11    12    1
    13    12    13    2
    14     9    13    1
    15    13    14    1
    16    14    15   ar
    17    15    16   ar
    18    16    17   ar
    19    17    18    1
    20    17    19   ar
    21    19    20   ar
    22    14    20   ar
    23     2    21    1
    24    21    22   ar
    25    21    23   ar
    26     1    24    1
    27     1    25    1
    28     1    26    1
    29     3    27    1
    30     3    28    1
    31     4    29    1
    32     4    30    1
    33     6    31    1
    34     6    32    1
    35    10    33    1
    36    15    34    1
    37    16    35    1
    38    19    36    1
    39    20    37    1
@<TRIPOS>SUBSTRUCTURE
     1 UNL1        1 TEMP              0 ****  ****    0 ROOT


