HTS1710-01164317-01
 OpenBabel03232612353D

 43 45  0  0  1  0  0  0  0  0999 V2000
    4.4156   -7.3869  -31.4489 C   0  0  0  0  0  0  0  0  0  0  0  0
    4.9522   -8.3293  -32.3094 C   0  0  0  0  0  0  0  0  0  0  0  0
    3.8079  -10.0750  -30.9201 C   0  0  0  0  0  0  0  0  0  0  0  0
    3.3591   -9.0491  -30.1399 C   0  0  0  0  0  0  0  0  0  0  0  0
    4.5038   -9.7635  -32.2494 C   0  0  1  0  0  0  0  0  0  0  0  0
    3.5237   -7.7254  -30.4585 O   0  0  0  0  0  0  0  0  0  0  0  0
    4.7823   -5.9688  -31.5661 C   0  0  0  0  0  0  0  0  0  0  0  0
    5.8658   -8.0393  -33.3044 O   0  0  0  0  0  0  0  0  0  0  0  0
    5.7478   -5.7079  -32.6323 C   0  0  0  0  0  0  0  0  0  0  0  0
    3.5907  -10.0807  -33.4347 C   0  0  0  0  0  0  0  0  0  0  0  0
    3.6389  -11.5438  -30.5643 C   0  0  0  0  0  0  0  0  0  0  0  0
    6.2400   -6.7191  -33.4271 C   0  0  0  0  0  0  0  0  0  0  0  0
    2.2258   -9.7373  -33.3935 C   0  0  0  0  0  0  0  0  0  0  0  0
    2.6931   -9.2793  -28.9582 N   0  0  0  0  0  0  0  0  0  0  0  0
    4.3328   -5.0926  -30.8477 O   0  0  0  0  0  0  0  0  0  0  0  0
    2.6332  -12.2035  -30.7785 O   0  0  0  0  0  0  0  0  0  0  0  0
    4.7537  -12.0660  -29.9638 O   0  0  0  0  0  0  0  0  0  0  0  0
    1.3790  -10.0306  -34.4765 C   0  0  0  0  0  0  0  0  0  0  0  0
    4.1013  -10.7317  -34.5749 C   0  0  0  0  0  0  0  0  0  0  0  0
    7.2412   -6.4026  -34.5083 C   0  0  0  0  0  0  0  0  0  0  0  0
    0.0489   -9.6692  -34.3805 O   0  0  0  0  0  0  0  0  0  0  0  0
    6.7420   -6.7759  -35.7883 O   0  0  0  0  0  0  0  0  0  0  0  0
    3.2612  -11.0259  -35.6586 C   0  0  0  0  0  0  0  0  0  0  0  0
    1.9024  -10.6775  -35.6159 C   0  0  0  0  0  0  0  0  0  0  0  0
    4.7764  -13.4562  -29.5887 C   0  0  0  0  0  0  0  0  0  0  0  0
   -0.3788   -8.3361  -34.0528 C   0  0  0  0  0  0  0  0  0  0  0  0
    5.3704  -10.3883  -32.3098 H   0  0  0  0  0  0  0  0  0  0  0  0
    6.0690   -4.7405  -32.7937 H   0  0  0  0  0  0  0  0  0  0  0  0
    1.8431   -9.2653  -32.5594 H   0  0  0  0  0  0  0  0  0  0  0  0
    2.0827  -10.0476  -28.8789 H   0  0  0  0  0  0  0  0  0  0  0  0
    2.8269   -8.6757  -28.1921 H   0  0  0  0  0  0  0  0  0  0  0  0
    5.0988  -10.9935  -34.6129 H   0  0  0  0  0  0  0  0  0  0  0  0
    8.1466   -6.9392  -34.3153 H   0  0  0  0  0  0  0  0  0  0  0  0
    7.4239   -5.3484  -34.5069 H   0  0  0  0  0  0  0  0  0  0  0  0
    6.5634   -7.7293  -35.8002 H   0  0  0  0  0  0  0  0  0  0  0  0
    3.6438  -11.5007  -36.4912 H   0  0  0  0  0  0  0  0  0  0  0  0
    1.2875  -10.8940  -36.4159 H   0  0  0  0  0  0  0  0  0  0  0  0
    5.7180  -13.6883  -29.1365 H   0  0  0  0  0  0  0  0  0  0  0  0
    4.6398  -14.0629  -30.4594 H   0  0  0  0  0  0  0  0  0  0  0  0
    3.9883  -13.6504  -28.8914 H   0  0  0  0  0  0  0  0  0  0  0  0
   -1.4480   -8.2982  -34.0373 H   0  0  0  0  0  0  0  0  0  0  0  0
   -0.0084   -7.6519  -34.7875 H   0  0  0  0  0  0  0  0  0  0  0  0
    0.0017   -8.0659  -33.0900 H   0  0  0  0  0  0  0  0  0  0  0  0
  1  2  2  0  0  0  0
  1  6  1  0  0  0  0
  1  7  1  0  0  0  0
  2  5  1  0  0  0  0
  2  8  1  0  0  0  0
  3  4  2  0  0  0  0
  3 11  1  0  0  0  0
  3  5  1  0  0  0  0
  4  6  1  0  0  0  0
  4 14  1  0  0  0  0
  5 10  1  0  0  0  0
  5 27  1  6  0  0  0
  7  9  1  0  0  0  0
  7 15  2  0  0  0  0
  8 12  1  0  0  0  0
  9 12  2  0  0  0  0
  9 28  1  0  0  0  0
 10 13  2  0  0  0  0
 10 19  1  0  0  0  0
 11 16  2  0  0  0  0
 11 17  1  0  0  0  0
 12 20  1  0  0  0  0
 13 18  1  0  0  0  0
 13 29  1  0  0  0  0
 14 30  1  0  0  0  0
 14 31  1  0  0  0  0
 17 25  1  0  0  0  0
 18 21  1  0  0  0  0
 18 24  2  0  0  0  0
 19 23  2  0  0  0  0
 19 32  1  0  0  0  0
 20 22  1  0  0  0  0
 20 33  1  0  0  0  0
 20 34  1  0  0  0  0
 21 26  1  0  0  0  0
 22 35  1  0  0  0  0
 23 24  1  0  0  0  0
 23 36  1  0  0  0  0
 24 37  1  0  0  0  0
 25 38  1  0  0  0  0
 25 39  1  0  0  0  0
 25 40  1  0  0  0  0
 26 41  1  0  0  0  0
 26 42  1  0  0  0  0
 26 43  1  0  0  0  0
M  END
$$$$
