HTS1710-00617537-01
 OpenBabel03232612363D

 36 37  0  0  1  0  0  0  0  0999 V2000
    4.2793  -11.3352  -31.6087 C   0  0  2  0  0  0  0  0  0  0  0  0
    4.8525  -10.2432  -32.4307 N   0  0  0  0  0  0  0  0  0  0  0  0
    3.1155  -12.0434  -32.2970 C   0  0  0  0  0  0  0  0  0  0  0  0
    3.8711  -10.5926  -30.3318 C   0  0  0  0  0  0  0  0  0  0  0  0
    4.7783   -9.0153  -31.8000 C   0  0  0  0  0  0  0  0  0  0  0  0
    5.4229  -10.5077  -33.7629 C   0  0  0  0  0  0  0  0  0  0  0  0
    2.2303  -11.3127  -33.1108 C   0  0  0  0  0  0  0  0  0  0  0  0
    2.9042  -13.4210  -32.1041 C   0  0  0  0  0  0  0  0  0  0  0  0
    4.1345   -9.2825  -30.5072 C   0  0  0  0  0  0  0  0  0  0  0  0
    3.1108  -11.2719  -29.2409 C   0  0  0  0  0  0  0  0  0  0  0  0
    5.1643   -7.9445  -32.2372 O   0  0  0  0  0  0  0  0  0  0  0  0
    4.9767   -9.4297  -34.7564 C   0  0  0  0  0  0  0  0  0  0  0  0
    1.1391  -11.9550  -33.7357 C   0  0  0  0  0  0  0  0  0  0  0  0
    1.8233  -14.0634  -32.7233 C   0  0  0  0  0  0  0  0  0  0  0  0
    3.8467   -8.2757  -29.6508 O   0  5  0  0  0  0  0  0  0  0  0  0
    3.6515  -12.6298  -28.7829 C   0  0  0  0  0  0  0  0  0  0  0  0
    2.1977  -10.7221  -28.6490 O   0  0  0  0  0  0  0  0  0  0  0  0
    3.8788   -9.5628  -35.2695 O   0  5  0  0  0  0  0  0  0  0  0  0
    5.7518   -8.5146  -34.9696 O   0  0  0  0  0  0  0  0  0  0  0  0
    0.9427  -13.3350  -33.5384 C   0  0  0  0  0  0  0  0  0  0  0  0
    0.2488  -11.2667  -34.5421 O   0  0  0  0  0  0  0  0  0  0  0  0
   -0.1078  -13.9733  -34.1355 O   0  0  0  0  0  0  0  0  0  0  0  0
    0.3511   -9.8557  -34.7984 C   0  0  0  0  0  0  0  0  0  0  0  0
    4.9611  -12.1393  -31.4258 H   0  0  0  0  0  0  0  0  0  0  0  0
    5.0886  -11.4643  -34.1065 H   0  0  0  0  0  0  0  0  0  0  0  0
    6.4906  -10.4959  -33.6929 H   0  0  0  0  0  0  0  0  0  0  0  0
    2.3794  -10.3013  -33.2518 H   0  0  0  0  0  0  0  0  0  0  0  0
    3.5477  -13.9606  -31.5044 H   0  0  0  0  0  0  0  0  0  0  0  0
    1.6744  -15.0745  -32.5795 H   0  0  0  0  0  0  0  0  0  0  0  0
    4.4451  -12.9351  -29.4324 H   0  0  0  0  0  0  0  0  0  0  0  0
    2.8659  -13.3555  -28.8141 H   0  0  0  0  0  0  0  0  0  0  0  0
    4.0213  -12.5473  -27.7823 H   0  0  0  0  0  0  0  0  0  0  0  0
   -0.6979  -13.4933  -34.6825 H   0  0  0  0  0  0  0  0  0  0  0  0
   -0.4446   -9.5523  -35.4462 H   0  0  0  0  0  0  0  0  0  0  0  0
    1.2908   -9.6451  -35.2649 H   0  0  0  0  0  0  0  0  0  0  0  0
    0.2834   -9.3196  -33.8749 H   0  0  0  0  0  0  0  0  0  0  0  0
  1  2  1  0  0  0  0
  1  3  1  0  0  0  0
  1  4  1  0  0  0  0
  1 24  1  1  0  0  0
  2  5  1  0  0  0  0
  2  6  1  0  0  0  0
  3  7  2  0  0  0  0
  3  8  1  0  0  0  0
  4  9  2  0  0  0  0
  4 10  1  0  0  0  0
  5 11  2  0  0  0  0
  5  9  1  0  0  0  0
  6 12  1  0  0  0  0
  6 25  1  0  0  0  0
  6 26  1  0  0  0  0
  7 13  1  0  0  0  0
  7 27  1  0  0  0  0
  8 14  2  0  0  0  0
  8 28  1  0  0  0  0
  9 15  1  0  0  0  0
 10 16  1  0  0  0  0
 10 17  2  0  0  0  0
 12 18  1  0  0  0  0
 12 19  2  0  0  0  0
 13 20  2  0  0  0  0
 13 21  1  0  0  0  0
 14 20  1  0  0  0  0
 14 29  1  0  0  0  0
 16 30  1  0  0  0  0
 16 31  1  0  0  0  0
 16 32  1  0  0  0  0
 20 22  1  0  0  0  0
 21 23  1  0  0  0  0
 22 33  1  0  0  0  0
 23 34  1  0  0  0  0
 23 35  1  0  0  0  0
 23 36  1  0  0  0  0
M  CHG  2  15  -1  18  -1
M  END
$$$$
