##########                                Name: HTS1710-05334475-01
##########                    Molecular_Weight:             305.313
##########                DOCK_Rotatable_Bonds:                   7
##########                       Formal_Charge:                  -2
##########                     HBond_Acceptors:                   8
##########                        HBond_Donors:                   1
##########                         Heavy_Atoms:                  22
##########                          Grid_Score:          -74.749069
##########                     Grid_vdw_energy:          -38.167690
##########                      Grid_es_energy:          -36.581383
##########           Internal_energy_repulsive:           13.043370

@<TRIPOS>MOLECULE
HTS1710-05334475-01
 39 40 1 0 0
SMALL
USER_CHARGES


@<TRIPOS>ATOM
      1 C           4.1220   -4.7476  -31.3733 C.3     1  UNL1       -0.0623
      2 C           5.4125   -5.4037  -31.9069 C.3     1  UNL1       -0.0432
      3 C           5.2986   -6.9086  -31.9782 C.2     1  UNL1       -0.1089
      4 O           4.6531   -7.5579  -30.9585 O.co2   1  UNL1       -0.7794
      5 C           4.7443   -8.8610  -31.3748 C.2     1  UNL1       -0.0300
      6 C           5.3938   -9.0266  -32.5716 C.2     1  UNL1       -0.0556
      7 C           5.7739   -7.7224  -32.9874 C.2     1  UNL1       -0.0137
      8 C           6.5169   -7.3899  -34.2279 C.2     1  UNL1        0.0708
      9 O           6.0487   -7.7966  -35.2774 O.co2   1  UNL1       -0.5447
     10 O           7.5425   -6.7393  -34.1396 O.co2   1  UNL1       -0.5447
     11 C           4.1826   -9.9541  -30.5572 C.2     1  UNL1        0.2305
     12 O           3.5937   -9.7487  -29.5085 O.2     1  UNL1       -0.2714
     13 N           4.3369  -11.2546  -31.0195 N.am    1  UNL1       -0.3066
     14 C           3.8238  -12.4253  -30.2982 C.3     1  UNL1        0.0557
     15 C           2.5850  -12.9474  -30.9865 C.ar    1  UNL1        0.0790
     16 C           1.7339  -13.9156  -30.5732 C.ar    1  UNL1        0.0845
     17 C           1.9077  -14.6705  -29.2789 C.3     1  UNL1       -0.0188
     18 N           0.7055  -14.1520  -31.4290 N.ar    1  UNL1       -0.1345
     19 N           0.8787  -13.3168  -32.4354 N.ar    1  UNL1       -0.0652
     20 N           2.0195  -12.5721  -32.1848 N.ar    1  UNL1       -0.2471
     21 C           2.4732  -11.5412  -33.1289 C.3     1  UNL1        0.0407
     22 C           1.9410  -11.7547  -34.5585 C.3     1  UNL1       -0.0454
     23 H           4.2491   -3.6857  -31.3405 H       1  UNL1        0.0233
     24 H           3.9170   -5.1128  -30.3886 H       1  UNL1        0.0233
     25 H           3.3050   -4.9892  -32.0206 H       1  UNL1        0.0233
     26 H           6.2231   -5.1498  -31.2562 H       1  UNL1        0.0299
     27 H           5.5813   -5.0391  -32.8986 H       1  UNL1        0.0299
     28 H           5.5698   -9.9145  -33.0672 H       1  UNL1        0.0620
     29 H           4.8122  -11.3977  -31.8697 H       1  UNL1        0.1494
     30 H           3.5813  -12.1458  -29.2942 H       1  UNL1        0.0527
     31 H           4.5719  -13.1904  -30.2887 H       1  UNL1        0.0527
     32 H           2.7818  -14.3158  -28.7738 H       1  UNL1        0.0294
     33 H           2.0148  -15.7147  -29.4867 H       1  UNL1        0.0294
     34 H           1.0498  -14.5164  -28.6582 H       1  UNL1        0.0294
     35 H           3.5427  -11.5533  -33.1584 H       1  UNL1        0.0507
     36 H           2.0925  -10.6026  -32.7837 H       1  UNL1        0.0507
     37 H           2.3026  -12.6875  -34.9381 H       1  UNL1        0.0247
     38 H           2.2795  -10.9583  -35.1877 H       1  UNL1        0.0247
     39 H           0.8711  -11.7667  -34.5427 H       1  UNL1        0.0247
@<TRIPOS>BOND
     1     1     2    1
     2     2     3    1
     3     3     4    1
     4     4     5    1
     5     5     6    2
     6     6     7    1
     7     3     7    2
     8     7     8    1
     9     8     9   ar
    10     8    10   ar
    11     5    11    1
    12    11    12    2
    13    11    13   am
    14    13    14    1
    15    14    15    1
    16    15    16   ar
    17    16    17    1
    18    16    18   ar
    19    18    19   ar
    20    19    20   ar
    21    15    20   ar
    22    20    21    1
    23    21    22    1
    24     1    23    1
    25     1    24    1
    26     1    25    1
    27     2    26    1
    28     2    27    1
    29     6    28    1
    30    13    29    1
    31    14    30    1
    32    14    31    1
    33    17    32    1
    34    17    33    1
    35    17    34    1
    36    21    35    1
    37    21    36    1
    38    22    37    1
    39    22    38    1
    40    22    39    1
@<TRIPOS>SUBSTRUCTURE
     1 UNL1        1 TEMP              0 ****  ****    0 ROOT


