HTS1710-00859616-01
 OpenBabel03232612353D

 44 46  0  0  0  0  0  0  0  0999 V2000
    3.4373  -12.5560  -30.3747 C   0  0  0  0  0  0  0  0  0  0  0  0
    5.2416   -9.2514  -32.6196 C   0  0  0  0  0  0  0  0  0  0  0  0
    4.4279  -13.6021  -30.7359 C   0  0  0  0  0  0  0  0  0  0  0  0
    5.5832   -9.0414  -34.0483 C   0  0  0  0  0  0  0  0  0  0  0  0
    3.2431  -12.1190  -29.0709 C   0  0  0  0  0  0  0  0  0  0  0  0
    5.4207   -8.2741  -31.6480 C   0  0  0  0  0  0  0  0  0  0  0  0
    5.9741   -7.0149  -32.0717 C   0  0  0  0  0  0  0  0  0  0  0  0
    4.0541  -12.7177  -28.0439 C   0  0  0  0  0  0  0  0  0  0  0  0
    5.1426  -14.1014  -29.6901 O   0  0  0  0  0  0  0  0  0  0  0  0
    6.0992   -7.8166  -34.3415 O   0  0  0  0  0  0  0  0  0  0  0  0
    4.6842  -10.6163  -32.2383 C   0  0  0  0  0  0  0  0  0  0  0  0
    2.6042  -11.9492  -31.4956 C   0  0  0  0  0  0  0  0  0  0  0  0
    4.9730  -13.6832  -28.4009 C   0  0  0  0  0  0  0  0  0  0  0  0
    6.2897   -6.8420  -33.4040 C   0  0  0  0  0  0  0  0  0  0  0  0
    3.1512  -10.5758  -31.9806 C   0  0  0  0  0  0  0  0  0  0  0  0
    4.6095  -13.9970  -31.8744 O   0  0  0  0  0  0  0  0  0  0  0  0
    5.4241   -9.8874  -34.9101 O   0  0  0  0  0  0  0  0  0  0  0  0
    0.7558   -8.5868  -34.2014 N   0  0  0  0  0  0  0  0  0  0  0  0
    2.3979  -10.0809  -33.2177 C   0  0  0  0  0  0  0  0  0  0  0  0
    2.3457  -11.1704  -28.7245 O   0  5  0  0  0  0  0  0  0  0  0  0
    5.1142   -8.4438  -30.3439 O   0  5  0  0  0  0  0  0  0  0  0  0
    1.4502   -9.0390  -33.1360 C   0  0  0  0  0  0  0  0  0  0  0  0
    5.8394  -14.3361  -27.3553 C   0  0  0  0  0  0  0  0  0  0  0  0
    6.8798   -5.5423  -33.8854 C   0  0  0  0  0  0  0  0  0  0  0  0
    0.9816   -9.1610  -35.3992 C   0  0  0  0  0  0  0  0  0  0  0  0
    2.6204  -10.6771  -34.4733 C   0  0  0  0  0  0  0  0  0  0  0  0
    1.9008  -10.2074  -35.5821 C   0  0  0  0  0  0  0  0  0  0  0  0
    6.1322   -6.2550  -31.3915 H   0  0  0  0  0  0  0  0  0  0  0  0
    3.9503  -12.4302  -27.0582 H   0  0  0  0  0  0  0  0  0  0  0  0
    5.1741  -10.9518  -31.3481 H   0  0  0  0  0  0  0  0  0  0  0  0
    4.8615  -11.2828  -33.0564 H   0  0  0  0  0  0  0  0  0  0  0  0
    1.6036  -11.8127  -31.1418 H   0  0  0  0  0  0  0  0  0  0  0  0
    2.6443  -12.6225  -32.3262 H   0  0  0  0  0  0  0  0  0  0  0  0
    2.9814   -9.8760  -31.1891 H   0  0  0  0  0  0  0  0  0  0  0  0
    1.2798   -8.6014  -32.2171 H   0  0  0  0  0  0  0  0  0  0  0  0
    5.6110  -13.9237  -26.3947 H   0  0  0  0  0  0  0  0  0  0  0  0
    6.8695  -14.1585  -27.5840 H   0  0  0  0  0  0  0  0  0  0  0  0
    5.6529  -15.3896  -27.3446 H   0  0  0  0  0  0  0  0  0  0  0  0
    6.9775   -4.8677  -33.0605 H   0  0  0  0  0  0  0  0  0  0  0  0
    6.2375   -5.1111  -34.6246 H   0  0  0  0  0  0  0  0  0  0  0  0
    7.8435   -5.7249  -34.3130 H   0  0  0  0  0  0  0  0  0  0  0  0
    0.4561   -8.8170  -36.2182 H   0  0  0  0  0  0  0  0  0  0  0  0
    3.3008  -11.4462  -34.5761 H   0  0  0  0  0  0  0  0  0  0  0  0
    2.0443  -10.6232  -36.5157 H   0  0  0  0  0  0  0  0  0  0  0  0
  1  3  1  0  0  0  0
  1  5  2  0  0  0  0
  1 12  1  0  0  0  0
  2 11  1  0  0  0  0
  2  4  1  0  0  0  0
  2  6  2  0  0  0  0
  3  9  1  0  0  0  0
  3 16  2  0  0  0  0
  4 10  1  0  0  0  0
  4 17  2  0  0  0  0
  5  8  1  0  0  0  0
  5 20  1  0  0  0  0
  6  7  1  0  0  0  0
  6 21  1  0  0  0  0
  7 14  2  0  0  0  0
  7 28  1  0  0  0  0
  8 13  2  0  0  0  0
  8 29  1  0  0  0  0
  9 13  1  0  0  0  0
 10 14  1  0  0  0  0
 11 15  1  0  0  0  0
 11 30  1  0  0  0  0
 11 31  1  0  0  0  0
 12 15  1  0  0  0  0
 12 32  1  0  0  0  0
 12 33  1  0  0  0  0
 13 23  1  0  0  0  0
 14 24  1  0  0  0  0
 15 19  1  0  0  0  0
 15 34  1  0  0  0  0
 18 22  2  0  0  0  0
 18 25  1  0  0  0  0
 19 22  1  0  0  0  0
 19 26  2  0  0  0  0
 22 35  1  0  0  0  0
 23 36  1  0  0  0  0
 23 37  1  0  0  0  0
 23 38  1  0  0  0  0
 24 39  1  0  0  0  0
 24 40  1  0  0  0  0
 24 41  1  0  0  0  0
 25 27  2  0  0  0  0
 25 42  1  0  0  0  0
 26 27  1  0  0  0  0
 26 43  1  0  0  0  0
 27 44  1  0  0  0  0
M  CHG  2  20  -1  21  -1
M  END
$$$$
