HTS1710-01848655-01
 OpenBabel03232612363D

 50 52  0  0  1  0  0  0  0  0999 V2000
    3.8432  -11.6041  -30.9947 N   0  0  0  0  0  0  0  0  0  0  0  0
    4.1031  -10.5872  -31.8977 C   0  0  0  0  0  0  0  0  0  0  0  0
    4.0784  -12.6830  -31.9621 C   0  0  2  0  0  0  0  0  0  0  0  0
    4.3911  -11.5936  -33.0452 C   0  0  1  0  0  0  0  0  0  0  0  0
    3.4265  -11.8756  -29.6255 C   0  0  0  0  0  0  0  0  0  0  0  0
   -0.8847   -6.4376  -36.3700 C   0  0  0  0  0  0  0  0  0  0  0  0
   -1.1576   -5.2445  -37.1259 N   0  0  0  0  0  0  0  0  0  0  0  0
    2.4913  -13.6074  -31.9811 S   0  0  0  0  0  0  0  0  0  0  0  0
    2.9455  -13.1296  -29.3097 C   0  0  0  0  0  0  0  0  0  0  0  0
    0.1500   -7.3067  -36.5635 C   0  0  0  0  0  0  0  0  0  0  0  0
   -1.1135   -8.0550  -34.8069 N   0  0  0  0  0  0  0  0  0  0  0  0
   -1.6410   -6.9387  -35.2755 C   0  0  0  0  0  0  0  0  0  0  0  0
   -0.0138   -8.2816  -35.5956 N   0  0  0  0  0  0  0  0  0  0  0  0
    3.3687  -11.5183  -34.0960 N   0  0  0  0  0  0  0  0  0  0  0  0
    3.5522  -10.7399  -28.6170 C   0  0  0  0  0  0  0  0  0  0  0  0
    2.8270  -14.2854  -30.3100 C   0  0  0  0  0  0  0  0  0  0  0  0
    4.0416   -9.3845  -31.7145 O   0  0  0  0  0  0  0  0  0  0  0  0
    3.6765  -11.1675  -35.4011 C   0  0  0  0  0  0  0  0  0  0  0  0
   -2.1398   -4.5802  -36.8075 O   0  5  0  0  0  0  0  0  0  0  0  0
   -0.3915   -4.9582  -38.0419 O   0  0  0  0  0  0  0  0  0  0  0  0
    2.5135  -13.5928  -27.9196 C   0  0  0  0  0  0  0  0  0  0  0  0
    4.8707  -13.8303  -27.4125 C   0  0  0  0  0  0  0  0  0  0  0  0
    4.5495  -10.0427  -28.6212 O   0  5  0  0  0  0  0  0  0  0  0  0
    3.6253  -13.4322  -27.0179 O   0  0  0  0  0  0  0  0  0  0  0  0
    4.8320  -10.9172  -35.7047 O   0  0  0  0  0  0  0  0  0  0  0  0
    5.8183  -13.0824  -27.5933 O   0  0  0  0  0  0  0  0  0  0  0  0
    2.6297  -10.5703  -27.8411 O   0  0  0  0  0  0  0  0  0  0  0  0
    0.8511   -9.4458  -35.3615 C   0  0  0  0  0  0  0  0  0  0  0  0
    2.5279  -11.1205  -36.4185 C   0  0  0  0  0  0  0  0  0  0  0  0
    1.8332   -9.7367  -36.5245 C   0  0  0  0  0  0  0  0  0  0  0  0
    4.9333  -15.3441  -27.6001 C   0  0  0  0  0  0  0  0  0  0  0  0
    4.7894  -13.4818  -31.9257 H   0  0  0  0  0  0  0  0  0  0  0  0
    5.2840  -11.5970  -33.6347 H   0  0  0  0  0  0  0  0  0  0  0  0
   -0.8676   -5.4776  -36.2144 H   0  0  0  0  0  0  0  0  0  0  0  0
    0.8933   -7.2491  -37.2770 H   0  0  0  0  0  0  0  0  0  0  0  0
   -2.4897   -6.4896  -34.8973 H   0  0  0  0  0  0  0  0  0  0  0  0
    2.4337  -11.7239  -33.8662 H   0  0  0  0  0  0  0  0  0  0  0  0
    3.7421  -14.8396  -30.3261 H   0  0  0  0  0  0  0  0  0  0  0  0
    2.0263  -14.9323  -30.0177 H   0  0  0  0  0  0  0  0  0  0  0  0
    2.2242  -14.6223  -27.9560 H   0  0  0  0  0  0  0  0  0  0  0  0
    1.6810  -13.0117  -27.5820 H   0  0  0  0  0  0  0  0  0  0  0  0
    0.2296  -10.3055  -35.2212 H   0  0  0  0  0  0  0  0  0  0  0  0
    1.4447   -9.2257  -34.4989 H   0  0  0  0  0  0  0  0  0  0  0  0
    1.7940  -11.8441  -36.1308 H   0  0  0  0  0  0  0  0  0  0  0  0
    2.9558  -11.3259  -37.3775 H   0  0  0  0  0  0  0  0  0  0  0  0
    2.5881   -8.9784  -36.5277 H   0  0  0  0  0  0  0  0  0  0  0  0
    1.2585   -9.7421  -37.4271 H   0  0  0  0  0  0  0  0  0  0  0  0
    3.9768  -15.7705  -27.3808 H   0  0  0  0  0  0  0  0  0  0  0  0
    5.6673  -15.7554  -26.9390 H   0  0  0  0  0  0  0  0  0  0  0  0
    5.1997  -15.5675  -28.6120 H   0  0  0  0  0  0  0  0  0  0  0  0
  1  2  1  0  0  0  0
  1  3  1  0  0  0  0
  1  5  1  0  0  0  0
  2  4  1  0  0  0  0
  2 17  2  0  0  0  0
  3  4  1  0  0  0  0
  3  8  1  0  0  0  0
  3 32  1  1  0  0  0
  4 14  1  0  0  0  0
  4 33  1  6  0  0  0
  5  9  2  0  0  0  0
  5 15  1  0  0  0  0
  6  7  1  0  0  0  0
  6 10  2  0  0  0  0
  6 12  1  0  0  0  0
  7 19  1  0  0  0  0
  7 20  2  0  0  0  0
  7 34  1  0  0  0  0
  8 16  1  0  0  0  0
  9 16  1  0  0  0  0
  9 21  1  0  0  0  0
 10 13  1  0  0  0  0
 10 35  1  0  0  0  0
 11 12  2  0  0  0  0
 11 13  1  0  0  0  0
 12 36  1  0  0  0  0
 13 28  1  0  0  0  0
 14 18  1  0  0  0  0
 14 37  1  0  0  0  0
 15 23  1  0  0  0  0
 15 27  2  0  0  0  0
 16 38  1  0  0  0  0
 16 39  1  0  0  0  0
 18 25  2  0  0  0  0
 18 29  1  0  0  0  0
 21 24  1  0  0  0  0
 21 40  1  0  0  0  0
 21 41  1  0  0  0  0
 22 24  1  0  0  0  0
 22 26  2  0  0  0  0
 22 31  1  0  0  0  0
 28 30  1  0  0  0  0
 28 42  1  0  0  0  0
 28 43  1  0  0  0  0
 29 30  1  0  0  0  0
 29 44  1  0  0  0  0
 29 45  1  0  0  0  0
 30 46  1  0  0  0  0
 30 47  1  0  0  0  0
 31 48  1  0  0  0  0
 31 49  1  0  0  0  0
 31 50  1  0  0  0  0
M  CHG  2  19  -1  23  -1
M  END
$$$$
