HTS1710-00277838-01
 OpenBabel03232612363D

 42 44  0  0  1  0  0  0  0  0999 V2000
    7.1323   -3.9935  -33.3106 C   0  0  0  0  0  0  0  0  0  0  0  0
    7.2050   -5.1948  -34.0972 O   0  0  0  0  0  0  0  0  0  0  0  0
    6.5462   -6.3591  -33.7513 C   0  0  0  0  0  0  0  0  0  0  0  0
    6.3568   -7.3369  -34.7400 C   0  0  0  0  0  0  0  0  0  0  0  0
    5.6958   -8.5362  -34.4361 C   0  0  0  0  0  0  0  0  0  0  0  0
    5.1758   -8.7686  -33.1464 C   0  0  0  0  0  0  0  0  0  0  0  0
    5.4160   -7.8028  -32.1457 C   0  0  0  0  0  0  0  0  0  0  0  0
    6.0817   -6.6036  -32.4431 C   0  0  0  0  0  0  0  0  0  0  0  0
    4.5369  -10.0650  -32.8513 C   0  0  0  0  0  0  0  0  0  0  0  0
    4.5735  -11.1292  -33.6489 N   0  0  0  0  0  0  0  0  0  0  0  0
    4.0236  -12.2116  -32.9005 O   0  0  0  0  0  0  0  0  0  0  0  0
    3.6638  -11.6949  -31.6983 C   0  0  0  0  0  0  0  0  0  0  0  0
    3.0755  -12.6297  -30.6518 C   0  0  1  0  0  0  0  0  0  0  0  0
    2.1226  -13.6567  -31.2973 C   0  0  0  0  0  0  0  0  0  0  0  0
    4.1478  -13.3545  -29.9492 N   0  0  0  0  0  0  0  0  0  0  0  0
    4.2623  -13.4311  -28.5633 C   0  0  0  0  0  0  0  0  0  0  0  0
    3.3992  -12.8703  -27.9119 O   0  0  0  0  0  0  0  0  0  0  0  0
    5.3730  -14.1819  -27.8691 C   0  0  0  0  0  0  0  0  0  0  0  0
    6.6135  -13.6455  -27.8406 N   0  0  0  0  0  0  0  0  0  0  0  0
    7.5755  -14.3699  -27.2355 C   0  0  0  0  0  0  0  0  0  0  0  0
    7.3034  -15.6170  -26.6451 C   0  0  0  0  0  0  0  0  0  0  0  0
    6.0660  -16.1507  -26.6491 N   0  0  0  0  0  0  0  0  0  0  0  0
    5.1051  -15.4273  -27.2605 C   0  0  0  0  0  0  0  0  0  0  0  0
    3.8758  -10.3465  -31.6005 C   0  0  0  0  0  0  0  0  0  0  0  0
    3.4211   -9.4115  -30.5218 C   0  0  0  0  0  0  0  0  0  0  0  0
    2.3320   -8.8812  -30.6390 O   0  5  0  0  0  0  0  0  0  0  0  0
    4.1330   -9.2575  -29.5467 O   0  0  0  0  0  0  0  0  0  0  0  0
    7.7199   -3.2282  -33.7731 H   0  0  0  0  0  0  0  0  0  0  0  0
    7.5085   -4.1872  -32.3278 H   0  0  0  0  0  0  0  0  0  0  0  0
    6.1141   -3.6709  -33.2455 H   0  0  0  0  0  0  0  0  0  0  0  0
    6.7062   -7.1726  -35.6971 H   0  0  0  0  0  0  0  0  0  0  0  0
    5.5886   -9.2578  -35.1660 H   0  0  0  0  0  0  0  0  0  0  0  0
    5.0971   -7.9811  -31.1805 H   0  0  0  0  0  0  0  0  0  0  0  0
    6.2315   -5.9000  -31.7032 H   0  0  0  0  0  0  0  0  0  0  0  0
    2.5265  -12.0292  -29.9568 H   0  0  0  0  0  0  0  0  0  0  0  0
    2.6669  -14.2599  -31.9934 H   0  0  0  0  0  0  0  0  0  0  0  0
    1.3371  -13.1416  -31.8097 H   0  0  0  0  0  0  0  0  0  0  0  0
    1.7027  -14.2810  -30.5364 H   0  0  0  0  0  0  0  0  0  0  0  0
    4.8270  -13.8142  -30.4939 H   0  0  0  0  0  0  0  0  0  0  0  0
    8.5382  -13.9992  -27.2046 H   0  0  0  0  0  0  0  0  0  0  0  0
    8.0730  -16.1380  -26.1963 H   0  0  0  0  0  0  0  0  0  0  0  0
    4.1418  -15.7969  -27.2840 H   0  0  0  0  0  0  0  0  0  0  0  0
  1  2  1  0  0  0  0
  1 28  1  0  0  0  0
  1 29  1  0  0  0  0
  1 30  1  0  0  0  0
  2  3  1  0  0  0  0
  3  4  2  0  0  0  0
  3  8  1  0  0  0  0
  4  5  1  0  0  0  0
  4 31  1  0  0  0  0
  5  6  2  0  0  0  0
  5 32  1  0  0  0  0
  6  7  1  0  0  0  0
  6  9  1  0  0  0  0
  7  8  2  0  0  0  0
  7 33  1  0  0  0  0
  8 34  1  0  0  0  0
  9 10  2  0  0  0  0
  9 24  1  0  0  0  0
 10 11  1  0  0  0  0
 11 12  1  0  0  0  0
 12 13  1  0  0  0  0
 12 24  2  0  0  0  0
 13 14  1  0  0  0  0
 13 15  1  0  0  0  0
 13 35  1  1  0  0  0
 14 36  1  0  0  0  0
 14 37  1  0  0  0  0
 14 38  1  0  0  0  0
 15 16  1  0  0  0  0
 15 39  1  0  0  0  0
 16 17  2  0  0  0  0
 16 18  1  0  0  0  0
 18 19  2  0  0  0  0
 18 23  1  0  0  0  0
 19 20  1  0  0  0  0
 20 21  2  0  0  0  0
 20 40  1  0  0  0  0
 21 22  1  0  0  0  0
 21 41  1  0  0  0  0
 22 23  2  0  0  0  0
 23 42  1  0  0  0  0
 24 25  1  0  0  0  0
 25 26  1  0  0  0  0
 25 27  2  0  0  0  0
M  CHG  1  26  -1
M  END
$$$$
