##########                                Name: HTS1710-01368139-01
##########                    Molecular_Weight:             358.351
##########                DOCK_Rotatable_Bonds:                   5
##########                       Formal_Charge:                  -2
##########                     HBond_Acceptors:                   8
##########                        HBond_Donors:                   1
##########                         Heavy_Atoms:                  26
##########                          Grid_Score:          -75.490036
##########                     Grid_vdw_energy:          -34.410748
##########                      Grid_es_energy:          -41.079288
##########           Internal_energy_repulsive:           14.460175

@<TRIPOS>MOLECULE
HTS1710-01368139-01
 44 46 1 0 0
SMALL
USER_CHARGES


@<TRIPOS>ATOM
      1 C           3.2309  -11.9725  -33.3153 C.ar    1  UNL1        0.0311
      2 C           3.8230  -10.6750  -33.1044 C.ar    1  UNL1        0.0093
      3 C           3.7794  -12.4655  -34.4991 C.ar    1  UNL1        0.0143
      4 N           4.6836  -11.5091  -35.0065 N.ar    1  UNL1       -0.3492
      5 C           4.6764  -10.4403  -34.1345 C.ar    1  UNL1        0.0493
      6 C           2.2128  -12.7389  -32.5084 C.3     1  UNL1        0.0473
      7 N           2.8061  -13.9958  -31.9802 N.4     1  UNL1        0.2449
      8 C           3.6287   -9.7386  -32.0823 C.ar    1  UNL1       -0.0433
      9 C           0.9718  -13.0574  -33.3434 C.2     1  UNL1        0.0944
     10 C           4.3419   -8.5163  -32.1433 C.ar    1  UNL1       -0.0020
     11 C           4.1494   -7.4676  -31.0719 C.2     1  UNL1        0.0717
     12 C           3.9886  -12.4132  -28.0544 C.2     1  UNL1        0.0452
     13 C           5.4092   -9.2532  -34.2385 C.ar    1  UNL1       -0.0370
     14 C           3.7586  -13.3852  -29.2248 C.3     1  UNL1        0.0082
     15 C           4.2571  -13.8710  -31.6783 C.3     1  UNL1       -0.0304
     16 C           2.0844  -14.5171  -30.7887 C.3     1  UNL1       -0.0304
     17 C           5.2339   -8.2856  -33.2281 C.ar    1  UNL1       -0.0509
     18 O           0.7610  -12.3413  -34.3042 O.co2   1  UNL1       -0.5439
     19 O           3.3488   -7.7115  -30.1848 O.co2   1  UNL1       -0.5446
     20 O           3.0520  -12.1847  -27.3085 O.co2   1  UNL1       -0.5495
     21 C           2.2576  -13.5978  -29.5531 C.3     1  UNL1       -0.0044
     22 C           4.5249  -12.9202  -30.4848 C.3     1  UNL1       -0.0044
     23 O           0.2803  -13.9962  -32.9873 O.co2   1  UNL1       -0.5439
     24 O           4.8042   -6.4432  -31.1604 O.co2   1  UNL1       -0.5446
     25 O           5.1130  -11.9611  -27.9289 O.co2   1  UNL1       -0.5495
     26 C           5.4940  -11.6199  -36.2246 C.3     1  UNL1        0.0119
     27 H           3.5604  -13.3767  -34.9311 H       1  UNL1        0.0814
     28 H           1.9155  -12.1212  -31.6868 H       1  UNL1        0.0970
     29 H           2.6996  -14.6711  -32.7372 H       1  UNL1        0.2044
     30 H           2.9812   -9.9340  -31.3029 H       1  UNL1        0.0631
     31 H           6.0552   -9.0915  -35.0269 H       1  UNL1        0.0638
     32 H           4.1429  -14.3324  -28.9082 H       1  UNL1        0.0364
     33 H           4.7577  -13.4885  -32.5432 H       1  UNL1        0.0815
     34 H           4.6233  -14.8413  -31.4149 H       1  UNL1        0.0815
     35 H           2.4658  -15.4883  -30.5521 H       1  UNL1        0.0815
     36 H           1.0419  -14.5562  -31.0265 H       1  UNL1        0.0815
     37 H           5.7593   -7.3986  -33.2756 H       1  UNL1        0.0625
     38 H           1.8061  -12.6493  -29.7566 H       1  UNL1        0.0323
     39 H           1.7873  -14.0640  -28.7126 H       1  UNL1        0.0323
     40 H           4.2046  -11.9330  -30.7449 H       1  UNL1        0.0323
     41 H           5.5730  -12.9290  -30.2697 H       1  UNL1        0.0323
     42 H           5.2944  -12.5565  -36.7019 H       1  UNL1        0.0456
     43 H           6.5315  -11.5638  -35.9690 H       1  UNL1        0.0456
     44 H           5.2472  -10.8202  -36.8912 H       1  UNL1        0.0456
@<TRIPOS>BOND
     1     1     2   ar
     2     1     3   ar
     3     3     4   ar
     4     2     5   ar
     5     1     6    1
     6     6     7    1
     7     2     8   ar
     8     6     9    1
     9     8    10   ar
    10    10    11    1
    11    12    14    1
    12     5    13   ar
    13    14    21    1
    14     7    15    1
    15     7    16    1
    16    10    17   ar
    17     9    18   ar
    18    11    19   ar
    19    12    20   ar
    20    16    21    1
    21    15    22    1
    22     9    23   ar
    23    11    24   ar
    24    12    25   ar
    25     4    26    1
    26     4     5   ar
    27    14    22    1
    28    13    17   ar
    29     3    27    1
    30     6    28    1
    31     7    29    1
    32     8    30    1
    33    13    31    1
    34    14    32    1
    35    15    33    1
    36    15    34    1
    37    16    35    1
    38    16    36    1
    39    17    37    1
    40    21    38    1
    41    21    39    1
    42    22    40    1
    43    22    41    1
    44    26    42    1
    45    26    43    1
    46    26    44    1
@<TRIPOS>SUBSTRUCTURE
     1 UNL1        1 TEMP              0 ****  ****    0 ROOT


