##########                                Name: HTS1710-01236952-01
##########                    Molecular_Weight:             272.341
##########                DOCK_Rotatable_Bonds:                  14
##########                       Formal_Charge:                  -2
##########                     HBond_Acceptors:                   5
##########                        HBond_Donors:                   1
##########                         Heavy_Atoms:                  19
##########                          Grid_Score:          -77.498917
##########                     Grid_vdw_energy:          -36.937271
##########                      Grid_es_energy:          -40.561649
##########           Internal_energy_repulsive:           10.099722

@<TRIPOS>MOLECULE
HTS1710-01236952-01
 43 42 1 0 0
SMALL
USER_CHARGES


@<TRIPOS>ATOM
      1 C           4.2638   -8.8554  -31.8880 C.3     1  UNL1        0.0380
      2 C           4.0804   -8.8208  -30.3516 C.2     1  UNL1        0.0503
      3 C           5.6100   -8.2379  -32.3197 C.2     1  UNL1        0.0503
      4 O           4.7890   -9.5434  -29.6706 O.co2   1  UNL1       -0.5492
      5 O           6.3315   -7.8046  -31.4369 O.co2   1  UNL1       -0.5492
      6 O           5.8648   -8.2046  -33.5120 O.co2   1  UNL1       -0.5492
      7 O           3.1998   -8.0956  -29.9181 O.co2   1  UNL1       -0.5492
      8 C           4.1032  -10.2850  -32.4914 C.3     1  UNL1       -0.0400
      9 O           8.2494  -16.1056  -26.5848 O.3     1  UNL1       -0.3950
     10 C           6.9089  -16.3046  -27.0264 C.3     1  UNL1        0.0442
     11 C           2.7034  -10.9244  -32.2745 C.3     1  UNL1       -0.0521
     12 C           6.1689  -14.9554  -27.1800 C.3     1  UNL1       -0.0297
     13 C           2.6536  -12.4347  -32.6202 C.3     1  UNL1       -0.0530
     14 C           4.7191  -15.1148  -27.7049 C.3     1  UNL1       -0.0510
     15 C           2.7362  -13.3600  -30.2253 C.3     1  UNL1       -0.0531
     16 C           2.3726  -14.0726  -27.7829 C.3     1  UNL1       -0.0531
     17 C           1.9163  -13.2515  -31.5326 C.3     1  UNL1       -0.0531
     18 C           2.1672  -14.4392  -29.2719 C.3     1  UNL1       -0.0531
     19 C           3.8656  -13.8504  -27.4417 C.3     1  UNL1       -0.0530
     20 H           3.4720   -8.2550  -32.2845 H       1  UNL1        0.0421
     21 H           4.8348  -10.9221  -32.0401 H       1  UNL1        0.0275
     22 H           4.2302  -10.1841  -33.5491 H       1  UNL1        0.0275
     23 H           8.7128  -16.9574  -26.5639 H       1  UNL1        0.2094
     24 H           6.3909  -16.9082  -26.3106 H       1  UNL1        0.0557
     25 H           6.9329  -16.7903  -27.9795 H       1  UNL1        0.0557
     26 H           1.9971  -10.4118  -32.8937 H       1  UNL1        0.0266
     27 H           2.4727  -10.8319  -31.2337 H       1  UNL1        0.0266
     28 H           6.7148  -14.3436  -27.8674 H       1  UNL1        0.0287
     29 H           6.1100  -14.5107  -26.2086 H       1  UNL1        0.0287
     30 H           3.6545  -12.8022  -32.7098 H       1  UNL1        0.0265
     31 H           2.1176  -12.5469  -33.5395 H       1  UNL1        0.0265
     32 H           4.2630  -15.9482  -27.2126 H       1  UNL1        0.0266
     33 H           4.7652  -15.2685  -28.7628 H       1  UNL1        0.0266
     34 H           2.7175  -12.4137  -29.7263 H       1  UNL1        0.0265
     35 H           3.7355  -13.6413  -30.4842 H       1  UNL1        0.0265
     36 H           1.9941  -14.8683  -27.1758 H       1  UNL1        0.0265
     37 H           1.8503  -13.1585  -27.5922 H       1  UNL1        0.0265
     38 H           0.9840  -12.7734  -31.3157 H       1  UNL1        0.0265
     39 H           1.7684  -14.2418  -31.9101 H       1  UNL1        0.0265
     40 H           1.1191  -14.5458  -29.4589 H       1  UNL1        0.0265
     41 H           2.6919  -15.3524  -29.4601 H       1  UNL1        0.0265
     42 H           4.2413  -13.0494  -28.0436 H       1  UNL1        0.0265
     43 H           3.9338  -13.6187  -26.3993 H       1  UNL1        0.0265
@<TRIPOS>BOND
     1     1     2    1
     2     1     3    1
     3     2     4   ar
     4     3     5   ar
     5     3     6   ar
     6     2     7   ar
     7     1     8    1
     8     9    10    1
     9    10    12    1
    10     8    11    1
    11    12    14    1
    12    11    13    1
    13    14    19    1
    14    15    17    1
    15    16    18    1
    16    13    17    1
    17    15    18    1
    18    16    19    1
    19     1    20    1
    20     8    21    1
    21     8    22    1
    22     9    23    1
    23    10    24    1
    24    10    25    1
    25    11    26    1
    26    11    27    1
    27    12    28    1
    28    12    29    1
    29    13    30    1
    30    13    31    1
    31    14    32    1
    32    14    33    1
    33    15    34    1
    34    15    35    1
    35    16    36    1
    36    16    37    1
    37    17    38    1
    38    17    39    1
    39    18    40    1
    40    18    41    1
    41    19    42    1
    42    19    43    1
@<TRIPOS>SUBSTRUCTURE
     1 UNL1        1 TEMP              0 ****  ****    0 ROOT


