HTS1710-01267139-01
 OpenBabel03232612353D

 48 50  0  0  1  0  0  0  0  0999 V2000
    2.3699   -9.3153  -33.4273 C   0  0  0  0  0  0  0  0  0  0  0  0
    3.5377  -11.0256  -32.0345 C   0  0  0  0  0  0  0  0  0  0  0  0
    1.2812   -9.3299  -34.2872 C   0  0  0  0  0  0  0  0  0  0  0  0
    3.4001  -10.4312  -33.4334 C   0  0  2  0  0  0  0  0  0  0  0  0
    2.5805  -12.0768  -31.6359 C   0  0  0  0  0  0  0  0  0  0  0  0
    2.7773  -12.5962  -30.2453 C   0  0  0  0  0  0  0  0  0  0  0  0
    0.2831   -8.2499  -34.2847 C   0  0  0  0  0  0  0  0  0  0  0  0
    4.5023  -10.5595  -31.1598 C   0  0  0  0  0  0  0  0  0  0  0  0
    2.6027   -8.3034  -32.5148 O   0  0  0  0  0  0  0  0  0  0  0  0
    0.5760   -7.2121  -33.2974 C   0  0  0  0  0  0  0  0  0  0  0  0
    4.6396  -11.0609  -29.8897 O   0  0  0  0  0  0  0  0  0  0  0  0
    1.6807   -7.2800  -32.4761 C   0  0  0  0  0  0  0  0  0  0  0  0
    3.8018  -12.0626  -29.4382 C   0  0  0  0  0  0  0  0  0  0  0  0
    4.7421   -9.9259  -34.0339 C   0  0  0  0  0  0  0  0  0  0  0  0
    4.8023  -10.1174  -35.5533 C   0  0  0  0  0  0  0  0  0  0  0  0
    1.9469  -13.6154  -29.7345 C   0  0  0  0  0  0  0  0  0  0  0  0
    1.6948  -12.4942  -32.3633 O   0  0  0  0  0  0  0  0  0  0  0  0
   -0.6887   -8.2111  -35.0207 O   0  0  0  0  0  0  0  0  0  0  0  0
    4.6053   -9.2004  -36.3317 O   0  0  0  0  0  0  0  0  0  0  0  0
    1.0299  -10.3004  -35.1947 O   0  0  0  0  0  0  0  0  0  0  0  0
    3.9922  -12.5491  -28.1349 C   0  0  0  0  0  0  0  0  0  0  0  0
    5.1018  -11.3627  -36.0675 N   0  0  0  0  0  0  0  0  0  0  0  0
    2.1424  -14.1025  -28.4240 C   0  0  0  0  0  0  0  0  0  0  0  0
    3.1669  -13.5638  -27.6299 C   0  0  0  0  0  0  0  0  0  0  0  0
    1.9390   -6.1858  -31.4719 C   0  0  0  0  0  0  0  0  0  0  0  0
    1.3563  -15.1024  -27.8825 O   0  0  0  0  0  0  0  0  0  0  0  0
    2.9073   -5.2677  -32.0102 O   0  0  0  0  0  0  0  0  0  0  0  0
    1.3702  -15.4409  -26.4852 C   0  0  0  0  0  0  0  0  0  0  0  0
    2.9468   -3.9979  -31.3409 C   0  0  0  0  0  0  0  0  0  0  0  0
    3.0732  -11.2279  -34.0685 H   0  0  0  0  0  0  0  0  0  0  0  0
    5.1395   -9.8103  -31.4723 H   0  0  0  0  0  0  0  0  0  0  0  0
   -0.0626   -6.4058  -33.2129 H   0  0  0  0  0  0  0  0  0  0  0  0
    5.5471  -10.4696  -33.5855 H   0  0  0  0  0  0  0  0  0  0  0  0
    4.8203   -8.8782  -33.8305 H   0  0  0  0  0  0  0  0  0  0  0  0
    1.1933  -14.0067  -30.3212 H   0  0  0  0  0  0  0  0  0  0  0  0
    1.2670  -11.1878  -35.0095 H   0  0  0  0  0  0  0  0  0  0  0  0
    4.7435  -12.1577  -27.5455 H   0  0  0  0  0  0  0  0  0  0  0  0
    5.1428  -11.4961  -37.0421 H   0  0  0  0  0  0  0  0  0  0  0  0
    5.2744  -12.1177  -35.4597 H   0  0  0  0  0  0  0  0  0  0  0  0
    3.3131  -13.9160  -26.6709 H   0  0  0  0  0  0  0  0  0  0  0  0
    2.3160   -6.6130  -30.5662 H   0  0  0  0  0  0  0  0  0  0  0  0
    1.0272   -5.6657  -31.2647 H   0  0  0  0  0  0  0  0  0  0  0  0
    0.6829  -16.2410  -26.3052 H   0  0  0  0  0  0  0  0  0  0  0  0
    1.0824  -14.5869  -25.9084 H   0  0  0  0  0  0  0  0  0  0  0  0
    2.3557  -15.7468  -26.2021 H   0  0  0  0  0  0  0  0  0  0  0  0
    3.6879   -3.3764  -31.7986 H   0  0  0  0  0  0  0  0  0  0  0  0
    3.1923   -4.1456  -30.3100 H   0  0  0  0  0  0  0  0  0  0  0  0
    1.9897   -3.5255  -31.4155 H   0  0  0  0  0  0  0  0  0  0  0  0
  1  3  2  0  0  0  0
  1  4  1  0  0  0  0
  1  9  1  0  0  0  0
  2  4  1  0  0  0  0
  2  5  1  0  0  0  0
  2  8  2  0  0  0  0
  3  7  1  0  0  0  0
  3 20  1  0  0  0  0
  4 14  1  0  0  0  0
  4 30  1  6  0  0  0
  5  6  1  0  0  0  0
  5 17  2  0  0  0  0
  6 16  2  0  0  0  0
  6 13  1  0  0  0  0
  7 18  2  0  0  0  0
  7 10  1  0  0  0  0
  8 11  1  0  0  0  0
  8 31  1  0  0  0  0
  9 12  1  0  0  0  0
 10 12  2  0  0  0  0
 10 32  1  0  0  0  0
 11 13  1  0  0  0  0
 12 25  1  0  0  0  0
 13 21  2  0  0  0  0
 14 15  1  0  0  0  0
 14 33  1  0  0  0  0
 14 34  1  0  0  0  0
 15 19  2  0  0  0  0
 15 22  1  0  0  0  0
 16 23  1  0  0  0  0
 16 35  1  0  0  0  0
 20 36  1  0  0  0  0
 21 24  1  0  0  0  0
 21 37  1  0  0  0  0
 22 38  1  0  0  0  0
 22 39  1  0  0  0  0
 23 26  1  0  0  0  0
 23 24  2  0  0  0  0
 24 40  1  0  0  0  0
 25 27  1  0  0  0  0
 25 41  1  0  0  0  0
 25 42  1  0  0  0  0
 26 28  1  0  0  0  0
 27 29  1  0  0  0  0
 28 43  1  0  0  0  0
 28 44  1  0  0  0  0
 28 45  1  0  0  0  0
 29 46  1  0  0  0  0
 29 47  1  0  0  0  0
 29 48  1  0  0  0  0
M  END
$$$$
