##########                                Name: HTS1710-00907078-01
##########                    Molecular_Weight:             345.309
##########                DOCK_Rotatable_Bonds:                   7
##########                       Formal_Charge:                  -2
##########                     HBond_Acceptors:                   8
##########                        HBond_Donors:                   4
##########                         Heavy_Atoms:                  25
##########                          Grid_Score:          -77.079712
##########                     Grid_vdw_energy:          -37.743988
##########                      Grid_es_energy:          -39.335724
##########           Internal_energy_repulsive:            6.850789

@<TRIPOS>MOLECULE
HTS1710-00907078-01
 40 42 1 0 0
SMALL
USER_CHARGES


@<TRIPOS>ATOM
      1 C           5.1745   -7.6558  -31.7563 C.2     1  UNL1       -0.0555
      2 C           5.2952   -8.5850  -32.7753 C.2     1  UNL1       -0.1090
      3 C           4.3316  -10.2780  -31.1775 C.2     1  UNL1        0.0539
      4 C           4.2848   -9.2677  -30.2607 C.2     1  UNL1       -0.0306
      5 C           4.7306   -9.9716  -32.6273 C.3     1  UNL1        0.0317
      6 O           4.5915   -7.9631  -30.5492 O.co2   1  UNL1       -0.7688
      7 C           5.6620   -6.2807  -31.9316 C.2     1  UNL1        0.1708
      8 O           5.8853   -8.3202  -33.9964 O.co2   1  UNL1       -0.7839
      9 C           6.2694   -6.0451  -33.2398 C.2     1  UNL1       -0.0241
     10 C           3.9996  -11.7266  -30.8508 C.2     1  UNL1        0.3364
     11 C           3.5670  -10.1907  -33.6100 C.ar    1  UNL1        0.0049
     12 C           6.3613   -7.0411  -34.1865 C.2     1  UNL1       -0.0886
     13 N           3.9145   -9.4943  -28.9557 N.pl3   1  UNL1       -0.3685
     14 O           5.5726   -5.4171  -31.0757 O.2     1  UNL1       -0.2886
     15 C           3.7391  -10.8416  -34.8572 C.ar    1  UNL1        0.1209
     16 O           4.7390  -12.4961  -30.2572 O.2     1  UNL1       -0.2453
     17 O           2.7583  -12.0922  -31.3001 O.3     1  UNL1       -0.4646
     18 O           4.9583  -11.3193  -35.2496 O.3     1  UNL1       -0.5065
     19 C           6.9910   -6.7517  -35.5256 C.3     1  UNL1        0.0566
     20 C           2.2801   -9.7374  -33.2530 C.ar    1  UNL1       -0.0542
     21 O           6.6262   -5.4591  -36.0041 O.3     1  UNL1       -0.3915
     22 C           2.6429  -11.0135  -35.7198 C.ar    1  UNL1       -0.0199
     23 C           2.5812  -13.3601  -31.9566 C.3     1  UNL1        0.0820
     24 C           1.1910   -9.9117  -34.1189 C.ar    1  UNL1       -0.0612
     25 C           1.3723  -10.5481  -35.3550 C.ar    1  UNL1       -0.0583
     26 H           5.5022  -10.6693  -32.8775 H       1  UNL1        0.0438
     27 H           6.6394   -5.1073  -33.4602 H       1  UNL1        0.0647
     28 H           4.2193  -10.3072  -28.4915 H       1  UNL1        0.1413
     29 H           3.3446   -8.8435  -28.4857 H       1  UNL1        0.1413
     30 H           5.1520  -12.2324  -35.1682 H       1  UNL1        0.2921
     31 H           6.6651   -7.4883  -36.2299 H       1  UNL1        0.0596
     32 H           8.0545   -6.7802  -35.4107 H       1  UNL1        0.0596
     33 H           2.1382   -9.2716  -32.3431 H       1  UNL1        0.0622
     34 H           6.6630   -4.8217  -35.2739 H       1  UNL1        0.2098
     35 H           2.7745  -11.4857  -36.6279 H       1  UNL1        0.0654
     36 H           1.5552  -13.4762  -32.2372 H       1  UNL1        0.0661
     37 H           2.8600  -14.1491  -31.2898 H       1  UNL1        0.0661
     38 H           3.1967  -13.3981  -32.8310 H       1  UNL1        0.0661
     39 H           0.2557   -9.5715  -33.8462 H       1  UNL1        0.0618
     40 H           0.5722  -10.6733  -35.9946 H       1  UNL1        0.0619
@<TRIPOS>BOND
     1     1     2    2
     2     3     4    2
     3     4     6    1
     4     2     5    1
     5     1     6    1
     6     1     7    1
     7     2     8    1
     8     7     9    1
     9     3    10    1
    10     5    11    1
    11     9    12    2
    12     4    13    1
    13     7    14    2
    14    11    15   ar
    15    10    16    2
    16    10    17    1
    17    15    18    1
    18    12    19    1
    19    11    20   ar
    20    19    21    1
    21    15    22   ar
    22    17    23    1
    23    20    24   ar
    24    24    25   ar
    25     3     5    1
    26     8    12    1
    27    22    25   ar
    28     5    26    1
    29     9    27    1
    30    13    28    1
    31    13    29    1
    32    18    30    1
    33    19    31    1
    34    19    32    1
    35    20    33    1
    36    21    34    1
    37    22    35    1
    38    23    36    1
    39    23    37    1
    40    23    38    1
    41    24    39    1
    42    25    40    1
@<TRIPOS>SUBSTRUCTURE
     1 UNL1        1 TEMP              0 ****  ****    0 ROOT


