##########                                Name: HTS1710-04784863-01
##########                    Molecular_Weight:             354.703
##########                DOCK_Rotatable_Bonds:                  10
##########                       Formal_Charge:                  -2
##########                     HBond_Acceptors:                  10
##########                        HBond_Donors:                   1
##########                         Heavy_Atoms:                  24
##########                          Grid_Score:          -76.167389
##########                     Grid_vdw_energy:          -41.725479
##########                      Grid_es_energy:          -34.441914
##########           Internal_energy_repulsive:            7.873346

@<TRIPOS>MOLECULE
HTS1710-04784863-01
 35 35 1 0 0
SMALL
USER_CHARGES


@<TRIPOS>ATOM
      1 C           6.4640  -16.0913  -27.1604 C.3     1  UNL1       -0.0306
      2 C           5.3490  -15.4497  -28.0177 C.3     1  UNL1        0.0900
      3 O           4.9033  -14.2263  -27.3907 O.3     1  UNL1       -0.4603
      4 C           3.7029  -13.6512  -27.7361 C.2     1  UNL1        0.3628
      5 O           2.9831  -13.0884  -26.9291 O.2     1  UNL1       -0.2430
      6 C           3.3895  -13.7867  -29.2153 C.2     1  UNL1        0.2086
      7 N           4.1879  -13.1027  -29.9918 N.2     1  UNL1       -0.1718
      8 N           4.1485  -13.0322  -31.3520 N.pl3   1  UNL1       -0.2369
      9 C           4.3941  -11.8554  -32.0478 C.ar    1  UNL1        0.0495
     10 C           4.4915  -11.8201  -33.4543 C.ar    1  UNL1       -0.0303
     11 C           4.7368  -10.6064  -34.1277 C.ar    1  UNL1       -0.0003
     12 C           4.8912   -9.4236  -33.3714 C.ar    1  UNL1       -0.0439
     13 C           4.7993   -9.4413  -31.9626 C.ar    1  UNL1       -0.0003
     14 C           4.5472  -10.6674  -31.3134 C.ar    1  UNL1       -0.0303
     15 C           4.9705   -8.1681  -31.1613 C.2     1  UNL1        0.0717
     16 O           3.9921   -7.7342  -30.5761 O.co2   1  UNL1       -0.5446
     17 O           6.0751   -7.6524  -31.1474 O.co2   1  UNL1       -0.5446
     18 C           4.8317  -10.5752  -35.6393 C.2     1  UNL1        0.0717
     19 O           4.6524   -9.5053  -36.1950 O.co2   1  UNL1       -0.5446
     20 O           5.0820  -11.6235  -36.2103 O.co2   1  UNL1       -0.5446
     21 C           2.2672  -14.6345  -29.8200 C.2     1  UNL1        0.2042
     22 O           2.1480  -15.8357  -29.6428 O.2     1  UNL1       -0.2889
     23 C           1.2214  -13.9330  -30.6951 C.3     1  UNL1        0.0873
     24 CL          1.2222  -14.5769  -32.3849 Cl      1  UNL1       -0.1169
     25 H           6.7941  -16.9971  -27.6246 H       1  UNL1        0.0262
     26 H           6.0829  -16.3089  -26.1845 H       1  UNL1        0.0262
     27 H           7.2867  -15.4119  -27.0788 H       1  UNL1        0.0262
     28 H           4.5263  -16.1289  -28.0993 H       1  UNL1        0.0695
     29 H           5.7300  -15.2321  -28.9936 H       1  UNL1        0.0695
     30 H           3.9375  -13.8476  -31.8618 H       1  UNL1        0.1744
     31 H           4.3821  -12.6917  -33.9960 H       1  UNL1        0.0643
     32 H           5.0744   -8.5314  -33.8566 H       1  UNL1        0.0630
     33 H           4.4740  -10.6926  -30.2843 H       1  UNL1        0.0643
     34 H           1.4390  -12.8857  -30.7231 H       1  UNL1        0.0512
     35 H           0.2561  -14.1131  -30.2702 H       1  UNL1        0.0512
@<TRIPOS>BOND
     1     1     2    1
     2     2     3    1
     3     3     4    1
     4     4     5    2
     5     4     6    1
     6     6     7    2
     7     7     8    1
     8     8     9    1
     9     9    10   ar
    10    10    11   ar
    11    11    12   ar
    12    12    13   ar
    13    13    14   ar
    14     9    14   ar
    15    13    15    1
    16    15    16   ar
    17    15    17   ar
    18    11    18    1
    19    18    19   ar
    20    18    20   ar
    21     6    21    1
    22    21    22    2
    23    21    23    1
    24    23    24    1
    25     1    25    1
    26     1    26    1
    27     1    27    1
    28     2    28    1
    29     2    29    1
    30     8    30    1
    31    10    31    1
    32    12    32    1
    33    14    33    1
    34    23    34    1
    35    23    35    1
@<TRIPOS>SUBSTRUCTURE
     1 UNL1        1 TEMP              0 ****  ****    0 ROOT


