HTS1710-01945431-01
 OpenBabel03232612343D

 30 31  0  0  0  0  0  0  0  0999 V2000
    3.4362  -11.6509  -30.2442 C   0  0  0  0  0  0  0  0  0  0  0  0
    3.2159  -12.6461  -29.2581 C   0  0  0  0  0  0  0  0  0  0  0  0
    2.8485  -11.7972  -31.5167 C   0  0  0  0  0  0  0  0  0  0  0  0
    2.0303  -12.9009  -31.8196 C   0  0  0  0  0  0  0  0  0  0  0  0
    4.2629  -10.4193  -29.9855 C   0  0  0  0  0  0  0  0  0  0  0  0
    1.4309  -13.0373  -33.1956 C   0  0  0  0  0  0  0  0  0  0  0  0
    3.8468  -12.5919  -27.8912 C   0  0  0  0  0  0  0  0  0  0  0  0
    3.2136   -9.3348  -37.3729 C   0  0  0  0  0  0  0  0  0  0  0  0
    2.4001  -13.7508  -29.5669 C   0  0  0  0  0  0  0  0  0  0  0  0
    1.8763  -12.0913  -34.2797 C   0  0  0  0  0  0  0  0  0  0  0  0
    2.7484  -10.2913  -36.2953 C   0  0  0  0  0  0  0  0  0  0  0  0
    1.8148  -13.8808  -30.8338 C   0  0  0  0  0  0  0  0  0  0  0  0
    4.8855   -9.9533  -30.9235 O   0  5  0  0  0  0  0  0  0  0  0  0
    5.0624  -12.5296  -27.8341 O   0  5  0  0  0  0  0  0  0  0  0  0
    0.5957  -13.8948  -33.4284 O   0  0  0  0  0  0  0  0  0  0  0  0
    4.4075   -9.1009  -37.4420 O   0  5  0  0  0  0  0  0  0  0  0  0
    3.6702  -11.1174  -35.6176 C   0  0  0  0  0  0  0  0  0  0  0  0
    1.3840  -10.3725  -35.9413 C   0  0  0  0  0  0  0  0  0  0  0  0
    3.2386  -12.0038  -34.6178 C   0  0  0  0  0  0  0  0  0  0  0  0
    0.9545  -11.2605  -34.9427 C   0  0  0  0  0  0  0  0  0  0  0  0
    4.2737   -9.9907  -28.8439 O   0  0  0  0  0  0  0  0  0  0  0  0
    3.0936  -12.6438  -26.9338 O   0  0  0  0  0  0  0  0  0  0  0  0
    2.3651   -8.8565  -38.1062 O   0  0  0  0  0  0  0  0  0  0  0  0
    3.0216  -11.0815  -32.2398 H   0  0  0  0  0  0  0  0  0  0  0  0
    2.2306  -14.4745  -28.8510 H   0  0  0  0  0  0  0  0  0  0  0  0
    1.2228  -14.6994  -31.0444 H   0  0  0  0  0  0  0  0  0  0  0  0
    4.6724  -11.0695  -35.8595 H   0  0  0  0  0  0  0  0  0  0  0  0
    0.6952   -9.7727  -36.4218 H   0  0  0  0  0  0  0  0  0  0  0  0
    3.9267  -12.5959  -34.1270 H   0  0  0  0  0  0  0  0  0  0  0  0
   -0.0457  -11.3043  -34.6927 H   0  0  0  0  0  0  0  0  0  0  0  0
  1  2  2  0  0  0  0
  1  3  1  0  0  0  0
  1  5  1  0  0  0  0
  2  7  1  0  0  0  0
  2  9  1  0  0  0  0
  3  4  2  0  0  0  0
  3 24  1  0  0  0  0
  4  6  1  0  0  0  0
  4 12  1  0  0  0  0
  5 13  1  0  0  0  0
  5 21  2  0  0  0  0
  6 10  1  0  0  0  0
  6 15  2  0  0  0  0
  7 14  1  0  0  0  0
  7 22  2  0  0  0  0
  8 11  1  0  0  0  0
  8 16  1  0  0  0  0
  8 23  2  0  0  0  0
  9 12  2  0  0  0  0
  9 25  1  0  0  0  0
 10 19  2  0  0  0  0
 10 20  1  0  0  0  0
 11 17  2  0  0  0  0
 11 18  1  0  0  0  0
 12 26  1  0  0  0  0
 17 19  1  0  0  0  0
 17 27  1  0  0  0  0
 18 20  2  0  0  0  0
 18 28  1  0  0  0  0
 19 29  1  0  0  0  0
 20 30  1  0  0  0  0
M  CHG  3  13  -1  14  -1  16  -1
M  END
$$$$
