##########                                Name: HTS1710-01487920-01
##########                    Molecular_Weight:             434.318
##########                DOCK_Rotatable_Bonds:                   6
##########                       Formal_Charge:                  -2
##########                     HBond_Acceptors:                  11
##########                        HBond_Donors:                   0
##########                         Heavy_Atoms:                  32
##########                          Grid_Score:          -77.764862
##########                     Grid_vdw_energy:          -50.525116
##########                      Grid_es_energy:          -27.239746
##########           Internal_energy_repulsive:           10.075259

@<TRIPOS>MOLECULE
HTS1710-01487920-01
 42 45 1 0 0
SMALL
USER_CHARGES


@<TRIPOS>ATOM
      1 N          -0.9048   -6.7892  -35.5080 N.am    1  UNL1       -0.2286
      2 N           3.1992  -13.9491  -29.7059 N.am    1  UNL1       -0.2286
      3 C          -0.4299   -7.6845  -34.5558 C.2     1  UNL1        0.2542
      4 C           4.0876  -13.2373  -30.5033 C.2     1  UNL1        0.2542
      5 C           1.9502  -14.0882  -30.3002 C.2     1  UNL1        0.2541
      6 C          -0.2657   -6.9326  -36.7338 C.2     1  UNL1        0.2541
      7 C           3.3343  -12.8972  -31.7403 C.ar    1  UNL1        0.0501
      8 C           0.6103   -8.4920  -35.2472 C.ar    1  UNL1        0.0501
      9 C           2.0537  -13.4036  -31.6176 C.ar    1  UNL1        0.0495
     10 C           0.7112   -8.0405  -36.5502 C.ar    1  UNL1        0.0495
     11 C           3.7420  -12.1955  -32.8799 C.ar    1  UNL1       -0.0380
     12 C           1.4074   -9.5368  -34.7677 C.ar    1  UNL1       -0.0380
     13 C           2.3318  -10.1360  -35.6542 C.ar    1  UNL1        0.0230
     14 C           2.8065  -12.0149  -33.9243 C.ar    1  UNL1        0.0230
     15 C           3.2156  -11.2505  -35.1570 C.2     1  UNL1        0.1932
     16 C          -1.9495   -5.7851  -35.2365 C.3     1  UNL1        0.0623
     17 C           3.5393  -14.4761  -28.3723 C.3     1  UNL1        0.0623
     18 C           1.1001  -13.2270  -32.6250 C.ar    1  UNL1       -0.0482
     19 C           1.6257   -8.5997  -37.4480 C.ar    1  UNL1       -0.0482
     20 C           4.1133  -13.3595  -27.4962 C.2     1  UNL1        0.0595
     21 C          -3.3103   -6.4713  -35.0865 C.2     1  UNL1        0.0595
     22 O          -0.7835   -7.7809  -33.3934 O.2     1  UNL1       -0.2695
     23 O           5.2408  -12.9435  -30.2406 O.2     1  UNL1       -0.2695
     24 O           0.9728  -14.6513  -29.8384 O.2     1  UNL1       -0.2695
     25 O          -0.4612   -6.2846  -37.7472 O.2     1  UNL1       -0.2695
     26 C           2.4436   -9.6522  -36.9856 C.ar    1  UNL1       -0.0502
     27 C           1.4865  -12.5204  -33.7830 C.ar    1  UNL1       -0.0502
     28 O           4.2477  -11.5309  -35.7433 O.2     1  UNL1       -0.2867
     29 O           3.3833  -12.4166  -27.2480 O.co2   1  UNL1       -0.5482
     30 O          -3.3111   -7.6223  -34.6864 O.co2   1  UNL1       -0.5482
     31 O           5.2607  -13.4907  -27.1059 O.co2   1  UNL1       -0.5482
     32 O          -4.2980   -5.8197  -35.3766 O.co2   1  UNL1       -0.5482
     33 H           4.7002  -11.8197  -32.9561 H       1  UNL1        0.0632
     34 H           1.3229   -9.8621  -33.7919 H       1  UNL1        0.0632
     35 H          -1.9914   -5.0892  -36.0482 H       1  UNL1        0.0531
     36 H          -1.7140   -5.2705  -34.3284 H       1  UNL1        0.0531
     37 H           4.2660  -15.2549  -28.4743 H       1  UNL1        0.0531
     38 H           2.6539  -14.8625  -27.9120 H       1  UNL1        0.0531
     39 H           0.1439  -13.6018  -32.5243 H       1  UNL1        0.0625
     40 H           1.7001   -8.2537  -38.4174 H       1  UNL1        0.0625
     41 H           3.1338  -10.0774  -37.6242 H       1  UNL1        0.0625
     42 H           0.8002  -12.3685  -34.5385 H       1  UNL1        0.0625
@<TRIPOS>BOND
     1     2     4   am
     2     1     3   am
     3     4     7    1
     4     5     9    1
     5     1     6   am
     6     7    11   ar
     7     3     8    1
     8     9    18   ar
     9     6    10    1
    10    11    14   ar
    11     8    12   ar
    12    12    13   ar
    13    14    15    1
    14    13    15    1
    15     1    16    1
    16     2    17    1
    17    18    27   ar
    18    10    19   ar
    19    17    20    1
    20    16    21    1
    21     3    22    2
    22     4    23    2
    23     5    24    2
    24     6    25    2
    25    19    26   ar
    26    14    27   ar
    27    15    28    2
    28    20    29   ar
    29    21    30   ar
    30    20    31   ar
    31    21    32   ar
    32     8    10   ar
    33    13    26   ar
    34     7     9   ar
    35     2     5   am
    36    11    33    1
    37    12    34    1
    38    16    35    1
    39    16    36    1
    40    17    37    1
    41    17    38    1
    42    18    39    1
    43    19    40    1
    44    26    41    1
    45    27    42    1
@<TRIPOS>SUBSTRUCTURE
     1 UNL1        1 TEMP              0 ****  ****    0 ROOT


