HTS1710-00238210-01
 OpenBabel03232612353D

 30 30  0  0  1  0  0  0  0  0999 V2000
    3.3141  -13.1857  -32.6253 S   0  0  0  0  0  0  0  0  0  0  0  0
    3.1726   -9.2527  -37.3115 N   0  0  0  0  0  0  0  0  0  0  0  0
    3.0788  -11.4029  -30.5501 C   0  0  2  0  0  0  0  0  0  0  0  0
    3.9730  -12.2447  -31.3702 N   0  0  0  0  0  0  0  0  0  0  0  0
    3.1989   -9.9329  -31.0376 C   0  0  0  0  0  0  0  0  0  0  0  0
    3.4290  -11.5446  -29.0565 C   0  0  0  0  0  0  0  0  0  0  0  0
    3.2701  -12.0233  -33.9993 C   0  0  0  0  0  0  0  0  0  0  0  0
    3.9430   -9.0261  -30.0479 C   0  0  0  0  0  0  0  0  0  0  0  0
    3.2064  -10.2131  -36.1683 C   0  0  0  0  0  0  0  0  0  0  0  0
    4.2848  -14.2453  -32.9175 O   0  0  0  0  0  0  0  0  0  0  0  0
    1.9400  -13.4517  -32.1876 O   0  0  0  0  0  0  0  0  0  0  0  0
    4.2406   -8.8416  -37.7570 O   0  5  0  0  0  0  0  0  0  0  0  0
    2.0771   -8.9131  -37.7521 O   0  0  0  0  0  0  0  0  0  0  0  0
    4.5627  -11.8945  -28.7723 O   0  5  0  0  0  0  0  0  0  0  0  0
    3.2962   -8.5469  -29.1323 O   0  5  0  0  0  0  0  0  0  0  0  0
    4.4689  -11.5253  -34.5400 C   0  0  0  0  0  0  0  0  0  0  0  0
    2.0400  -11.6239  -34.5504 C   0  0  0  0  0  0  0  0  0  0  0  0
    4.4390  -10.6246  -35.6159 C   0  0  0  0  0  0  0  0  0  0  0  0
    2.0061  -10.7232  -35.6259 C   0  0  0  0  0  0  0  0  0  0  0  0
    2.5373  -11.3269  -28.2545 O   0  0  0  0  0  0  0  0  0  0  0  0
    5.1292   -8.8319  -30.2514 O   0  0  0  0  0  0  0  0  0  0  0  0
    3.0869  -10.2229  -37.4544 H   0  0  0  0  0  0  0  0  0  0  0  0
    2.0631  -11.7201  -30.6619 H   0  0  0  0  0  0  0  0  0  0  0  0
    4.4438  -12.8869  -30.7328 H   0  0  0  0  0  0  0  0  0  0  0  0
    2.2138   -9.5413  -31.1829 H   0  0  0  0  0  0  0  0  0  0  0  0
    3.7650   -9.9445  -31.9455 H   0  0  0  0  0  0  0  0  0  0  0  0
    5.3741  -11.8232  -34.1441 H   0  0  0  0  0  0  0  0  0  0  0  0
    1.1585  -11.9946  -34.1624 H   0  0  0  0  0  0  0  0  0  0  0  0
    5.3228  -10.2611  -36.0056 H   0  0  0  0  0  0  0  0  0  0  0  0
    1.0991  -10.4318  -36.0228 H   0  0  0  0  0  0  0  0  0  0  0  0
  1  4  1  0  0  0  0
  1  7  1  0  0  0  0
  1 10  2  0  0  0  0
  1 11  2  0  0  0  0
  2  9  1  0  0  0  0
  2 12  1  0  0  0  0
  2 13  2  0  0  0  0
  2 22  1  0  0  0  0
  3  4  1  0  0  0  0
  3  5  1  0  0  0  0
  3  6  1  0  0  0  0
  3 23  1  6  0  0  0
  4 24  1  0  0  0  0
  5  8  1  0  0  0  0
  5 25  1  0  0  0  0
  5 26  1  0  0  0  0
  6 14  1  0  0  0  0
  6 20  2  0  0  0  0
  7 16  2  0  0  0  0
  7 17  1  0  0  0  0
  8 15  1  0  0  0  0
  8 21  2  0  0  0  0
  9 19  1  0  0  0  0
  9 18  2  0  0  0  0
 16 18  1  0  0  0  0
 16 27  1  0  0  0  0
 17 19  2  0  0  0  0
 17 28  1  0  0  0  0
 18 29  1  0  0  0  0
 19 30  1  0  0  0  0
M  CHG  3  12  -1  14  -1  15  -1
M  END
$$$$
