HTS1710-01238876-01
 OpenBabel03232612353D

 51 52  0  0  1  0  0  0  0  0999 V2000
    4.9040   -8.9979  -32.5265 C   0  0  0  0  0  0  0  0  0  0  0  0
    3.4877  -10.4854  -31.3825 N   0  0  0  0  0  0  0  0  0  0  0  0
    5.1530   -8.9570  -31.2025 C   0  0  0  0  0  0  0  0  0  0  0  0
    4.2800   -9.8588  -30.4398 C   0  0  0  0  0  0  0  0  0  0  0  0
    3.7951  -10.0346  -32.7646 C   0  0  1  0  0  0  0  0  0  0  0  0
    2.5640   -9.4675  -33.4653 C   0  0  0  0  0  0  0  0  0  0  0  0
    5.7074   -8.4166  -33.6478 C   0  0  0  0  0  0  0  0  0  0  0  0
    1.6241   -8.7072  -32.7448 C   0  0  0  0  0  0  0  0  0  0  0  0
    0.4545   -8.2330  -33.3767 C   0  0  0  0  0  0  0  0  0  0  0  0
    4.2597  -10.0413  -29.2343 O   0  0  0  0  0  0  0  0  0  0  0  0
    2.6402  -13.2924  -27.3711 C   0  0  0  0  0  0  0  0  0  0  0  0
    2.3387   -9.7408  -34.8237 C   0  0  0  0  0  0  0  0  0  0  0  0
    0.2387   -8.5027  -34.7427 C   0  0  0  0  0  0  0  0  0  0  0  0
    6.1232   -8.2466  -30.5832 O   0  5  0  0  0  0  0  0  0  0  0  0
    5.9060   -9.0377  -34.6781 O   0  0  0  0  0  0  0  0  0  0  0  0
    3.5949  -13.5247  -26.6496 O   0  5  0  0  0  0  0  0  0  0  0  0
    1.1885   -9.2570  -35.4641 C   0  0  0  0  0  0  0  0  0  0  0  0
    2.5255  -11.5709  -31.1217 C   0  0  0  0  0  0  0  0  0  0  0  0
    2.1792  -12.1870  -27.5973 O   0  0  0  0  0  0  0  0  0  0  0  0
   -0.5066   -7.5180  -32.6831 O   0  0  0  0  0  0  0  0  0  0  0  0
   -0.9173   -8.0290  -35.3372 O   0  0  0  0  0  0  0  0  0  0  0  0
    1.9649  -14.4899  -28.0531 C   0  0  0  0  0  0  0  0  0  0  0  0
    6.4062   -7.0782  -33.3917 C   0  0  0  0  0  0  0  0  0  0  0  0
   -0.2305   -6.2701  -32.0245 C   0  0  0  0  0  0  0  0  0  0  0  0
   -0.9354   -6.8959  -36.2226 C   0  0  0  0  0  0  0  0  0  0  0  0
    3.2194  -12.9451  -30.9772 C   0  0  0  0  0  0  0  0  0  0  0  0
    2.6533  -14.9040  -29.3834 C   0  0  0  0  0  0  0  0  0  0  0  0
    2.2213  -14.0712  -30.6216 C   0  0  0  0  0  0  0  0  0  0  0  0
    4.1032  -10.8184  -33.4247 H   0  0  0  0  0  0  0  0  0  0  0  0
    1.7909   -8.4953  -31.7487 H   0  0  0  0  0  0  0  0  0  0  0  0
    3.0237  -10.3012  -35.3545 H   0  0  0  0  0  0  0  0  0  0  0  0
    1.0364   -9.4532  -36.4658 H   0  0  0  0  0  0  0  0  0  0  0  0
    1.8317  -11.6191  -31.9350 H   0  0  0  0  0  0  0  0  0  0  0  0
    2.0293  -11.3551  -30.1986 H   0  0  0  0  0  0  0  0  0  0  0  0
    0.9475  -14.2331  -28.2622 H   0  0  0  0  0  0  0  0  0  0  0  0
    2.0399  -15.3213  -27.3837 H   0  0  0  0  0  0  0  0  0  0  0  0
    6.1032   -6.6939  -32.4402 H   0  0  0  0  0  0  0  0  0  0  0  0
    6.1374   -6.3828  -34.1592 H   0  0  0  0  0  0  0  0  0  0  0  0
    7.4664   -7.2226  -33.3967 H   0  0  0  0  0  0  0  0  0  0  0  0
   -1.1229   -5.9077  -31.5584 H   0  0  0  0  0  0  0  0  0  0  0  0
    0.1119   -5.5553  -32.7435 H   0  0  0  0  0  0  0  0  0  0  0  0
    0.5249   -6.4184  -31.2815 H   0  0  0  0  0  0  0  0  0  0  0  0
   -1.9369   -6.7194  -36.5555 H   0  0  0  0  0  0  0  0  0  0  0  0
   -0.3084   -7.0930  -37.0669 H   0  0  0  0  0  0  0  0  0  0  0  0
   -0.5745   -6.0323  -35.7041 H   0  0  0  0  0  0  0  0  0  0  0  0
    3.9548  -12.8797  -30.2027 H   0  0  0  0  0  0  0  0  0  0  0  0
    3.6652  -13.1878  -31.9192 H   0  0  0  0  0  0  0  0  0  0  0  0
    2.4206  -15.9308  -29.5741 H   0  0  0  0  0  0  0  0  0  0  0  0
    3.7004  -14.7288  -29.2504 H   0  0  0  0  0  0  0  0  0  0  0  0
    1.2683  -13.6290  -30.4184 H   0  0  0  0  0  0  0  0  0  0  0  0
    2.1848  -14.7389  -31.4568 H   0  0  0  0  0  0  0  0  0  0  0  0
  1  3  2  0  0  0  0
  1  5  1  0  0  0  0
  1  7  1  0  0  0  0
  2  5  1  0  0  0  0
  2 18  1  0  0  0  0
  2  4  1  0  0  0  0
  3  4  1  0  0  0  0
  3 14  1  0  0  0  0
  4 10  2  0  0  0  0
  5  6  1  0  0  0  0
  5 29  1  6  0  0  0
  6  8  2  0  0  0  0
  6 12  1  0  0  0  0
  7 15  2  0  0  0  0
  7 23  1  0  0  0  0
  8  9  1  0  0  0  0
  8 30  1  0  0  0  0
  9 20  1  0  0  0  0
  9 13  2  0  0  0  0
 11 22  1  0  0  0  0
 11 16  1  0  0  0  0
 11 19  2  0  0  0  0
 12 17  2  0  0  0  0
 12 31  1  0  0  0  0
 13 17  1  0  0  0  0
 13 21  1  0  0  0  0
 17 32  1  0  0  0  0
 18 26  1  0  0  0  0
 18 33  1  0  0  0  0
 18 34  1  0  0  0  0
 20 24  1  0  0  0  0
 21 25  1  0  0  0  0
 22 27  1  0  0  0  0
 22 35  1  0  0  0  0
 22 36  1  0  0  0  0
 23 37  1  0  0  0  0
 23 38  1  0  0  0  0
 23 39  1  0  0  0  0
 24 40  1  0  0  0  0
 24 41  1  0  0  0  0
 24 42  1  0  0  0  0
 25 43  1  0  0  0  0
 25 44  1  0  0  0  0
 25 45  1  0  0  0  0
 26 28  1  0  0  0  0
 26 46  1  0  0  0  0
 26 47  1  0  0  0  0
 27 28  1  0  0  0  0
 27 48  1  0  0  0  0
 27 49  1  0  0  0  0
 28 50  1  0  0  0  0
 28 51  1  0  0  0  0
M  CHG  2  14  -1  16  -1
M  END
$$$$
