##########                                Name: HTS1710-04762221-01
##########                    Molecular_Weight:             343.381
##########                DOCK_Rotatable_Bonds:                   6
##########                       Formal_Charge:                  -2
##########                     HBond_Acceptors:                   9
##########                        HBond_Donors:                   0
##########                         Heavy_Atoms:                  23
##########                          Grid_Score:          -75.878555
##########                     Grid_vdw_energy:          -42.803379
##########                      Grid_es_energy:          -33.075172
##########           Internal_energy_repulsive:           17.377825

@<TRIPOS>MOLECULE
HTS1710-04762221-01
 42 43 1 0 0
SMALL
USER_CHARGES


@<TRIPOS>ATOM
      1 C           2.3907   -9.0690  -30.2839 C.3     1  UNL1        0.0035
      2 N           3.6727   -9.7700  -30.5201 N.am    1  UNL1       -0.3000
      3 C           4.8472   -8.8722  -30.5941 C.3     1  UNL1        0.0266
      4 C           5.2509   -8.5941  -32.0169 C.2     1  UNL1       -0.0998
      5 C           5.9716   -7.4989  -32.4116 C.2     1  UNL1       -0.0630
      6 C           6.1102   -7.6400  -33.8176 C.2     1  UNL1       -0.0144
      7 C           6.8147   -6.7009  -34.7229 C.2     1  UNL1        0.0708
      8 O           7.2421   -5.6576  -34.2602 O.co2   1  UNL1       -0.5447
      9 O           6.9253   -7.0346  -35.8890 O.co2   1  UNL1       -0.5447
     10 C           5.4482   -8.8203  -34.0968 C.2     1  UNL1       -0.1120
     11 C           5.2992   -9.4412  -35.4628 C.3     1  UNL1       -0.0524
     12 O           4.8937   -9.4566  -33.0152 O.co2   1  UNL1       -0.7845
     13 C           3.8087  -11.1514  -30.7543 C.2     1  UNL1        0.2345
     14 O           4.8925  -11.6546  -30.9982 O.2     1  UNL1       -0.2738
     15 C           2.5584  -12.0607  -30.6685 C.3     1  UNL1        0.1076
     16 C           1.8999  -12.3645  -32.0356 C.3     1  UNL1       -0.0260
     17 C           1.5164  -13.8561  -31.9802 C.3     1  UNL1       -0.0366
     18 C           1.7758  -14.2843  -30.5265 C.3     1  UNL1        0.0210
     19 N           2.7889  -13.3578  -30.0036 N.3     1  UNL1       -0.1695
     20 S           3.1587  -13.3763  -28.3633 S.O2    1  UNL1        0.0296
     21 O           1.9191  -13.5166  -27.6166 O.2     1  UNL1       -0.1583
     22 O           4.0594  -12.2669  -28.0996 O.2     1  UNL1       -0.1583
     23 C           4.1500  -14.8808  -28.1811 C.3     1  UNL1        0.0707
     24 H           2.5767   -8.0259  -30.1349 H       1  UNL1        0.0429
     25 H           1.9174   -9.4746  -29.4142 H       1  UNL1        0.0429
     26 H           1.7512   -9.1999  -31.1317 H       1  UNL1        0.0429
     27 H           5.6678   -9.3332  -30.0853 H       1  UNL1        0.0502
     28 H           4.5834   -7.9419  -30.1358 H       1  UNL1        0.0502
     29 H           6.3348   -6.7374  -31.8173 H       1  UNL1        0.0615
     30 H           5.7848   -8.8244  -36.1899 H       1  UNL1        0.0266
     31 H           4.2603   -9.5268  -35.7043 H       1  UNL1        0.0266
     32 H           5.7467  -10.4131  -35.4636 H       1  UNL1        0.0266
     33 H           1.9004  -11.4641  -30.0718 H       1  UNL1        0.0575
     34 H           2.5908  -12.1846  -32.8326 H       1  UNL1        0.0286
     35 H           1.0496  -11.7406  -32.2161 H       1  UNL1        0.0286
     36 H           2.1234  -14.4250  -32.6531 H       1  UNL1        0.0279
     37 H           0.4993  -14.0189  -32.2700 H       1  UNL1        0.0279
     38 H           2.1406  -15.2898  -30.4950 H       1  UNL1        0.0444
     39 H           0.8791  -14.2528  -29.9436 H       1  UNL1        0.0444
     40 H           3.5355  -15.7372  -28.3650 H       1  UNL1        0.0479
     41 H           4.5432  -14.9307  -27.1873 H       1  UNL1        0.0479
     42 H           4.9570  -14.8635  -28.8835 H       1  UNL1        0.0479
@<TRIPOS>BOND
     1     1     2    1
     2     2     3    1
     3     3     4    1
     4     4     5    2
     5     5     6    1
     6     6     7    1
     7     7     8   ar
     8     7     9   ar
     9     6    10    2
    10    10    11    1
    11    10    12    1
    12     4    12    1
    13     2    13   am
    14    13    14    2
    15    13    15    1
    16    15    16    1
    17    16    17    1
    18    17    18    1
    19    18    19    1
    20    15    19    1
    21    19    20    1
    22    20    21    2
    23    20    22    2
    24    20    23    1
    25     1    24    1
    26     1    25    1
    27     1    26    1
    28     3    27    1
    29     3    28    1
    30     5    29    1
    31    11    30    1
    32    11    31    1
    33    11    32    1
    34    15    33    1
    35    16    34    1
    36    16    35    1
    37    17    36    1
    38    17    37    1
    39    18    38    1
    40    18    39    1
    41    23    40    1
    42    23    41    1
    43    23    42    1
@<TRIPOS>SUBSTRUCTURE
     1 UNL1        1 TEMP              0 ****  ****    0 ROOT


