##########                                Name: HTS1710-00621983-01
##########                    Molecular_Weight:             296.283
##########                DOCK_Rotatable_Bonds:                   7
##########                       Formal_Charge:                  -2
##########                     HBond_Acceptors:                   9
##########                        HBond_Donors:                   2
##########                         Heavy_Atoms:                  21
##########                          Grid_Score:          -75.965424
##########                     Grid_vdw_energy:          -36.170395
##########                      Grid_es_energy:          -39.795029
##########           Internal_energy_repulsive:           12.970578

@<TRIPOS>MOLECULE
HTS1710-00621983-01
 37 37 1 0 0
SMALL
USER_CHARGES


@<TRIPOS>ATOM
      1 C           4.4828   -9.9414  -33.2798 C.ar    1  UNL1        0.1418
      2 C           5.0973   -8.8339  -32.7639 C.ar    1  UNL1        0.0578
      3 N           4.8779   -9.9952  -34.6115 N.ar    1  UNL1       -0.2519
      4 N           3.6226  -10.7893  -32.6067 N.pl3   1  UNL1       -0.2481
      5 C           5.8744   -8.2714  -33.8117 C.ar    1  UNL1        0.0602
      6 C           5.0150   -8.2873  -31.3865 C.2     1  UNL1        0.0765
      7 N           5.7395   -8.9700  -34.9272 N.ar    1  UNL1       -0.1775
      8 C           4.4536  -10.9333  -35.6572 C.3     1  UNL1        0.0322
      9 N           4.0599  -11.4734  -31.4340 N.am    1  UNL1       -0.2353
     10 O           4.0427   -7.6026  -31.1190 O.co2   1  UNL1       -0.5445
     11 O           5.9116   -8.5465  -30.6018 O.co2   1  UNL1       -0.5445
     12 C           4.1628  -12.8565  -31.3803 C.2     1  UNL1        0.2296
     13 C           4.6429  -13.5159  -30.0763 C.3     1  UNL1        0.0309
     14 O           3.8202  -13.5255  -32.3418 O.2     1  UNL1       -0.2743
     15 C           3.5408  -13.7424  -28.9869 C.3     1  UNL1       -0.0215
     16 C           3.6369  -12.6168  -27.9020 C.3     1  UNL1       -0.0076
     17 C           3.8011  -15.1317  -28.3343 C.3     1  UNL1       -0.0590
     18 C           2.1275  -13.7677  -29.6404 C.3     1  UNL1       -0.0590
     19 C           3.5634  -11.1846  -28.4564 C.2     1  UNL1        0.0423
     20 O           2.4550  -10.6960  -28.5995 O.co2   1  UNL1       -0.5498
     21 O           4.6187  -10.6171  -28.6765 O.co2   1  UNL1       -0.5498
     22 H           2.7050  -10.9212  -32.9380 H       1  UNL1        0.1715
     23 H           6.4649   -7.4305  -33.7157 H       1  UNL1        0.0855
     24 H           3.7896  -11.6595  -35.2368 H       1  UNL1        0.0473
     25 H           5.3118  -11.4272  -36.0628 H       1  UNL1        0.0473
     26 H           3.9501  -10.3973  -36.4344 H       1  UNL1        0.0473
     27 H           4.2965  -10.9472  -30.6364 H       1  UNL1        0.1728
     28 H           5.4018  -12.8923  -29.6521 H       1  UNL1        0.0364
     29 H           4.9876  -14.4909  -30.3511 H       1  UNL1        0.0364
     30 H           4.5684  -12.7280  -27.3876 H       1  UNL1        0.0330
     31 H           2.7871  -12.7383  -27.2633 H       1  UNL1        0.0330
     32 H           4.7692  -15.1358  -27.8785 H       1  UNL1        0.0235
     33 H           3.7573  -15.8924  -29.0854 H       1  UNL1        0.0235
     34 H           3.0558  -15.3216  -27.5904 H       1  UNL1        0.0235
     35 H           1.9281  -12.8201  -30.0958 H       1  UNL1        0.0235
     36 H           1.3909  -13.9647  -28.8898 H       1  UNL1        0.0235
     37 H           2.0924  -14.5356  -30.3848 H       1  UNL1        0.0235
@<TRIPOS>BOND
     1     1     2   ar
     2     1     3   ar
     3     1     4    1
     4     2     5   ar
     5     2     6    1
     6     3     7   ar
     7     3     8    1
     8     4     9    1
     9     6    10   ar
    10     6    11   ar
    11     9    12   am
    12    12    13    1
    13    12    14    2
    14    13    15    1
    15    15    16    1
    16    15    17    1
    17    15    18    1
    18    16    19    1
    19    19    20   ar
    20    19    21   ar
    21     5     7   ar
    22     4    22    1
    23     5    23    1
    24     8    24    1
    25     8    25    1
    26     8    26    1
    27     9    27    1
    28    13    28    1
    29    13    29    1
    30    16    30    1
    31    16    31    1
    32    17    32    1
    33    17    33    1
    34    17    34    1
    35    18    35    1
    36    18    36    1
    37    18    37    1
@<TRIPOS>SUBSTRUCTURE
     1 UNL1        1 TEMP              0 ****  ****    0 ROOT


