HTS1710-03441622-01
 OpenBabel03232612363D

 51 54  0  0  0  0  0  0  0  0999 V2000
    4.2688  -11.6181  -34.2205 S   0  0  0  0  0  0  0  0  0  0  0  0
    3.2310  -13.0141  -29.2164 N   0  0  0  0  0  0  0  0  0  0  0  0
    2.8750  -13.0161  -30.6107 C   0  0  0  0  0  0  0  0  0  0  0  0
    3.6557  -12.3752  -31.6011 C   0  0  0  0  0  0  0  0  0  0  0  0
    2.4683  -13.7330  -28.2901 C   0  0  0  0  0  0  0  0  0  0  0  0
    3.2428  -12.3750  -32.9462 C   0  0  0  0  0  0  0  0  0  0  0  0
   -1.9164   -3.4526  -38.5294 N   0  0  0  0  0  0  0  0  0  0  0  0
    3.2014  -10.6353  -35.1097 N   0  0  0  0  0  0  0  0  0  0  0  0
   -0.5861   -5.1486  -37.7900 N   0  0  0  0  0  0  0  0  0  0  0  0
   -1.4699   -4.7367  -36.8190 N   0  0  0  0  0  0  0  0  0  0  0  0
    0.9209  -14.3288  -30.0768 O   0  0  0  0  0  0  0  0  0  0  0  0
    1.6836  -13.6634  -31.0069 C   0  0  0  0  0  0  0  0  0  0  0  0
   -0.9198   -4.3374  -38.7714 C   0  0  0  0  0  0  0  0  0  0  0  0
    4.2891  -12.1002  -28.7138 C   0  0  0  0  0  0  0  0  0  0  0  0
   -2.2641   -3.6982  -37.2922 C   0  0  0  0  0  0  0  0  0  0  0  0
    5.1064  -10.6192  -33.5499 O   0  0  0  0  0  0  0  0  0  0  0  0
    4.8077  -12.6059  -35.1596 O   0  0  0  0  0  0  0  0  0  0  0  0
    3.8205  -10.6423  -28.7824 C   0  0  0  0  0  0  0  0  0  0  0  0
    1.5685  -14.8163  -28.8907 C   0  0  0  0  0  0  0  0  0  0  0  0
    2.3075   -9.7011  -34.6305 C   0  0  0  0  0  0  0  0  0  0  0  0
    2.5194  -13.5498  -27.0846 O   0  0  0  0  0  0  0  0  0  0  0  0
    2.0406  -13.0007  -33.3143 C   0  0  0  0  0  0  0  0  0  0  0  0
    1.3966   -9.0571  -35.4903 C   0  0  0  0  0  0  0  0  0  0  0  0
    4.5368   -9.8518  -29.3717 O   0  5  0  0  0  0  0  0  0  0  0  0
    1.2606  -13.6429  -32.3446 C   0  0  0  0  0  0  0  0  0  0  0  0
   -1.5011   -5.3670  -35.4919 C   0  0  0  0  0  0  0  0  0  0  0  0
    0.4796   -8.1222  -34.9862 C   0  0  0  0  0  0  0  0  0  0  0  0
    2.7621  -10.3719  -28.2420 O   0  0  0  0  0  0  0  0  0  0  0  0
   -1.6457   -6.9115  -35.5142 C   0  0  0  0  0  0  0  0  0  0  0  0
   -0.3869   -7.5178  -35.8787 O   0  0  0  0  0  0  0  0  0  0  0  0
    1.3849   -8.4621  -32.7498 C   0  0  0  0  0  0  0  0  0  0  0  0
    2.3103   -9.3850  -33.2616 C   0  0  0  0  0  0  0  0  0  0  0  0
    0.4622   -7.8388  -33.6036 C   0  0  0  0  0  0  0  0  0  0  0  0
    4.5346  -11.9042  -31.3351 H   0  0  0  0  0  0  0  0  0  0  0  0
    3.2250  -10.7476  -36.0875 H   0  0  0  0  0  0  0  0  0  0  0  0
   -0.4427   -4.3739  -39.6857 H   0  0  0  0  0  0  0  0  0  0  0  0
    5.1676  -12.2157  -29.3137 H   0  0  0  0  0  0  0  0  0  0  0  0
    4.5018  -12.3464  -27.6945 H   0  0  0  0  0  0  0  0  0  0  0  0
   -2.9995   -3.2068  -36.7604 H   0  0  0  0  0  0  0  0  0  0  0  0
    2.1629  -15.6705  -29.1394 H   0  0  0  0  0  0  0  0  0  0  0  0
    0.8217  -15.0845  -28.1729 H   0  0  0  0  0  0  0  0  0  0  0  0
    1.7322  -12.9873  -34.2991 H   0  0  0  0  0  0  0  0  0  0  0  0
    1.4035   -9.2746  -36.4991 H   0  0  0  0  0  0  0  0  0  0  0  0
    0.3756  -14.1005  -32.6136 H   0  0  0  0  0  0  0  0  0  0  0  0
   -2.3297   -4.9620  -34.9494 H   0  0  0  0  0  0  0  0  0  0  0  0
   -0.5570   -5.1572  -35.0341 H   0  0  0  0  0  0  0  0  0  0  0  0
   -2.3926   -7.1877  -36.2290 H   0  0  0  0  0  0  0  0  0  0  0  0
   -1.9324   -7.2526  -34.5413 H   0  0  0  0  0  0  0  0  0  0  0  0
    1.3831   -8.2411  -31.7417 H   0  0  0  0  0  0  0  0  0  0  0  0
    2.9941   -9.8323  -32.6312 H   0  0  0  0  0  0  0  0  0  0  0  0
   -0.2283   -7.1740  -33.2210 H   0  0  0  0  0  0  0  0  0  0  0  0
  1  6  1  0  0  0  0
  1  8  1  0  0  0  0
  1 16  2  0  0  0  0
  1 17  2  0  0  0  0
  2  3  1  0  0  0  0
  2  5  1  0  0  0  0
  2 14  1  0  0  0  0
  3  4  2  0  0  0  0
  3 12  1  0  0  0  0
  4  6  1  0  0  0  0
  4 34  1  0  0  0  0
  5 21  2  0  0  0  0
  5 19  1  0  0  0  0
  6 22  2  0  0  0  0
  7 15  2  0  0  0  0
  7 13  1  0  0  0  0
  8 20  1  0  0  0  0
  8 35  1  0  0  0  0
  9 10  1  0  0  0  0
  9 13  2  0  0  0  0
 10 26  1  0  0  0  0
 10 15  1  0  0  0  0
 11 12  1  0  0  0  0
 11 19  1  0  0  0  0
 12 25  2  0  0  0  0
 13 36  1  0  0  0  0
 14 18  1  0  0  0  0
 14 37  1  0  0  0  0
 14 38  1  0  0  0  0
 15 39  1  0  0  0  0
 18 24  1  0  0  0  0
 18 28  2  0  0  0  0
 19 40  1  0  0  0  0
 19 41  1  0  0  0  0
 20 23  2  0  0  0  0
 20 32  1  0  0  0  0
 22 25  1  0  0  0  0
 22 42  1  0  0  0  0
 23 27  1  0  0  0  0
 23 43  1  0  0  0  0
 25 44  1  0  0  0  0
 26 29  1  0  0  0  0
 26 45  1  0  0  0  0
 26 46  1  0  0  0  0
 27 30  1  0  0  0  0
 27 33  2  0  0  0  0
 29 30  1  0  0  0  0
 29 47  1  0  0  0  0
 29 48  1  0  0  0  0
 31 32  2  0  0  0  0
 31 33  1  0  0  0  0
 31 49  1  0  0  0  0
 32 50  1  0  0  0  0
 33 51  1  0  0  0  0
M  CHG  1  24  -1
M  END
$$$$
