##########                                Name: HTS1710-05120948-01
##########                    Molecular_Weight:             328.345
##########                DOCK_Rotatable_Bonds:                   7
##########                       Formal_Charge:                  -2
##########                     HBond_Acceptors:                   6
##########                        HBond_Donors:                   0
##########                         Heavy_Atoms:                  24
##########                          Grid_Score:          -76.912384
##########                     Grid_vdw_energy:          -35.889496
##########                      Grid_es_energy:          -41.022884
##########           Internal_energy_repulsive:           13.254148

@<TRIPOS>MOLECULE
HTS1710-05120948-01
 42 44 1 0 0
SMALL
USER_CHARGES


@<TRIPOS>ATOM
      1 O           3.7201   -9.7464  -34.5604 O.co2   1  UNL1       -0.5447
      2 C           4.6488   -9.1446  -34.0491 C.2     1  UNL1        0.0706
      3 O           5.5107   -8.5392  -34.6630 O.co2   1  UNL1       -0.5447
      4 C           4.7364   -9.1519  -32.5767 C.2     1  UNL1       -0.0170
      5 C           5.3692   -8.2381  -31.7768 C.2     1  UNL1       -0.1247
      6 O           5.2825   -8.5076  -30.4361 O.co2   1  UNL1       -0.7816
      7 C           4.5400   -9.6636  -30.4203 C.2     1  UNL1       -0.0300
      8 C           4.1886  -10.1003  -31.6761 C.2     1  UNL1       -0.0558
      9 C           4.1554  -10.3904  -29.1703 C.2     1  UNL1        0.2328
     10 O           3.8473   -9.7758  -28.1614 O.2     1  UNL1       -0.2712
     11 N           4.1543  -11.7959  -29.1872 N.am    1  UNL1       -0.2981
     12 C           4.4896  -12.7018  -30.2999 C.3     1  UNL1        0.0153
     13 C           4.5239  -14.1318  -29.7347 C.3     1  UNL1       -0.0308
     14 C           3.7104  -14.0633  -28.4301 C.3     1  UNL1       -0.0003
     15 C           4.1955  -15.0543  -27.3378 C.3     1  UNL1        0.0524
     16 O           5.5406  -14.7302  -26.9264 O.3     1  UNL1       -0.3749
     17 C           6.5539  -15.6906  -27.2788 C.3     1  UNL1        0.0727
     18 C           6.6848  -16.7012  -26.1492 C.ar    1  UNL1       -0.0219
     19 C           5.5796  -17.4812  -25.7568 C.ar    1  UNL1       -0.0564
     20 C           5.7050  -18.4089  -24.7100 C.ar    1  UNL1       -0.0614
     21 C           6.9359  -18.5643  -24.0510 C.ar    1  UNL1       -0.0617
     22 C           8.0401  -17.7911  -24.4404 C.ar    1  UNL1       -0.0614
     23 C           7.9154  -16.8619  -25.4856 C.ar    1  UNL1       -0.0564
     24 C           3.8227  -12.5896  -27.9920 C.3     1  UNL1        0.0199
     25 H           5.8688   -7.4166  -32.1518 H       1  UNL1        0.0461
     26 H           3.6408  -10.9421  -31.9134 H       1  UNL1        0.0620
     27 H           5.4465  -12.4455  -30.7045 H       1  UNL1        0.0465
     28 H           3.7649  -12.6225  -31.0831 H       1  UNL1        0.0465
     29 H           5.5309  -14.4332  -29.5348 H       1  UNL1        0.0284
     30 H           4.1214  -14.8458  -30.4226 H       1  UNL1        0.0284
     31 H           2.6961  -14.3666  -28.5856 H       1  UNL1        0.0339
     32 H           4.1770  -16.0492  -27.7310 H       1  UNL1        0.0563
     33 H           3.5462  -14.9821  -26.4903 H       1  UNL1        0.0563
     34 H           7.4886  -15.1905  -27.4241 H       1  UNL1        0.0610
     35 H           6.2817  -16.1909  -28.1846 H       1  UNL1        0.0610
     36 H           4.6746  -17.3706  -26.2403 H       1  UNL1        0.0621
     37 H           4.8921  -18.9770  -24.4246 H       1  UNL1        0.0618
     38 H           7.0278  -19.2460  -23.2817 H       1  UNL1        0.0618
     39 H           8.9452  -17.9055  -23.9579 H       1  UNL1        0.0618
     40 H           8.7296  -16.2945  -25.7685 H       1  UNL1        0.0621
     41 H           4.5943  -12.4845  -27.2582 H       1  UNL1        0.0468
     42 H           2.9030  -12.2540  -27.5601 H       1  UNL1        0.0468
@<TRIPOS>BOND
     1     1     2   ar
     2     2     3   ar
     3     2     4    1
     4     4     5    2
     5     5     6    1
     6     6     7    1
     7     7     8    2
     8     4     8    1
     9     7     9    1
    10     9    10    2
    11     9    11   am
    12    11    12    1
    13    12    13    1
    14    13    14    1
    15    14    15    1
    16    15    16    1
    17    16    17    1
    18    17    18    1
    19    18    19   ar
    20    19    20   ar
    21    20    21   ar
    22    21    22   ar
    23    22    23   ar
    24    18    23   ar
    25    14    24    1
    26    11    24    1
    27     5    25    1
    28     8    26    1
    29    12    27    1
    30    12    28    1
    31    13    29    1
    32    13    30    1
    33    14    31    1
    34    15    32    1
    35    15    33    1
    36    17    34    1
    37    17    35    1
    38    19    36    1
    39    20    37    1
    40    21    38    1
    41    22    39    1
    42    23    40    1
    43    24    41    1
    44    24    42    1
@<TRIPOS>SUBSTRUCTURE
     1 UNL1        1 TEMP              0 ****  ****    0 ROOT


