##########                                Name: HTS1710-01968294-01
##########                    Molecular_Weight:             364.469
##########                DOCK_Rotatable_Bonds:                   8
##########                       Formal_Charge:                  -2
##########                     HBond_Acceptors:                  13
##########                        HBond_Donors:                   0
##########                         Heavy_Atoms:                  19
##########                          Grid_Score:          -79.335754
##########                     Grid_vdw_energy:          -40.389828
##########                      Grid_es_energy:          -38.945927
##########           Internal_energy_repulsive:            9.932531

@<TRIPOS>MOLECULE
HTS1710-01968294-01
 27 27 1 0 0
SMALL
USER_CHARGES


@<TRIPOS>ATOM
      1 S           4.5679  -10.1432  -35.6947 S.3     1  UNL1       -0.0798
      2 S           3.9412  -11.2808  -28.6722 S.3     1  UNL1       -0.0798
      3 S           2.1056  -12.6195  -33.0025 S.2     1  UNL1       -0.0331
      4 C           0.8750  -13.0161  -34.1711 C.ar    1  UNL1        0.1593
      5 C           1.3770  -13.8913  -32.0592 C.ar    1  UNL1        0.1593
      6 N           0.3477  -14.5146  -32.6061 N.ar    1  UNL1       -0.1339
      7 N           0.0552  -14.0014  -33.8561 N.ar    1  UNL1       -0.1339
      8 C           3.2726  -12.0373  -30.1784 C.3     1  UNL1        0.0640
      9 C           3.2985  -11.4113  -35.9577 C.3     1  UNL1        0.0640
     10 O           4.2561   -9.1356  -36.6939 O.co2   1  UNL1       -0.7245
     11 O           4.5410  -10.0507  -29.1593 O.co2   1  UNL1       -0.7245
     12 O           4.8897  -12.2672  -28.1843 O.2     1  UNL1       -0.1853
     13 O           4.3399   -9.7288  -34.3211 O.2     1  UNL1       -0.1853
     14 O           5.8148  -10.8562  -35.9151 O.2     1  UNL1       -0.1853
     15 O           2.7684  -11.0933  -27.8333 O.2     1  UNL1       -0.1853
     16 S           1.8619  -14.4138  -30.4496 S.3     1  UNL1       -0.0954
     17 S           0.6361  -12.2349  -35.7291 S.3     1  UNL1       -0.0954
     18 C           3.4802  -13.5660  -30.2123 C.3     1  UNL1        0.0187
     19 C           1.8772  -10.8746  -35.6724 C.3     1  UNL1        0.0187
     20 H           3.7621  -11.6053  -31.0261 H       1  UNL1        0.0498
     21 H           2.2190  -11.8512  -30.1962 H       1  UNL1        0.0498
     22 H           3.4938  -12.2365  -35.3050 H       1  UNL1        0.0498
     23 H           3.3389  -11.7121  -36.9838 H       1  UNL1        0.0498
     24 H           3.9159  -13.8854  -29.2887 H       1  UNL1        0.0396
     25 H           4.1306  -13.8150  -31.0246 H       1  UNL1        0.0396
     26 H           1.8608  -10.4258  -34.7012 H       1  UNL1        0.0396
     27 H           1.6278  -10.1532  -36.4222 H       1  UNL1        0.0396
@<TRIPOS>BOND
     1     2     8    1
     2     3     4   ar
     3     4    17    1
     4     3     5   ar
     5     6     7   ar
     6     4     7   ar
     7     8    18    1
     8     1     9    1
     9     1    10    1
    10     2    11    1
    11     2    12    2
    12     1    13    2
    13     1    14    2
    14     2    15    2
    15     5    16    1
    16    17    19    1
    17    16    18    1
    18     9    19    1
    19     5     6   ar
    20     8    20    1
    21     8    21    1
    22     9    22    1
    23     9    23    1
    24    18    24    1
    25    18    25    1
    26    19    26    1
    27    19    27    1
@<TRIPOS>SUBSTRUCTURE
     1 UNL1        1 TEMP              0 ****  ****    0 ROOT


