##########                                Name: HTS1710-01267784-01
##########                    Molecular_Weight:             376.343
##########                DOCK_Rotatable_Bonds:                  10
##########                       Formal_Charge:                  -2
##########                     HBond_Acceptors:                   9
##########                        HBond_Donors:                   3
##########                         Heavy_Atoms:                  27
##########                          Grid_Score:          -75.923813
##########                     Grid_vdw_energy:          -44.213036
##########                      Grid_es_energy:          -31.710777
##########           Internal_energy_repulsive:           16.471359

@<TRIPOS>MOLECULE
HTS1710-01267784-01
 45 46 1 0 0
SMALL
USER_CHARGES


@<TRIPOS>ATOM
      1 C           1.3502   -9.1186  -34.7351 C.2     1  UNL1       -0.0632
      2 C           0.9590   -8.5542  -35.9408 C.2     1  UNL1        0.1533
      3 C           0.1334   -7.3371  -35.9907 C.2     1  UNL1        0.2183
      4 C           2.2061  -10.3765  -34.6958 C.3     1  UNL1        0.0080
      5 O           0.9935   -8.5974  -33.5043 O.co2   1  UNL1       -0.7831
      6 C          -0.2094   -6.8319  -34.6623 C.2     1  UNL1       -0.0222
      7 C           0.2160   -7.4602  -33.5132 C.2     1  UNL1       -0.1173
      8 C           2.8267  -10.5822  -33.3100 C.ar    1  UNL1       -0.0368
      9 C           3.7734   -9.6719  -32.7999 C.ar    1  UNL1       -0.0126
     10 C           4.3400   -9.8666  -31.5223 C.ar    1  UNL1        0.1618
     11 C           4.5470  -11.1399  -35.4031 C.2     1  UNL1        0.2113
     12 C           3.2862  -10.3700  -35.8134 C.3     1  UNL1        0.0336
     13 C           3.9610  -10.9823  -30.7503 C.ar    1  UNL1        0.1624
     14 C           2.8497  -12.0721  -27.9827 C.2     1  UNL1        0.0789
     15 O          -0.2345   -6.7989  -37.0215 O.2     1  UNL1       -0.2841
     16 O           4.5438  -11.1541  -29.5073 O.3     1  UNL1       -0.4826
     17 C           2.4441  -11.6856  -32.5257 C.ar    1  UNL1       -0.0543
     18 O           4.5668  -12.3539  -35.3081 O.2     1  UNL1       -0.2760
     19 O           2.4626  -10.9248  -27.8421 O.co2   1  UNL1       -0.5463
     20 O           1.2789   -9.0443  -37.1594 O.2     1  UNL1       -0.5038
     21 C           3.0066  -11.8888  -31.2571 C.ar    1  UNL1       -0.0160
     22 C           4.2293  -12.2562  -28.6319 C.3     1  UNL1        0.1288
     23 N           5.7096  -10.4418  -35.1411 N.am    1  UNL1       -0.3293
     24 O           2.2534  -13.0680  -27.6105 O.co2   1  UNL1       -0.5463
     25 O           5.2669   -8.9833  -30.9955 O.3     1  UNL1       -0.4914
     26 C          -0.1680   -6.9000  -32.1688 C.3     1  UNL1       -0.0529
     27 C           5.6939   -7.7903  -31.6757 C.3     1  UNL1        0.0790
     28 H           1.5628  -11.2100  -34.8866 H       1  UNL1        0.0392
     29 H          -0.7868   -5.9802  -34.5835 H       1  UNL1        0.0648
     30 H           4.0547   -8.8558  -33.3653 H       1  UNL1        0.0658
     31 H           2.8762  -10.8229  -36.6919 H       1  UNL1        0.0367
     32 H           3.5660   -9.3533  -35.9947 H       1  UNL1        0.0367
     33 H           1.7434  -12.3515  -32.8871 H       1  UNL1        0.0622
     34 H           1.0553   -8.5628  -37.9316 H       1  UNL1        0.2923
     35 H           2.7212  -12.7042  -30.6926 H       1  UNL1        0.0655
     36 H           4.2302  -13.1637  -29.1987 H       1  UNL1        0.0760
     37 H           4.9663  -12.2951  -27.8572 H       1  UNL1        0.0760
     38 H           6.5253  -10.9256  -34.8768 H       1  UNL1        0.1449
     39 H           5.7226   -9.4605  -35.2186 H       1  UNL1        0.1449
     40 H          -0.7670   -6.0239  -32.3054 H       1  UNL1        0.0266
     41 H           0.7162   -6.6459  -31.6225 H       1  UNL1        0.0266
     42 H          -0.7262   -7.6321  -31.6236 H       1  UNL1        0.0266
     43 H           6.4109   -7.2734  -31.0729 H       1  UNL1        0.0660
     44 H           4.8493   -7.1563  -31.8479 H       1  UNL1        0.0660
     45 H           6.1390   -8.0537  -32.6124 H       1  UNL1        0.0660
@<TRIPOS>BOND
     1     1     2    2
     2     2     3    1
     3     1     4    1
     4     1     5    1
     5     6     7    2
     6     5     7    1
     7     4     8    1
     8     8     9   ar
     9     9    10   ar
    10    11    12    1
    11     4    12    1
    12    13    21   ar
    13    14    22    1
    14     3    15    2
    15    13    16    1
    16     8    17   ar
    17    11    18    2
    18    14    19   ar
    19     2    20    1
    20    17    21   ar
    21    16    22    1
    22    11    23   am
    23    14    24   ar
    24    10    25    1
    25     7    26    1
    26    25    27    1
    27     3     6    1
    28    10    13   ar
    29     4    28    1
    30     6    29    1
    31     9    30    1
    32    12    31    1
    33    12    32    1
    34    17    33    1
    35    20    34    1
    36    21    35    1
    37    22    36    1
    38    22    37    1
    39    23    38    1
    40    23    39    1
    41    26    40    1
    42    26    41    1
    43    26    42    1
    44    27    43    1
    45    27    44    1
    46    27    45    1
@<TRIPOS>SUBSTRUCTURE
     1 UNL1        1 TEMP              0 ****  ****    0 ROOT


