HTS1710-02004788-01
 OpenBabel03232612343D

 44 46  0  0  1  0  0  0  0  0999 V2000
    3.4590  -10.7539  -29.7877 C   0  0  0  0  0  0  0  0  0  0  0  0
    4.0980  -10.2845  -31.9984 N   0  0  0  0  0  0  0  0  0  0  0  0
    3.4611   -9.4190  -29.9982 C   0  0  0  0  0  0  0  0  0  0  0  0
    3.8559   -9.0772  -31.3715 C   0  0  0  0  0  0  0  0  0  0  0  0
    3.8442  -11.4409  -31.1040 C   0  0  2  0  0  0  0  0  0  0  0  0
    3.1501  -11.5746  -28.5702 C   0  0  0  0  0  0  0  0  0  0  0  0
    4.5120  -10.4740  -33.3995 C   0  0  0  0  0  0  0  0  0  0  0  0
    2.7525  -12.3659  -31.6369 C   0  0  0  0  0  0  0  0  0  0  0  0
    5.7650   -9.6441  -33.7542 C   0  0  0  0  0  0  0  0  0  0  0  0
    5.5150   -8.7395  -34.9654 C   0  0  0  0  0  0  0  0  0  0  0  0
    3.9554   -7.9672  -31.8664 O   0  0  0  0  0  0  0  0  0  0  0  0
    4.0766  -12.6865  -28.1772 C   0  0  0  0  0  0  0  0  0  0  0  0
    2.1479  -11.3664  -27.9069 O   0  0  0  0  0  0  0  0  0  0  0  0
    3.1342   -8.4431  -29.1199 O   0  5  0  0  0  0  0  0  0  0  0  0
    0.6559  -12.6107  -32.8298 N   0  0  0  0  0  0  0  0  0  0  0  0
    4.7255   -9.1352  -35.8058 O   0  5  0  0  0  0  0  0  0  0  0  0
    5.4159  -12.4181  -27.8387 C   0  0  0  0  0  0  0  0  0  0  0  0
    3.6223  -14.0167  -28.1965 C   0  0  0  0  0  0  0  0  0  0  0  0
    5.8214  -14.7984  -27.4943 C   0  0  0  0  0  0  0  0  0  0  0  0
    6.1132   -7.6784  -34.9994 O   0  0  0  0  0  0  0  0  0  0  0  0
    4.4889  -15.0659  -27.8508 C   0  0  0  0  0  0  0  0  0  0  0  0
    6.2857  -13.4656  -27.4919 C   0  0  0  0  0  0  0  0  0  0  0  0
    1.6527  -11.8433  -32.3441 C   0  0  0  0  0  0  0  0  0  0  0  0
    6.6345  -15.8651  -27.1621 O   0  0  0  0  0  0  0  0  0  0  0  0
    2.8116  -13.7571  -31.4296 C   0  0  0  0  0  0  0  0  0  0  0  0
    0.7181  -13.9420  -32.6232 C   0  0  0  0  0  0  0  0  0  0  0  0
    6.1317  -17.1964  -26.9528 C   0  0  0  0  0  0  0  0  0  0  0  0
    1.7752  -14.5574  -31.9314 C   0  0  0  0  0  0  0  0  0  0  0  0
    4.6836  -12.0971  -31.0050 H   0  0  0  0  0  0  0  0  0  0  0  0
    3.7083  -10.1756  -34.0398 H   0  0  0  0  0  0  0  0  0  0  0  0
    4.7535  -11.5077  -33.5340 H   0  0  0  0  0  0  0  0  0  0  0  0
    6.5715  -10.3106  -33.9785 H   0  0  0  0  0  0  0  0  0  0  0  0
    6.0054   -9.0239  -32.9160 H   0  0  0  0  0  0  0  0  0  0  0  0
    5.7615  -11.4457  -27.8453 H   0  0  0  0  0  0  0  0  0  0  0  0
    2.6476  -14.2230  -28.4658 H   0  0  0  0  0  0  0  0  0  0  0  0
    4.1453  -16.0390  -27.8587 H   0  0  0  0  0  0  0  0  0  0  0  0
    7.2641  -13.2605  -27.2353 H   0  0  0  0  0  0  0  0  0  0  0  0
    1.6074  -10.8239  -32.4982 H   0  0  0  0  0  0  0  0  0  0  0  0
    3.6022  -14.1797  -30.9183 H   0  0  0  0  0  0  0  0  0  0  0  0
   -0.0436  -14.5344  -32.9891 H   0  0  0  0  0  0  0  0  0  0  0  0
    6.9429  -17.8494  -26.7070 H   0  0  0  0  0  0  0  0  0  0  0  0
    5.6539  -17.5418  -27.8457 H   0  0  0  0  0  0  0  0  0  0  0  0
    5.4245  -17.1885  -26.1499 H   0  0  0  0  0  0  0  0  0  0  0  0
    1.7885  -15.5803  -31.7951 H   0  0  0  0  0  0  0  0  0  0  0  0
  1  3  2  0  0  0  0
  1  5  1  0  0  0  0
  1  6  1  0  0  0  0
  2  4  1  0  0  0  0
  2  5  1  0  0  0  0
  2  7  1  0  0  0  0
  3  4  1  0  0  0  0
  3 14  1  0  0  0  0
  4 11  2  0  0  0  0
  5  8  1  0  0  0  0
  5 29  1  1  0  0  0
  6 12  1  0  0  0  0
  6 13  2  0  0  0  0
  7  9  1  0  0  0  0
  7 30  1  0  0  0  0
  7 31  1  0  0  0  0
  8 23  2  0  0  0  0
  8 25  1  0  0  0  0
  9 10  1  0  0  0  0
  9 32  1  0  0  0  0
  9 33  1  0  0  0  0
 10 16  1  0  0  0  0
 10 20  2  0  0  0  0
 12 17  2  0  0  0  0
 12 18  1  0  0  0  0
 15 23  1  0  0  0  0
 15 26  2  0  0  0  0
 17 22  1  0  0  0  0
 17 34  1  0  0  0  0
 18 21  2  0  0  0  0
 18 35  1  0  0  0  0
 19 21  1  0  0  0  0
 19 22  2  0  0  0  0
 19 24  1  0  0  0  0
 21 36  1  0  0  0  0
 22 37  1  0  0  0  0
 23 38  1  0  0  0  0
 24 27  1  0  0  0  0
 25 28  2  0  0  0  0
 25 39  1  0  0  0  0
 26 28  1  0  0  0  0
 26 40  1  0  0  0  0
 27 41  1  0  0  0  0
 27 42  1  0  0  0  0
 27 43  1  0  0  0  0
 28 44  1  0  0  0  0
M  CHG  2  14  -1  16  -1
M  END
$$$$
