HTS1710-05163103-01
 OpenBabel03232612363D

 43 44  0  0  0  0  0  0  0  0999 V2000
    1.0790   -9.3761  -34.1925 C   0  0  0  0  0  0  0  0  0  0  0  0
    1.7972  -10.6954  -34.5647 C   0  0  0  0  0  0  0  0  0  0  0  0
    1.0559  -11.4285  -35.7066 C   0  0  0  0  0  0  0  0  0  0  0  0
    1.9562  -11.5951  -33.3596 C   0  0  0  0  0  0  0  0  0  0  0  0
    3.1658  -11.6558  -32.6324 C   0  0  0  0  0  0  0  0  0  0  0  0
    2.9806  -12.5266  -31.6007 C   0  0  0  0  0  0  0  0  0  0  0  0
    4.0214  -12.8967  -30.5940 C   0  0  0  0  0  0  0  0  0  0  0  0
    4.7841  -13.8244  -30.8095 O   0  0  0  0  0  0  0  0  0  0  0  0
    4.1115  -12.1274  -29.4231 N   0  0  0  0  0  0  0  0  0  0  0  0
    4.8213  -12.5747  -28.2038 C   0  0  0  0  0  0  0  0  0  0  0  0
    3.2012  -10.9781  -29.1869 C   0  0  0  0  0  0  0  0  0  0  0  0
    3.6126   -9.7371  -29.9443 C   0  0  0  0  0  0  0  0  0  0  0  0
    2.7760   -8.6807  -30.1876 C   0  0  0  0  0  0  0  0  0  0  0  0
    3.5694   -7.7403  -30.8996 C   0  0  0  0  0  0  0  0  0  0  0  0
    3.1253   -6.4136  -31.3931 C   0  0  0  0  0  0  0  0  0  0  0  0
    1.9257   -6.2464  -31.5298 O   0  5  0  0  0  0  0  0  0  0  0  0
    3.9709   -5.5688  -31.6311 O   0  0  0  0  0  0  0  0  0  0  0  0
    4.7994   -8.3586  -31.0015 C   0  0  0  0  0  0  0  0  0  0  0  0
    6.0193   -7.7888  -31.6789 C   0  0  0  0  0  0  0  0  0  0  0  0
    4.8864   -9.5986  -30.4249 O   0  0  0  0  0  0  0  0  0  0  0  0
    1.6922  -13.0410  -31.8077 N   0  0  0  0  0  0  0  0  0  0  0  0
    1.0484  -14.2146  -31.2000 C   0  0  0  0  0  0  0  0  0  0  0  0
    1.0639  -12.4410  -32.8774 N   0  0  0  0  0  0  0  0  0  0  0  0
    0.9828   -8.7641  -35.0648 H   0  0  0  0  0  0  0  0  0  0  0  0
    1.6504   -8.8554  -33.4527 H   0  0  0  0  0  0  0  0  0  0  0  0
    0.1073   -9.5967  -33.8026 H   0  0  0  0  0  0  0  0  0  0  0  0
    2.7765  -10.4423  -34.9138 H   0  0  0  0  0  0  0  0  0  0  0  0
    0.0716  -11.6926  -35.3809 H   0  0  0  0  0  0  0  0  0  0  0  0
    1.5943  -12.3149  -35.9699 H   0  0  0  0  0  0  0  0  0  0  0  0
    0.9891  -10.7853  -36.5591 H   0  0  0  0  0  0  0  0  0  0  0  0
    4.0316  -11.1356  -32.8438 H   0  0  0  0  0  0  0  0  0  0  0  0
    5.4569  -13.4013  -28.4442 H   0  0  0  0  0  0  0  0  0  0  0  0
    4.1075  -12.8764  -27.4659 H   0  0  0  0  0  0  0  0  0  0  0  0
    5.4127  -11.7700  -27.8199 H   0  0  0  0  0  0  0  0  0  0  0  0
    3.1983  -10.7542  -28.1406 H   0  0  0  0  0  0  0  0  0  0  0  0
    2.2302  -11.2605  -29.5364 H   0  0  0  0  0  0  0  0  0  0  0  0
    1.7854   -8.5874  -29.9137 H   0  0  0  0  0  0  0  0  0  0  0  0
    5.7884   -6.8221  -32.0750 H   0  0  0  0  0  0  0  0  0  0  0  0
    6.3211   -8.4376  -32.4745 H   0  0  0  0  0  0  0  0  0  0  0  0
    6.8143   -7.7024  -30.9681 H   0  0  0  0  0  0  0  0  0  0  0  0
    1.6475  -14.5692  -30.3875 H   0  0  0  0  0  0  0  0  0  0  0  0
    0.9495  -14.9871  -31.9338 H   0  0  0  0  0  0  0  0  0  0  0  0
    0.0797  -13.9419  -30.8366 H   0  0  0  0  0  0  0  0  0  0  0  0
  1  2  1  0  0  0  0
  1 24  1  0  0  0  0
  1 25  1  0  0  0  0
  1 26  1  0  0  0  0
  2  3  1  0  0  0  0
  2  4  1  0  0  0  0
  2 27  1  0  0  0  0
  3 28  1  0  0  0  0
  3 29  1  0  0  0  0
  3 30  1  0  0  0  0
  4  5  1  0  0  0  0
  4 23  2  0  0  0  0
  5  6  2  0  0  0  0
  5 31  1  0  0  0  0
  6  7  1  0  0  0  0
  6 21  1  0  0  0  0
  7  8  2  0  0  0  0
  7  9  1  0  0  0  0
  9 10  1  0  0  0  0
  9 11  1  0  0  0  0
 10 32  1  0  0  0  0
 10 33  1  0  0  0  0
 10 34  1  0  0  0  0
 11 12  1  0  0  0  0
 11 35  1  0  0  0  0
 11 36  1  0  0  0  0
 12 13  2  0  0  0  0
 12 20  1  0  0  0  0
 13 14  1  0  0  0  0
 13 37  1  0  0  0  0
 14 15  1  0  0  0  0
 14 18  2  0  0  0  0
 15 16  1  0  0  0  0
 15 17  2  0  0  0  0
 18 19  1  0  0  0  0
 18 20  1  0  0  0  0
 19 38  1  0  0  0  0
 19 39  1  0  0  0  0
 19 40  1  0  0  0  0
 21 22  1  0  0  0  0
 21 23  1  0  0  0  0
 22 41  1  0  0  0  0
 22 42  1  0  0  0  0
 22 43  1  0  0  0  0
M  CHG  1  16  -1
M  END
$$$$
