##########                                Name: HTS1710-00779282-01
##########                    Molecular_Weight:             315.326
##########                DOCK_Rotatable_Bonds:                   8
##########                       Formal_Charge:                  -2
##########                     HBond_Acceptors:                   6
##########                        HBond_Donors:                   0
##########                         Heavy_Atoms:                  23
##########                          Grid_Score:          -77.137077
##########                     Grid_vdw_energy:          -38.953663
##########                      Grid_es_energy:          -38.183414
##########           Internal_energy_repulsive:            7.840413

@<TRIPOS>MOLECULE
HTS1710-00779282-01
 40 41 1 0 0
SMALL
USER_CHARGES


@<TRIPOS>ATOM
      1 N           2.3596  -11.8010  -32.7557 N.ar    1  UNL1       -0.3434
      2 C           2.1647  -13.0561  -32.1442 C.ar    1  UNL1        0.0493
      3 C           1.2997  -13.7725  -32.9364 C.ar    1  UNL1       -0.0360
      4 C           1.5774  -11.7617  -33.9182 C.ar    1  UNL1        0.0196
      5 C           0.9357  -12.9677  -34.0323 C.ar    1  UNL1       -0.0404
      6 C           3.3044  -10.7307  -32.3710 C.3     1  UNL1        0.0286
      7 C           3.0018  -10.1055  -30.9900 C.3     1  UNL1        0.0048
      8 C           2.6738  -13.6580  -30.8807 C.ar    1  UNL1       -0.0013
      9 C           4.2504   -9.4557  -30.3874 C.2     1  UNL1        0.0434
     10 C           2.6862   -9.4744  -36.8347 C.2     1  UNL1        0.0421
     11 C           1.4689  -10.6114  -34.9026 C.3     1  UNL1       -0.0072
     12 O           5.1467   -9.1508  -31.1548 O.co2   1  UNL1       -0.5498
     13 O           1.8143   -8.7825  -37.3309 O.co2   1  UNL1       -0.5498
     14 C           4.0522  -13.6725  -30.5680 C.ar    1  UNL1       -0.0492
     15 C           1.7869  -14.2315  -29.9364 C.ar    1  UNL1       -0.0492
     16 C           2.2572  -10.8122  -36.2212 C.3     1  UNL1       -0.0079
     17 C           3.6329  -14.7980  -28.4491 C.ar    1  UNL1        0.1201
     18 O           4.2558   -9.2704  -29.1819 O.co2   1  UNL1       -0.5498
     19 O           3.8738   -9.2034  -36.8041 O.co2   1  UNL1       -0.5498
     20 C           4.5239  -14.2329  -29.3711 C.ar    1  UNL1       -0.0193
     21 C           2.2557  -14.7962  -28.7391 C.ar    1  UNL1       -0.0193
     22 O           4.1444  -15.3345  -27.2832 O.3     1  UNL1       -0.4951
     23 C           5.3141  -16.1707  -27.2542 C.3     1  UNL1        0.0788
     24 H           0.9731  -14.7351  -32.7582 H       1  UNL1        0.0639
     25 H           0.2941  -13.2397  -34.7934 H       1  UNL1        0.0635
     26 H           3.2591   -9.9578  -33.1095 H       1  UNL1        0.0495
     27 H           4.2751  -11.1766  -32.3079 H       1  UNL1        0.0495
     28 H           2.6543  -10.8719  -30.3291 H       1  UNL1        0.0342
     29 H           2.2559   -9.3490  -31.1181 H       1  UNL1        0.0342
     30 H           1.8377   -9.7279  -34.4249 H       1  UNL1        0.0331
     31 H           0.4364  -10.5426  -35.1748 H       1  UNL1        0.0331
     32 H           4.7258  -13.2623  -31.2337 H       1  UNL1        0.0625
     33 H           0.7738  -14.2344  -30.1328 H       1  UNL1        0.0625
     34 H           3.1304  -11.3962  -36.0176 H       1  UNL1        0.0328
     35 H           1.6174  -11.3096  -36.9198 H       1  UNL1        0.0328
     36 H           5.5357  -14.2289  -29.1682 H       1  UNL1        0.0654
     37 H           1.5885  -15.2110  -28.0700 H       1  UNL1        0.0654
     38 H           5.5174  -16.4647  -26.2457 H       1  UNL1        0.0660
     39 H           6.1502  -15.6279  -27.6429 H       1  UNL1        0.0660
     40 H           5.1449  -17.0416  -27.8524 H       1  UNL1        0.0660
@<TRIPOS>BOND
     1     1     2   ar
     2     2     3   ar
     3     1     4   ar
     4     4     5   ar
     5     1     6    1
     6     6     7    1
     7     2     8    1
     8     7     9    1
     9    10    16    1
    10     4    11    1
    11     9    12   ar
    12    10    13   ar
    13     8    14   ar
    14     8    15   ar
    15    11    16    1
    16    17    21   ar
    17     9    18   ar
    18    10    19   ar
    19    14    20   ar
    20    15    21   ar
    21    17    22    1
    22    22    23    1
    23     3     5   ar
    24    17    20   ar
    25     3    24    1
    26     5    25    1
    27     6    26    1
    28     6    27    1
    29     7    28    1
    30     7    29    1
    31    11    30    1
    32    11    31    1
    33    14    32    1
    34    15    33    1
    35    16    34    1
    36    16    35    1
    37    20    36    1
    38    21    37    1
    39    23    38    1
    40    23    39    1
    41    23    40    1
@<TRIPOS>SUBSTRUCTURE
     1 UNL1        1 TEMP              0 ****  ****    0 ROOT


