##########                                Name: HTS1710-01944899-01
##########                    Molecular_Weight:             381.342
##########                DOCK_Rotatable_Bonds:                   4
##########                       Formal_Charge:                  -3
##########                     HBond_Acceptors:                  13
##########                        HBond_Donors:                   1
##########                         Heavy_Atoms:                  23
##########                          Grid_Score:          -90.211243
##########                     Grid_vdw_energy:          -37.151451
##########                      Grid_es_energy:          -53.059792
##########           Internal_energy_repulsive:           12.346871

@<TRIPOS>MOLECULE
HTS1710-01944899-01
 28 29 1 0 0
SMALL
USER_CHARGES


@<TRIPOS>ATOM
      1 S           3.9979  -10.3521  -35.8524 S.3     1  UNL1       -0.0504
      2 S           4.2559   -9.7425  -30.3683 S.3     1  UNL1       -0.0511
      3 S          -2.2260   -6.8562  -33.9248 S.3     1  UNL1       -0.0511
      4 C           3.1788   -9.6845  -34.3522 C.ar    1  UNL1        0.0896
      5 C           1.9064   -9.0054  -34.3289 C.ar    1  UNL1        0.0476
      6 C           3.3339   -9.4867  -31.9031 C.ar    1  UNL1        0.0790
      7 C           3.8690   -9.8899  -33.1325 C.ar    1  UNL1       -0.0132
      8 C          -0.6330   -7.6952  -34.0778 C.ar    1  UNL1        0.0807
      9 C           1.1192   -8.6642  -35.4780 C.ar    1  UNL1        0.1281
     10 C           1.3799   -8.6230  -33.0611 C.ar    1  UNL1       -0.0091
     11 C          -0.1245   -8.0245  -35.3378 C.ar    1  UNL1        0.0044
     12 C           2.0879   -8.8596  -31.8739 C.ar    1  UNL1       -0.0298
     13 C           0.1325   -7.9829  -32.9438 C.ar    1  UNL1       -0.0298
     14 O          -2.6953   -7.3310  -32.6201 O.co2   1  UNL1       -0.7202
     15 O           5.4518   -8.9242  -30.5941 O.co2   1  UNL1       -0.7202
     16 O           5.1542  -11.0643  -35.3009 O.2     1  UNL1       -0.1803
     17 O           3.0005  -11.2204  -36.4861 O.2     1  UNL1       -0.1803
     18 O          -2.9899   -7.3519  -35.0742 O.2     1  UNL1       -0.1803
     19 O           4.4948  -11.1885  -30.3396 O.2     1  UNL1       -0.1803
     20 O           3.3500   -9.2331  -29.3335 O.2     1  UNL1       -0.1803
     21 O          -1.8680   -5.4343  -33.9698 O.2     1  UNL1       -0.1803
     22 O           4.3157   -9.1428  -36.6196 O.co2   1  UNL1       -0.7201
     23 O           1.5208   -8.8889  -36.7594 O.3     1  UNL1       -0.5060
     24 H           4.7927  -10.3499  -33.1506 H       1  UNL1        0.0655
     25 H          -0.6728   -7.7935  -36.1810 H       1  UNL1        0.0673
     26 H           1.6836   -8.5673  -30.9705 H       1  UNL1        0.0642
     27 H          -0.2216   -7.7228  -32.0100 H       1  UNL1        0.0642
     28 H           0.9781   -8.6203  -37.4744 H       1  UNL1        0.2922
@<TRIPOS>BOND
     1     2     6    1
     2     3     8    1
     3     1     4    1
     4     4     5   ar
     5     6     7   ar
     6     4     7   ar
     7     8    13   ar
     8     5     9   ar
     9     5    10   ar
    10     9    11   ar
    11     6    12   ar
    12    10    13   ar
    13     3    14    1
    14     2    15    1
    15     1    16    2
    16     1    17    2
    17     3    18    2
    18     2    19    2
    19     2    20    2
    20     3    21    2
    21     1    22    1
    22     9    23    1
    23    10    12   ar
    24     8    11   ar
    25     7    24    1
    26    11    25    1
    27    12    26    1
    28    13    27    1
    29    23    28    1
@<TRIPOS>SUBSTRUCTURE
     1 UNL1        1 TEMP              0 ****  ****    0 ROOT


