##########                                Name: HTS1710-00188155-01
##########                    Molecular_Weight:             347.776
##########                DOCK_Rotatable_Bonds:                   7
##########                       Formal_Charge:                  -2
##########                     HBond_Acceptors:                   9
##########                        HBond_Donors:                   1
##########                         Heavy_Atoms:                  22
##########                          Grid_Score:          -75.141434
##########                     Grid_vdw_energy:          -41.013527
##########                      Grid_es_energy:          -34.127907
##########           Internal_energy_repulsive:           12.317946

@<TRIPOS>MOLECULE
HTS1710-00188155-01
 36 36 1 0 0
SMALL
USER_CHARGES


@<TRIPOS>ATOM
      1 S           2.9416  -13.1219  -32.1054 S.O2    1  UNL1        0.0590
      2 N           3.3638  -12.1282  -30.7866 N.3     1  UNL1       -0.1812
      3 C           3.4807  -10.2897  -35.0339 C.ar    1  UNL1        0.0175
      4 C           2.9538  -12.5332  -29.4195 C.3     1  UNL1        0.0705
      5 C           2.6665  -12.0064  -33.4935 C.ar    1  UNL1        0.1060
      6 C           3.6932  -11.1581  -33.9450 C.ar    1  UNL1       -0.0251
      7 C           4.6080   -9.4007  -35.4853 C.2     1  UNL1        0.0731
      8 C           3.0647  -11.3432  -28.4478 C.2     1  UNL1        0.0605
      9 O           4.2005  -13.8315  -32.3487 O.2     1  UNL1       -0.1530
     10 O           1.7145  -13.8289  -31.7224 O.2     1  UNL1       -0.1530
     11 C           2.2126  -10.2692  -35.6605 C.ar    1  UNL1        0.0499
     12 O           5.2408   -8.8286  -34.6152 O.co2   1  UNL1       -0.5446
     13 O           3.9652  -10.5418  -28.6322 O.co2   1  UNL1       -0.5481
     14 C           1.4143  -11.9852  -34.1279 C.ar    1  UNL1       -0.0339
     15 C           1.1886  -11.1174  -35.2057 C.ar    1  UNL1       -0.0409
     16 C           3.7962  -13.7619  -28.9386 C.3     1  UNL1       -0.0219
     17 O           4.8225   -9.3258  -36.6831 O.co2   1  UNL1       -0.5446
     18 O           2.2360  -11.2816  -27.5560 O.co2   1  UNL1       -0.5481
     19 CL          1.8561   -9.1717  -36.9861 Cl      1  UNL1       -0.0829
     20 C           3.2361  -14.3504  -27.6030 C.3     1  UNL1       -0.0515
     21 C           5.2987  -13.3803  -28.7921 C.3     1  UNL1       -0.0606
     22 C           1.7616  -14.8099  -27.6846 C.3     1  UNL1       -0.0650
     23 H           2.9550  -11.2102  -30.9613 H       1  UNL1        0.1487
     24 H           1.9275  -12.8350  -29.4387 H       1  UNL1        0.0541
     25 H           4.6114  -11.1719  -33.4742 H       1  UNL1        0.0644
     26 H           0.6597  -12.6086  -33.8008 H       1  UNL1        0.0637
     27 H           0.2658  -11.1014  -35.6674 H       1  UNL1        0.0633
     28 H           3.7164  -14.5235  -29.6859 H       1  UNL1        0.0317
     29 H           3.3122  -13.5978  -26.8462 H       1  UNL1        0.0266
     30 H           3.8184  -15.2202  -27.3810 H       1  UNL1        0.0266
     31 H           5.4023  -12.6182  -28.0482 H       1  UNL1        0.0233
     32 H           5.6673  -13.0169  -29.7286 H       1  UNL1        0.0233
     33 H           5.8590  -14.2434  -28.4990 H       1  UNL1        0.0233
     34 H           1.1378  -13.9692  -27.9060 H       1  UNL1        0.0230
     35 H           1.4680  -15.2348  -26.7475 H       1  UNL1        0.0230
     36 H           1.6588  -15.5435  -28.4568 H       1  UNL1        0.0230
@<TRIPOS>BOND
     1     1     2    1
     2     3     6   ar
     3     2     4    1
     4     1     5    1
     5     5     6   ar
     6     3     7    1
     7     4     8    1
     8     1     9    2
     9     1    10    2
    10    11    15   ar
    11     7    12   ar
    12     8    13   ar
    13     5    14   ar
    14    14    15   ar
    15     4    16    1
    16     7    17   ar
    17     8    18   ar
    18    11    19    1
    19    16    20    1
    20    16    21    1
    21    20    22    1
    22     3    11   ar
    23     2    23    1
    24     4    24    1
    25     6    25    1
    26    14    26    1
    27    15    27    1
    28    16    28    1
    29    20    29    1
    30    20    30    1
    31    21    31    1
    32    21    32    1
    33    21    33    1
    34    22    34    1
    35    22    35    1
    36    22    36    1
@<TRIPOS>SUBSTRUCTURE
     1 UNL1        1 TEMP              0 ****  ****    0 ROOT


