##########                                Name: HTS1710-01243136-01
##########                    Molecular_Weight:             395.368
##########                DOCK_Rotatable_Bonds:                   7
##########                       Formal_Charge:                  -2
##########                     HBond_Acceptors:                   8
##########                        HBond_Donors:                   0
##########                         Heavy_Atoms:                  29
##########                          Grid_Score:          -76.940872
##########                     Grid_vdw_energy:          -41.206009
##########                      Grid_es_energy:          -35.734859
##########           Internal_energy_repulsive:           13.483387

@<TRIPOS>MOLECULE
HTS1710-01243136-01
 46 48 1 0 0
SMALL
USER_CHARGES


@<TRIPOS>ATOM
      1 C           4.4129  -11.3547  -31.3945 C.2     1  UNL1        0.0223
      2 N           4.7259  -10.5612  -33.6276 N.am    1  UNL1       -0.2781
      3 C           4.6256  -10.0823  -32.2375 C.3     1  UNL1        0.0839
      4 C           4.2486  -12.4781  -32.3656 C.2     1  UNL1        0.2451
      5 C           4.5084  -11.9122  -33.7704 C.2     1  UNL1        0.2877
      6 C           4.3466  -11.3384  -30.0263 C.2     1  UNL1       -0.0919
      7 C           3.5196   -9.0337  -32.0544 C.ar    1  UNL1        0.0194
      8 C           3.8112   -7.6769  -31.7781 C.ar    1  UNL1        0.1288
      9 C           5.0564   -9.6269  -34.7170 C.3     1  UNL1        0.0554
     10 C           2.1775   -9.4406  -32.1664 C.ar    1  UNL1       -0.0495
     11 C           2.7574   -6.7471  -31.6309 C.ar    1  UNL1        0.0221
     12 C           3.8388   -9.4306  -35.6217 C.2     1  UNL1        0.0591
     13 O           4.5180  -12.5534  -34.8071 O.2     1  UNL1       -0.2664
     14 O           3.8931  -13.6232  -32.1503 O.2     1  UNL1       -0.2820
     15 C           4.0828  -12.4742  -29.0823 C.ar    1  UNL1       -0.0323
     16 O           2.7412   -9.4711  -35.0948 O.co2   1  UNL1       -0.5482
     17 O           4.5556  -10.1637  -29.3843 O.co2   1  UNL1       -0.8730
     18 C           1.4162   -7.1673  -31.7551 C.ar    1  UNL1        0.1236
     19 C           1.1351   -8.5153  -32.0200 C.ar    1  UNL1       -0.0194
     20 O           5.1333   -7.2878  -31.6587 O.3     1  UNL1       -0.4946
     21 O           4.0519   -9.2418  -36.8074 O.co2   1  UNL1       -0.5482
     22 O           0.3530   -6.2931  -31.6264 O.3     1  UNL1       -0.4950
     23 C           4.7622  -13.7052  -29.2395 C.ar    1  UNL1       -0.0552
     24 C           3.1079  -12.3787  -28.0653 C.ar    1  UNL1       -0.0552
     25 C           5.5826   -5.9295  -31.8024 C.3     1  UNL1        0.0788
     26 C           0.4856   -4.9711  -31.0729 C.3     1  UNL1        0.0788
     27 C           2.8591  -13.4560  -27.1999 C.ar    1  UNL1       -0.0612
     28 C           4.5151  -14.7813  -28.3709 C.ar    1  UNL1       -0.0612
     29 C           3.5693  -14.6560  -27.3452 C.ar    1  UNL1       -0.0617
     30 H           5.5073   -9.5608  -31.9286 H       1  UNL1        0.0603
     31 H           5.8657  -10.0251  -35.2926 H       1  UNL1        0.0526
     32 H           5.3400   -8.6839  -34.2984 H       1  UNL1        0.0526
     33 H           1.9584  -10.4306  -32.3584 H       1  UNL1        0.0623
     34 H           2.9695   -5.7570  -31.4318 H       1  UNL1        0.0691
     35 H           0.1554   -8.8276  -32.1076 H       1  UNL1        0.0654
     36 H           5.4486  -13.8141  -30.0024 H       1  UNL1        0.0623
     37 H           2.5704  -11.5044  -27.9565 H       1  UNL1        0.0623
     38 H           6.6430   -5.8883  -31.6658 H       1  UNL1        0.0660
     39 H           5.1042   -5.3160  -31.0678 H       1  UNL1        0.0660
     40 H           5.3348   -5.5735  -32.7805 H       1  UNL1        0.0660
     41 H          -0.4679   -4.4857  -31.0764 H       1  UNL1        0.0660
     42 H           1.1760   -4.4051  -31.6628 H       1  UNL1        0.0660
     43 H           0.8473   -5.0396  -30.0683 H       1  UNL1        0.0660
     44 H           2.1513  -13.3642  -26.4545 H       1  UNL1        0.0618
     45 H           5.0319  -15.6668  -28.4888 H       1  UNL1        0.0618
     46 H           3.3961  -15.4427  -26.7001 H       1  UNL1        0.0618
@<TRIPOS>BOND
     1     2     3    1
     2     1     3    1
     3     1     4    1
     4     4     5    1
     5     1     6    2
     6     3     7    1
     7     7     8   ar
     8     2     9    1
     9     7    10   ar
    10     8    11   ar
    11     9    12    1
    12     5    13    2
    13     4    14    2
    14     6    15    1
    15    12    16   ar
    16     6    17    1
    17    18    19   ar
    18    10    19   ar
    19     8    20    1
    20    12    21   ar
    21    18    22    1
    22    15    23   ar
    23    15    24   ar
    24    20    25    1
    25    22    26    1
    26    24    27   ar
    27    23    28   ar
    28    27    29   ar
    29     2     5   am
    30    28    29   ar
    31    11    18   ar
    32     3    30    1
    33     9    31    1
    34     9    32    1
    35    10    33    1
    36    11    34    1
    37    19    35    1
    38    23    36    1
    39    24    37    1
    40    25    38    1
    41    25    39    1
    42    25    40    1
    43    26    41    1
    44    26    42    1
    45    26    43    1
    46    27    44    1
    47    28    45    1
    48    29    46    1
@<TRIPOS>SUBSTRUCTURE
     1 UNL1        1 TEMP              0 ****  ****    0 ROOT


