HTS1710-05033487-01
 OpenBabel03232612353D

 45 47  0  0  0  0  0  0  0  0999 V2000
    3.3202  -15.1429  -27.8095 C   0  0  0  0  0  0  0  0  0  0  0  0
    3.9660  -13.4762  -27.5091 S   0  0  0  0  0  0  0  0  0  0  0  0
    5.3913  -13.5331  -27.2300 O   0  0  0  0  0  0  0  0  0  0  0  0
    3.0566  -12.8711  -26.5501 O   0  0  0  0  0  0  0  0  0  0  0  0
    3.7435  -12.6912  -28.9814 N   0  0  0  0  0  0  0  0  0  0  0  0
    3.7893  -11.2075  -28.9210 C   0  0  0  0  0  0  0  0  0  0  0  0
    3.2922  -10.5514  -30.2309 C   0  0  0  0  0  0  0  0  0  0  0  0
    4.0795  -11.0904  -31.4507 C   0  0  0  0  0  0  0  0  0  0  0  0
    3.9934  -12.6370  -31.4858 C   0  0  0  0  0  0  0  0  0  0  0  0
    4.4779  -13.2451  -30.1490 C   0  0  0  0  0  0  0  0  0  0  0  0
    3.6716  -10.4598  -32.7432 N   0  0  0  0  0  0  0  0  0  0  0  0
    4.5342   -9.3470  -33.2238 C   0  0  0  0  0  0  0  0  0  0  0  0
    4.7900   -8.3503  -32.0889 C   0  0  0  0  0  0  0  0  0  0  0  0
    4.0125   -7.4183  -31.9822 O   0  5  0  0  0  0  0  0  0  0  0  0
    5.7517   -8.5556  -31.3695 O   0  0  0  0  0  0  0  0  0  0  0  0
    2.3973  -10.6252  -33.3117 C   0  0  0  0  0  0  0  0  0  0  0  0
    1.5316  -11.2820  -32.7569 O   0  0  0  0  0  0  0  0  0  0  0  0
    2.1262   -9.9379  -34.6066 C   0  0  0  0  0  0  0  0  0  0  0  0
    2.8296   -9.9524  -35.8075 C   0  0  0  0  0  0  0  0  0  0  0  0
    2.3201   -9.1425  -36.8010 O   0  0  0  0  0  0  0  0  0  0  0  0
    1.2472   -8.5479  -36.2015 C   0  0  0  0  0  0  0  0  0  0  0  0
    0.3864   -7.6145  -36.7909 C   0  0  0  0  0  0  0  0  0  0  0  0
   -0.6671   -7.1029  -36.0083 C   0  0  0  0  0  0  0  0  0  0  0  0
   -0.8348   -7.5288  -34.6703 C   0  0  0  0  0  0  0  0  0  0  0  0
    0.0467   -8.4717  -34.1030 C   0  0  0  0  0  0  0  0  0  0  0  0
    1.0887   -8.9679  -34.9011 C   0  0  0  0  0  0  0  0  0  0  0  0
    3.4181  -15.7290  -26.9196 H   0  0  0  0  0  0  0  0  0  0  0  0
    3.8735  -15.6024  -28.6017 H   0  0  0  0  0  0  0  0  0  0  0  0
    2.2880  -15.0813  -28.0843 H   0  0  0  0  0  0  0  0  0  0  0  0
    4.7991  -10.9012  -28.7443 H   0  0  0  0  0  0  0  0  0  0  0  0
    3.1414  -10.8918  -28.1302 H   0  0  0  0  0  0  0  0  0  0  0  0
    3.4285   -9.4921  -30.1661 H   0  0  0  0  0  0  0  0  0  0  0  0
    2.2566  -10.7872  -30.3604 H   0  0  0  0  0  0  0  0  0  0  0  0
    5.1050  -10.8107  -31.3285 H   0  0  0  0  0  0  0  0  0  0  0  0
    4.6076  -13.0045  -32.2812 H   0  0  0  0  0  0  0  0  0  0  0  0
    2.9734  -12.9200  -31.6413 H   0  0  0  0  0  0  0  0  0  0  0  0
    5.5203  -13.0340  -30.0322 H   0  0  0  0  0  0  0  0  0  0  0  0
    4.2952  -14.2988  -30.1822 H   0  0  0  0  0  0  0  0  0  0  0  0
    4.0457   -8.8446  -34.0325 H   0  0  0  0  0  0  0  0  0  0  0  0
    5.4695   -9.7473  -33.5554 H   0  0  0  0  0  0  0  0  0  0  0  0
    3.6741  -10.5293  -35.9451 H   0  0  0  0  0  0  0  0  0  0  0  0
    0.5195   -7.3108  -37.7682 H   0  0  0  0  0  0  0  0  0  0  0  0
   -1.3199   -6.4139  -36.4134 H   0  0  0  0  0  0  0  0  0  0  0  0
   -1.6085   -7.1464  -34.1046 H   0  0  0  0  0  0  0  0  0  0  0  0
   -0.0712   -8.7881  -33.1279 H   0  0  0  0  0  0  0  0  0  0  0  0
  1  2  1  0  0  0  0
  1 27  1  0  0  0  0
  1 28  1  0  0  0  0
  1 29  1  0  0  0  0
  2  3  2  0  0  0  0
  2  4  2  0  0  0  0
  2  5  1  0  0  0  0
  5  6  1  0  0  0  0
  5 10  1  0  0  0  0
  6  7  1  0  0  0  0
  6 30  1  0  0  0  0
  6 31  1  0  0  0  0
  7  8  1  0  0  0  0
  7 32  1  0  0  0  0
  7 33  1  0  0  0  0
  8  9  1  0  0  0  0
  8 11  1  0  0  0  0
  8 34  1  0  0  0  0
  9 10  1  0  0  0  0
  9 35  1  0  0  0  0
  9 36  1  0  0  0  0
 10 37  1  0  0  0  0
 10 38  1  0  0  0  0
 11 12  1  0  0  0  0
 11 16  1  0  0  0  0
 12 13  1  0  0  0  0
 12 39  1  0  0  0  0
 12 40  1  0  0  0  0
 13 14  1  0  0  0  0
 13 15  2  0  0  0  0
 16 17  2  0  0  0  0
 16 18  1  0  0  0  0
 18 19  2  0  0  0  0
 18 26  1  0  0  0  0
 19 20  1  0  0  0  0
 19 41  1  0  0  0  0
 20 21  1  0  0  0  0
 21 22  2  0  0  0  0
 21 26  1  0  0  0  0
 22 23  1  0  0  0  0
 22 42  1  0  0  0  0
 23 24  2  0  0  0  0
 23 43  1  0  0  0  0
 24 25  1  0  0  0  0
 24 44  1  0  0  0  0
 25 26  2  0  0  0  0
 25 45  1  0  0  0  0
M  CHG  1  14  -1
M  END
$$$$
