##########                                Name: HTS1710-01341836-01
##########                    Molecular_Weight:             319.338
##########                DOCK_Rotatable_Bonds:                   6
##########                       Formal_Charge:                  -2
##########                     HBond_Acceptors:                   7
##########                        HBond_Donors:                   0
##########                         Heavy_Atoms:                  22
##########                          Grid_Score:          -76.058510
##########                     Grid_vdw_energy:          -36.717842
##########                      Grid_es_energy:          -39.340668
##########           Internal_energy_repulsive:            8.046494

@<TRIPOS>MOLECULE
HTS1710-01341836-01
 35 36 1 0 0
SMALL
USER_CHARGES


@<TRIPOS>ATOM
      1 C           2.2577  -11.3393  -35.9467 C.3     1  UNL1        0.0788
      2 O           1.1807  -12.1057  -35.3795 O.3     1  UNL1       -0.4951
      3 C           1.2365  -12.6548  -34.1121 C.ar    1  UNL1        0.1208
      4 C           0.3617  -13.7067  -33.8083 C.ar    1  UNL1       -0.0179
      5 C           0.3836  -14.2988  -32.5390 C.ar    1  UNL1       -0.0322
      6 C           1.2752  -13.8566  -31.5449 C.ar    1  UNL1        0.0725
      7 N           1.2648  -14.4489  -30.3314 N.ar    1  UNL1       -0.2518
      8 C           2.1103  -14.0183  -29.3770 C.ar    1  UNL1        0.0400
      9 C           2.0433  -14.7299  -28.0339 C.3     1  UNL1       -0.0223
     10 C           3.0198  -12.9728  -29.5927 C.ar    1  UNL1       -0.0266
     11 C           3.0663  -12.3528  -30.8501 C.ar    1  UNL1        0.0195
     12 S           4.2408  -11.0258  -31.1294 S.3     1  UNL1       -0.1149
     13 C           3.2961   -9.4720  -30.7608 C.3     1  UNL1        0.0542
     14 C           3.7096   -8.3109  -31.7104 C.3     1  UNL1        0.0042
     15 C           5.2233   -8.0499  -31.7090 C.2     1  UNL1        0.0431
     16 O           5.8682   -8.5011  -30.7786 O.co2   1  UNL1       -0.5498
     17 O           5.6779   -7.3958  -32.6316 O.co2   1  UNL1       -0.5498
     18 C           3.4163   -9.1283  -29.2620 C.2     1  UNL1        0.0553
     19 O           4.2503   -9.7191  -28.5966 O.co2   1  UNL1       -0.5487
     20 O           2.6618   -8.2707  -28.8368 O.co2   1  UNL1       -0.5487
     21 C           2.1640  -12.7914  -31.8492 C.ar    1  UNL1        0.0173
     22 C           2.1358  -12.1944  -33.1292 C.ar    1  UNL1       -0.0097
     23 H           1.9879  -11.0196  -36.9316 H       1  UNL1        0.0660
     24 H           3.1384  -11.9449  -35.9970 H       1  UNL1        0.0660
     25 H           2.4479  -10.4834  -35.3334 H       1  UNL1        0.0660
     26 H          -0.3012  -14.0465  -34.5226 H       1  UNL1        0.0655
     27 H          -0.2659  -15.0730  -32.3295 H       1  UNL1        0.0640
     28 H           1.2921  -15.4909  -28.0705 H       1  UNL1        0.0292
     29 H           1.7988  -14.0238  -27.2680 H       1  UNL1        0.0292
     30 H           2.9920  -15.1754  -27.8185 H       1  UNL1        0.0292
     31 H           3.6479  -12.6630  -28.8347 H       1  UNL1        0.0647
     32 H           2.2569   -9.6324  -30.9591 H       1  UNL1        0.0480
     33 H           3.2087   -7.4186  -31.3975 H       1  UNL1        0.0339
     34 H           3.4328   -8.5941  -32.7044 H       1  UNL1        0.0339
     35 H           2.7778  -11.4161  -33.3461 H       1  UNL1        0.0661
@<TRIPOS>BOND
     1     1     2    1
     2     2     3    1
     3     3     4   ar
     4     4     5   ar
     5     5     6   ar
     6     6     7   ar
     7     7     8   ar
     8     8     9    1
     9     8    10   ar
    10    10    11   ar
    11    11    12    1
    12    12    13    1
    13    13    14    1
    14    14    15    1
    15    15    16   ar
    16    15    17   ar
    17    13    18    1
    18    18    19   ar
    19    18    20   ar
    20    11    21   ar
    21     6    21   ar
    22    21    22   ar
    23     3    22   ar
    24     1    23    1
    25     1    24    1
    26     1    25    1
    27     4    26    1
    28     5    27    1
    29     9    28    1
    30     9    29    1
    31     9    30    1
    32    10    31    1
    33    13    32    1
    34    14    33    1
    35    14    34    1
    36    22    35    1
@<TRIPOS>SUBSTRUCTURE
     1 UNL1        1 TEMP              0 ****  ****    0 ROOT


