##########                                Name: HTS1710-01264767-01
##########                    Molecular_Weight:             402.357
##########                DOCK_Rotatable_Bonds:                  10
##########                       Formal_Charge:                  -2
##########                     HBond_Acceptors:                   9
##########                        HBond_Donors:                   4
##########                         Heavy_Atoms:                  29
##########                          Grid_Score:          -78.832047
##########                     Grid_vdw_energy:          -41.828270
##########                      Grid_es_energy:          -37.003780
##########           Internal_energy_repulsive:           12.953421

@<TRIPOS>MOLECULE
HTS1710-01264767-01
 47 49 1 0 0
SMALL
USER_CHARGES


@<TRIPOS>ATOM
      1 C           1.4847   -8.5342  -32.7121 C.2     1  UNL1       -0.0603
      2 C           3.7080   -7.6992  -31.7795 C.2     1  UNL1       -0.0603
      3 C           2.4797   -8.5787  -31.5644 C.3     1  UNL1        0.0154
      4 C           0.1747   -8.1369  -32.4970 C.2     1  UNL1        0.1535
      5 C           4.8784   -8.1637  -32.3758 C.2     1  UNL1        0.1535
      6 C           6.0506   -7.2911  -32.5535 C.2     1  UNL1        0.2184
      7 C          -0.7999   -8.0623  -33.5960 C.2     1  UNL1        0.2184
      8 O           3.5644   -6.4062  -31.3106 O.co2   1  UNL1       -0.7814
      9 O           1.9758   -8.8952  -33.9541 O.co2   1  UNL1       -0.7814
     10 C           5.8362   -5.9409  -32.0412 C.2     1  UNL1       -0.0198
     11 C          -0.2223   -8.4334  -34.8873 C.2     1  UNL1       -0.0198
     12 C           2.8325  -10.0147  -31.1547 C.ar    1  UNL1       -0.0342
     13 C           1.0959   -8.8157  -35.0122 C.2     1  UNL1       -0.0884
     14 C           4.6465   -5.5657  -31.4568 C.2     1  UNL1       -0.0884
     15 C           3.6918  -10.2863  -30.0690 C.ar    1  UNL1       -0.0159
     16 O           7.0988   -7.6433  -33.0692 O.2     1  UNL1       -0.2841
     17 O          -1.9644   -7.7257  -33.4606 O.2     1  UNL1       -0.2841
     18 O           5.0807   -9.4252  -32.8213 O.2     1  UNL1       -0.5038
     19 O          -0.3276   -7.7796  -31.2923 O.2     1  UNL1       -0.5038
     20 C           4.0078  -11.6181  -29.7211 C.ar    1  UNL1        0.1204
     21 C           2.3005  -11.0917  -31.8911 C.ar    1  UNL1       -0.0575
     22 C           1.6465   -9.1779  -36.3660 C.3     1  UNL1        0.0566
     23 C           4.4862   -4.1657  -30.9272 C.3     1  UNL1        0.0566
     24 O           4.8454  -11.9241  -28.6657 O.3     1  UNL1       -0.4951
     25 O           1.2480   -8.2279  -37.3488 O.3     1  UNL1       -0.3915
     26 O           3.5479   -4.1295  -29.8567 O.3     1  UNL1       -0.3915
     27 C           2.6123  -12.4143  -31.5467 C.ar    1  UNL1       -0.0580
     28 C           3.4629  -12.6774  -30.4636 C.ar    1  UNL1       -0.0199
     29 C           4.5663  -12.9758  -27.7235 C.3     1  UNL1        0.0788
     30 H           1.9750   -8.1402  -30.7290 H       1  UNL1        0.0425
     31 H           6.5972   -5.2482  -32.1192 H       1  UNL1        0.0649
     32 H          -0.8189   -8.4085  -35.7291 H       1  UNL1        0.0649
     33 H           4.0923   -9.5061  -29.5252 H       1  UNL1        0.0657
     34 H           4.4061  -10.0689  -32.7281 H       1  UNL1        0.2923
     35 H          -1.2073   -7.4638  -31.2265 H       1  UNL1        0.2923
     36 H           1.6757  -10.9052  -32.6911 H       1  UNL1        0.0621
     37 H           1.2817  -10.1443  -36.6451 H       1  UNL1        0.0596
     38 H           2.7150   -9.1829  -36.3098 H       1  UNL1        0.0596
     39 H           4.1416   -3.5304  -31.7161 H       1  UNL1        0.0596
     40 H           5.4337   -3.8289  -30.5615 H       1  UNL1        0.0596
     41 H           0.2801   -8.2133  -37.4106 H       1  UNL1        0.2098
     42 H           3.4443   -3.2156  -29.5483 H       1  UNL1        0.2098
     43 H           2.2150  -13.1957  -32.0914 H       1  UNL1        0.0619
     44 H           3.6890  -13.6523  -30.2116 H       1  UNL1        0.0654
     45 H           5.3530  -13.0245  -26.9999 H       1  UNL1        0.0660
     46 H           4.4994  -13.9098  -28.2411 H       1  UNL1        0.0660
     47 H           3.6388  -12.7748  -27.2290 H       1  UNL1        0.0660
@<TRIPOS>BOND
     1     2     3    1
     2     1     3    1
     3     1     4    2
     4     2     5    2
     5     5     6    1
     6     4     7    1
     7     2     8    1
     8     1     9    1
     9    10    14    2
    10    11    13    2
    11     3    12    1
    12     9    13    1
    13     8    14    1
    14    12    15   ar
    15     6    16    2
    16     7    17    2
    17     5    18    1
    18     4    19    1
    19    15    20   ar
    20    12    21   ar
    21    13    22    1
    22    14    23    1
    23    20    24    1
    24    22    25    1
    25    23    26    1
    26    21    27   ar
    27    27    28   ar
    28    24    29    1
    29     7    11    1
    30    20    28   ar
    31     6    10    1
    32     3    30    1
    33    10    31    1
    34    11    32    1
    35    15    33    1
    36    18    34    1
    37    19    35    1
    38    21    36    1
    39    22    37    1
    40    22    38    1
    41    23    39    1
    42    23    40    1
    43    25    41    1
    44    26    42    1
    45    27    43    1
    46    28    44    1
    47    29    45    1
    48    29    46    1
    49    29    47    1
@<TRIPOS>SUBSTRUCTURE
     1 UNL1        1 TEMP              0 ****  ****    0 ROOT


