##########                                Name: HTS1710-04581838-01
##########                    Molecular_Weight:             321.287
##########                DOCK_Rotatable_Bonds:                   7
##########                       Formal_Charge:                  -2
##########                     HBond_Acceptors:                   8
##########                        HBond_Donors:                   1
##########                         Heavy_Atoms:                  23
##########                          Grid_Score:          -74.959793
##########                     Grid_vdw_energy:          -41.884678
##########                      Grid_es_energy:          -33.075119
##########           Internal_energy_repulsive:           11.647315

@<TRIPOS>MOLECULE
HTS1710-04581838-01
 38 39 1 0 0
SMALL
USER_CHARGES


@<TRIPOS>ATOM
      1 C           4.7724   -9.4090  -32.5419 C.2     1  UNL1        0.0473
      2 C           5.1846   -8.4898  -31.5999 C.2     1  UNL1       -0.1069
      3 C           5.0116  -13.7795  -27.9617 C.2     1  UNL1       -0.0269
      4 C           4.6796  -15.0553  -27.5487 C.2     1  UNL1       -0.0131
      5 O           4.7641   -8.7281  -30.3181 O.co2   1  UNL1       -0.7844
      6 C           4.0064  -10.3432  -31.7965 C.2     1  UNL1       -0.0579
      7 C           5.6467  -15.9705  -26.9442 C.2     1  UNL1        0.2187
      8 C           7.0030  -15.3846  -26.8289 C.2     1  UNL1        0.1527
      9 C           5.0481   -9.4457  -33.9947 C.2     1  UNL1        0.3380
     10 O           6.2917  -13.2794  -27.8324 O.co2   1  UNL1       -0.7796
     11 C           4.0035  -12.8681  -28.5577 C.2     1  UNL1        0.2305
     12 C           4.0477   -9.8780  -30.5081 C.2     1  UNL1       -0.0998
     13 C           7.2492  -14.1004  -27.2713 C.2     1  UNL1       -0.0867
     14 N           4.3306  -11.5313  -28.7557 N.am    1  UNL1       -0.3093
     15 O           5.3268  -17.0909  -26.5855 O.2     1  UNL1       -0.2841
     16 O           5.6785   -8.5821  -34.5837 O.2     1  UNL1       -0.2450
     17 O           2.8944  -13.2611  -28.8841 O.2     1  UNL1       -0.2714
     18 C           3.3933  -10.5634  -29.3387 C.3     1  UNL1        0.0242
     19 O           8.0737  -16.0639  -26.2888 O.2     1  UNL1       -0.4924
     20 O           4.5232  -10.5456  -34.6157 O.3     1  UNL1       -0.4645
     21 C           6.0415   -7.2824  -31.8805 C.3     1  UNL1       -0.0523
     22 C           7.9826  -17.3080  -25.5699 C.3     1  UNL1        0.0789
     23 C           4.7411  -10.7346  -36.0260 C.3     1  UNL1        0.0820
     24 H           3.7067  -15.3765  -27.6722 H       1  UNL1        0.0653
     25 H           3.5250  -11.1860  -32.1472 H       1  UNL1        0.0617
     26 H           8.2083  -13.7313  -27.1768 H       1  UNL1        0.0492
     27 H           5.2276  -11.2211  -28.4941 H       1  UNL1        0.1493
     28 H           3.1268   -9.8353  -28.6012 H       1  UNL1        0.0500
     29 H           2.5123  -11.0727  -29.6694 H       1  UNL1        0.0500
     30 H           6.2782   -7.2477  -32.9234 H       1  UNL1        0.0266
     31 H           6.9453   -7.3465  -31.3115 H       1  UNL1        0.0266
     32 H           5.5092   -6.3957  -31.6059 H       1  UNL1        0.0266
     33 H           8.9604  -17.6140  -25.2613 H       1  UNL1        0.0660
     34 H           7.5584  -18.0570  -26.2054 H       1  UNL1        0.0660
     35 H           7.3613  -17.1775  -24.7085 H       1  UNL1        0.0660
     36 H           4.2640  -11.6384  -36.3427 H       1  UNL1        0.0661
     37 H           5.7916  -10.7993  -36.2191 H       1  UNL1        0.0661
     38 H           4.3297   -9.9066  -36.5646 H       1  UNL1        0.0661
@<TRIPOS>BOND
     1     1     2    2
     2     3    11    1
     3     3     4    2
     4     2     5    1
     5     1     6    1
     6     4     7    1
     7     8    13    2
     8     1     9    1
     9     3    10    1
    10    11    14   am
    11     6    12    2
    12    10    13    1
    13    14    18    1
    14     7    15    2
    15     9    16    2
    16    11    17    2
    17    12    18    1
    18     8    19    1
    19     9    20    1
    20     2    21    1
    21    19    22    1
    22    20    23    1
    23     5    12    1
    24     7     8    1
    25     4    24    1
    26     6    25    1
    27    13    26    1
    28    14    27    1
    29    18    28    1
    30    18    29    1
    31    21    30    1
    32    21    31    1
    33    21    32    1
    34    22    33    1
    35    22    34    1
    36    22    35    1
    37    23    36    1
    38    23    37    1
    39    23    38    1
@<TRIPOS>SUBSTRUCTURE
     1 UNL1        1 TEMP              0 ****  ****    0 ROOT


