HTS1710-02542285-01
 OpenBabel03232612353D

 36 37  0  0  0  0  0  0  0  0999 V2000
    5.3104   -8.9433  -32.3930 C   0  0  0  0  0  0  0  0  0  0  0  0
   -0.7052   -7.2007  -35.6106 C   0  0  0  0  0  0  0  0  0  0  0  0
    1.0453   -8.8139  -36.2624 C   0  0  0  0  0  0  0  0  0  0  0  0
    4.7397  -11.0373  -33.5720 C   0  0  0  0  0  0  0  0  0  0  0  0
    4.0629  -10.7168  -31.2419 N   0  0  0  0  0  0  0  0  0  0  0  0
   -0.4430   -9.3106  -34.3836 N   0  0  0  0  0  0  0  0  0  0  0  0
   -1.1359   -8.1335  -34.5362 C   0  0  0  0  0  0  0  0  0  0  0  0
    4.6227   -9.4624  -31.1817 C   0  0  0  0  0  0  0  0  0  0  0  0
    0.3526   -7.5555  -36.4403 C   0  0  0  0  0  0  0  0  0  0  0  0
    5.3522   -9.7246  -33.5429 C   0  0  0  0  0  0  0  0  0  0  0  0
    0.6043   -9.6303  -35.2233 C   0  0  0  0  0  0  0  0  0  0  0  0
    4.1206  -11.4667  -32.3981 C   0  0  0  0  0  0  0  0  0  0  0  0
   -1.3892   -5.8831  -35.8193 C   0  0  0  0  0  0  0  0  0  0  0  0
    5.9642   -7.5933  -32.3939 C   0  0  0  0  0  0  0  0  0  0  0  0
    4.8028  -11.8137  -34.7732 C   0  0  0  0  0  0  0  0  0  0  0  0
    2.1361   -9.1493  -37.1272 C   0  0  0  0  0  0  0  0  0  0  0  0
    3.0356   -9.4011  -37.8106 N   0  0  0  0  0  0  0  0  0  0  0  0
    4.8257  -12.4278  -35.7542 N   0  0  0  0  0  0  0  0  0  0  0  0
    4.5149   -8.8662  -30.1243 O   0  0  0  0  0  0  0  0  0  0  0  0
   -2.0621   -7.9403  -33.7676 O   0  0  0  0  0  0  0  0  0  0  0  0
    6.6531   -7.2972  -33.3548 O   0  5  0  0  0  0  0  0  0  0  0  0
   -0.9718   -5.1623  -36.7104 O   0  5  0  0  0  0  0  0  0  0  0  0
    1.5145  -11.1195  -34.9457 S   0  0  0  0  0  0  0  0  0  0  0  0
    3.3873  -13.0780  -32.4067 S   0  0  0  0  0  0  0  0  0  0  0  0
   -2.3251   -5.5865  -35.0995 O   0  0  0  0  0  0  0  0  0  0  0  0
    5.7865   -6.8540  -31.4418 O   0  0  0  0  0  0  0  0  0  0  0  0
    1.6014  -12.6869  -32.6433 C   0  0  0  0  0  0  0  0  0  0  0  0
    1.3853  -11.2309  -33.1124 C   0  0  0  0  0  0  0  0  0  0  0  0
    3.6138  -11.0855  -30.4471 H   0  0  0  0  0  0  0  0  0  0  0  0
   -0.6973   -9.9341  -33.6654 H   0  0  0  0  0  0  0  0  0  0  0  0
    0.6476   -6.9136  -37.1925 H   0  0  0  0  0  0  0  0  0  0  0  0
    5.8256   -9.3647  -34.3863 H   0  0  0  0  0  0  0  0  0  0  0  0
    1.0903  -12.8300  -31.7142 H   0  0  0  0  0  0  0  0  0  0  0  0
    1.2177  -13.3385  -33.4003 H   0  0  0  0  0  0  0  0  0  0  0  0
    0.4136  -10.9030  -32.8071 H   0  0  0  0  0  0  0  0  0  0  0  0
    2.1384  -10.6102  -32.6736 H   0  0  0  0  0  0  0  0  0  0  0  0
  1  8  1  0  0  0  0
  1 10  2  0  0  0  0
  1 14  1  0  0  0  0
  2  7  1  0  0  0  0
  2  9  2  0  0  0  0
  2 13  1  0  0  0  0
  3  9  1  0  0  0  0
  3 11  2  0  0  0  0
  3 16  1  0  0  0  0
  4 10  1  0  0  0  0
  4 12  2  0  0  0  0
  4 15  1  0  0  0  0
  5  8  1  0  0  0  0
  5 12  1  0  0  0  0
  5 29  1  0  0  0  0
  6  7  1  0  0  0  0
  6 11  1  0  0  0  0
  6 30  1  0  0  0  0
  7 20  2  0  0  0  0
  8 19  2  0  0  0  0
  9 31  1  0  0  0  0
 10 32  1  0  0  0  0
 11 23  1  0  0  0  0
 12 24  1  0  0  0  0
 13 22  1  0  0  0  0
 13 25  2  0  0  0  0
 14 21  1  0  0  0  0
 14 26  2  0  0  0  0
 15 18  3  0  0  0  0
 16 17  3  0  0  0  0
 23 28  1  0  0  0  0
 24 27  1  0  0  0  0
 27 28  1  0  0  0  0
 27 33  1  0  0  0  0
 27 34  1  0  0  0  0
 28 35  1  0  0  0  0
 28 36  1  0  0  0  0
M  CHG  2  21  -1  22  -1
M  END
$$$$
