##########                                Name: HTS1710-01134657-01
##########                    Molecular_Weight:             347.776
##########                DOCK_Rotatable_Bonds:                   9
##########                       Formal_Charge:                  -2
##########                     HBond_Acceptors:                   9
##########                        HBond_Donors:                   1
##########                         Heavy_Atoms:                  22
##########                          Grid_Score:          -79.057922
##########                     Grid_vdw_energy:          -39.897015
##########                      Grid_es_energy:          -39.160908
##########           Internal_energy_repulsive:            9.195399

@<TRIPOS>MOLECULE
HTS1710-01134657-01
 36 36 1 0 0
SMALL
USER_CHARGES


@<TRIPOS>ATOM
      1 S           1.2634  -10.6748  -34.1901 S.O2    1  UNL1        0.0598
      2 C           2.9776  -10.1029  -34.0530 C.ar    1  UNL1        0.1241
      3 C           3.3081   -9.1906  -33.0301 C.ar    1  UNL1       -0.0251
      4 C           4.6269   -8.7114  -32.8783 C.ar    1  UNL1       -0.0007
      5 C           4.9715   -7.7331  -31.7774 C.2     1  UNL1        0.0717
      6 C           3.9874  -10.5377  -34.9417 C.ar    1  UNL1        0.0673
      7 O           0.5688  -10.3320  -32.9450 O.2     1  UNL1       -0.1530
      8 O           0.7074  -10.3596  -35.5101 O.2     1  UNL1       -0.1530
      9 N           1.3452  -12.3718  -34.1188 N.3     1  UNL1       -0.1899
     10 C           3.5978  -11.3267  -28.4558 C.2     1  UNL1        0.0417
     11 O           4.2452   -6.7628  -31.6373 O.co2   1  UNL1       -0.5446
     12 C           5.6199   -9.1613  -33.7721 C.ar    1  UNL1       -0.0514
     13 O           4.5593  -10.6506  -28.7784 O.co2   1  UNL1       -0.5498
     14 C           5.2996  -10.0659  -34.7944 C.ar    1  UNL1       -0.0409
     15 O           5.9545   -7.9729  -31.0972 O.co2   1  UNL1       -0.5446
     16 CL          3.6559  -11.6508  -36.2611 Cl      1  UNL1       -0.0815
     17 O           2.5018  -10.8960  -28.1441 O.co2   1  UNL1       -0.5498
     18 C           3.7757  -12.8501  -28.4654 C.3     1  UNL1       -0.0132
     19 C           1.2526  -12.9952  -32.7889 C.3     1  UNL1        0.0174
     20 C           3.9302  -13.4020  -29.9022 C.3     1  UNL1       -0.0479
     21 C           2.6134  -12.9284  -32.0547 C.3     1  UNL1       -0.0388
     22 C           2.5690  -13.5352  -30.6284 C.3     1  UNL1       -0.0515
     23 H           2.5733   -8.8678  -32.3814 H       1  UNL1        0.0644
     24 H           2.2360  -12.6534  -34.5282 H       1  UNL1        0.1480
     25 H           6.5897   -8.8224  -33.6732 H       1  UNL1        0.0624
     26 H           6.0351  -10.3869  -35.4432 H       1  UNL1        0.0633
     27 H           2.9185  -13.3017  -28.0114 H       1  UNL1        0.0325
     28 H           4.6673  -13.0840  -27.9220 H       1  UNL1        0.0325
     29 H           0.9644  -14.0196  -32.9009 H       1  UNL1        0.0441
     30 H           0.5247  -12.4646  -32.2113 H       1  UNL1        0.0441
     31 H           4.3901  -14.3668  -29.8529 H       1  UNL1        0.0269
     32 H           4.5311  -12.7113  -30.4559 H       1  UNL1        0.0269
     33 H           2.9086  -11.9027  -31.9788 H       1  UNL1        0.0278
     34 H           3.3106  -13.5066  -32.6245 H       1  UNL1        0.0278
     35 H           1.8212  -13.0247  -30.0583 H       1  UNL1        0.0266
     36 H           2.3412  -14.5768  -30.7179 H       1  UNL1        0.0266
@<TRIPOS>BOND
     1     1     2    1
     2     2     3   ar
     3     3     4   ar
     4     4     5    1
     5     2     6   ar
     6     1     7    2
     7     1     8    2
     8     1     9    1
     9    10    18    1
    10     5    11   ar
    11    12    14   ar
    12    10    13   ar
    13     6    14   ar
    14     5    15   ar
    15     6    16    1
    16    10    17   ar
    17    18    20    1
    18     9    19    1
    19    20    22    1
    20    19    21    1
    21    21    22    1
    22     4    12   ar
    23     3    23    1
    24     9    24    1
    25    12    25    1
    26    14    26    1
    27    18    27    1
    28    18    28    1
    29    19    29    1
    30    19    30    1
    31    20    31    1
    32    20    32    1
    33    21    33    1
    34    21    34    1
    35    22    35    1
    36    22    36    1
@<TRIPOS>SUBSTRUCTURE
     1 UNL1        1 TEMP              0 ****  ****    0 ROOT


