HTS1710-00497117-01
 OpenBabel03232612363D

 38 39  0  0  1  0  0  0  0  0999 V2000
    2.6201  -10.6077  -34.6099 C   0  0  0  0  0  0  0  0  0  0  0  0
    1.8235   -9.5520  -35.1842 C   0  0  0  0  0  0  0  0  0  0  0  0
    2.7015  -11.1281  -33.1974 C   0  0  0  0  0  0  0  0  0  0  0  0
    3.3963  -11.1183  -35.6533 C   0  0  0  0  0  0  0  0  0  0  0  0
    2.1423   -9.4663  -36.5034 C   0  0  0  0  0  0  0  0  0  0  0  0
    0.8715   -8.7015  -34.6071 C   0  0  0  0  0  0  0  0  0  0  0  0
    4.1725  -11.2006  -32.6948 C   0  0  2  0  0  0  0  0  0  0  0  0
    3.0938  -10.4029  -36.8306 N   0  0  0  0  0  0  0  0  0  0  0  0
    1.5549   -8.5326  -37.3625 C   0  0  0  0  0  0  0  0  0  0  0  0
    0.2540   -7.7440  -35.4390 C   0  0  0  0  0  0  0  0  0  0  0  0
    4.2666  -11.7976  -31.3497 N   0  0  0  0  0  0  0  0  0  0  0  0
    4.9421   -9.8638  -32.7742 C   0  0  0  0  0  0  0  0  0  0  0  0
    0.5945   -7.6584  -36.8111 C   0  0  0  0  0  0  0  0  0  0  0  0
    3.9748  -13.1237  -31.0476 C   0  0  0  0  0  0  0  0  0  0  0  0
    4.6645   -9.0248  -31.9347 O   0  5  0  0  0  0  0  0  0  0  0  0
    5.7850   -9.7301  -33.6454 O   0  0  0  0  0  0  0  0  0  0  0  0
    4.1204  -13.6015  -29.5942 C   0  0  2  0  0  0  0  0  0  0  0  0
    3.6289  -13.8981  -31.9238 O   0  0  0  0  0  0  0  0  0  0  0  0
    3.0312  -13.0093  -28.6463 C   0  0  2  0  0  0  0  0  0  0  0  0
    5.4438  -13.3179  -29.1376 O   0  0  0  0  0  0  0  0  0  0  0  0
    3.1686  -11.4937  -28.3802 C   0  0  0  0  0  0  0  0  0  0  0  0
    3.0289  -13.7099  -27.3989 O   0  0  0  0  0  0  0  0  0  0  0  0
    4.2862  -11.0175  -28.4812 O   0  5  0  0  0  0  0  0  0  0  0  0
    2.1584  -10.8602  -28.1221 O   0  0  0  0  0  0  0  0  0  0  0  0
    2.2748  -12.1088  -33.1641 H   0  0  0  0  0  0  0  0  0  0  0  0
    2.1648  -10.4547  -32.5623 H   0  0  0  0  0  0  0  0  0  0  0  0
    4.0771  -11.8900  -35.5756 H   0  0  0  0  0  0  0  0  0  0  0  0
    0.6299   -8.7731  -33.6063 H   0  0  0  0  0  0  0  0  0  0  0  0
    4.6649  -11.8524  -33.3859 H   0  0  0  0  0  0  0  0  0  0  0  0
    3.4900  -10.5474  -37.7202 H   0  0  0  0  0  0  0  0  0  0  0  0
    1.8136   -8.4847  -38.3604 H   0  0  0  0  0  0  0  0  0  0  0  0
   -0.4509   -7.1015  -35.0451 H   0  0  0  0  0  0  0  0  0  0  0  0
    4.5572  -11.2150  -30.6112 H   0  0  0  0  0  0  0  0  0  0  0  0
    0.1379   -6.9532  -37.4105 H   0  0  0  0  0  0  0  0  0  0  0  0
    3.9611  -14.6593  -29.5721 H   0  0  0  0  0  0  0  0  0  0  0  0
    2.1033  -13.1417  -29.1624 H   0  0  0  0  0  0  0  0  0  0  0  0
    5.5860  -13.7403  -28.2761 H   0  0  0  0  0  0  0  0  0  0  0  0
    2.8912  -14.6564  -27.5600 H   0  0  0  0  0  0  0  0  0  0  0  0
  1  2  1  0  0  0  0
  1  3  1  0  0  0  0
  1  4  2  0  0  0  0
  2  5  2  0  0  0  0
  2  6  1  0  0  0  0
  3  7  1  0  0  0  0
  3 25  1  0  0  0  0
  3 26  1  0  0  0  0
  4  8  1  0  0  0  0
  4 27  1  0  0  0  0
  5  9  1  0  0  0  0
  5  8  1  0  0  0  0
  6 10  2  0  0  0  0
  6 28  1  0  0  0  0
  7 11  1  0  0  0  0
  7 12  1  0  0  0  0
  7 29  1  6  0  0  0
  8 30  1  0  0  0  0
  9 13  2  0  0  0  0
  9 31  1  0  0  0  0
 10 13  1  0  0  0  0
 10 32  1  0  0  0  0
 11 14  1  0  0  0  0
 11 33  1  0  0  0  0
 12 15  1  0  0  0  0
 12 16  2  0  0  0  0
 13 34  1  0  0  0  0
 14 17  1  0  0  0  0
 14 18  2  0  0  0  0
 17 19  1  0  0  0  0
 17 20  1  0  0  0  0
 17 35  1  1  0  0  0
 19 21  1  0  0  0  0
 19 22  1  0  0  0  0
 19 36  1  6  0  0  0
 20 37  1  0  0  0  0
 21 23  1  0  0  0  0
 21 24  2  0  0  0  0
 22 38  1  0  0  0  0
M  CHG  2  15  -1  23  -1
M  END
$$$$
