HTS1710-01930930-01
 OpenBabel03232612343D

 26 27  0  0  0  0  0  0  0  0999 V2000
    5.1195   -9.2647  -32.1164 C   0  0  0  0  0  0  0  0  0  0  0  0
    4.2240  -11.6444  -32.1177 C   0  0  0  0  0  0  0  0  0  0  0  0
    4.5160   -9.6387  -30.9363 C   0  0  0  0  0  0  0  0  0  0  0  0
    4.0349  -10.9776  -30.9323 C   0  0  0  0  0  0  0  0  0  0  0  0
    5.0592  -10.6015  -33.2739 S   0  0  0  0  0  0  0  0  0  0  0  0
    5.7268   -7.9491  -32.4344 C   0  0  0  0  0  0  0  0  0  0  0  0
    3.8174  -13.0359  -32.4127 C   0  0  0  0  0  0  0  0  0  0  0  0
    4.3554   -8.8515  -29.8255 O   0  0  0  0  0  0  0  0  0  0  0  0
    3.4433  -11.4984  -29.8111 O   0  0  0  0  0  0  0  0  0  0  0  0
    6.0498   -7.7207  -33.5870 O   0  5  0  0  0  0  0  0  0  0  0  0
    4.3130  -13.7063  -33.3044 O   0  0  0  0  0  0  0  0  0  0  0  0
    5.8668   -7.1663  -31.5100 O   0  0  0  0  0  0  0  0  0  0  0  0
    2.8234  -13.4909  -31.5870 O   0  0  0  0  0  0  0  0  0  0  0  0
    3.6102  -10.7960  -28.5602 C   0  0  0  0  0  0  0  0  0  0  0  0
    3.4246   -9.2781  -28.8073 C   0  0  0  0  0  0  0  0  0  0  0  0
    1.8864  -14.4932  -32.0332 C   0  0  0  0  0  0  0  0  0  0  0  0
    0.7540  -13.8178  -32.8389 C   0  0  0  0  0  0  0  0  0  0  0  0
    4.5909  -10.9795  -28.1735 H   0  0  0  0  0  0  0  0  0  0  0  0
    2.8846  -11.1391  -27.8526 H   0  0  0  0  0  0  0  0  0  0  0  0
    2.4236   -9.0873  -29.1334 H   0  0  0  0  0  0  0  0  0  0  0  0
    3.6070   -8.7389  -27.9012 H   0  0  0  0  0  0  0  0  0  0  0  0
    1.4700  -14.9950  -31.1848 H   0  0  0  0  0  0  0  0  0  0  0  0
    2.3920  -15.2025  -32.6545 H   0  0  0  0  0  0  0  0  0  0  0  0
    0.2483  -13.1085  -32.2176 H   0  0  0  0  0  0  0  0  0  0  0  0
    0.0593  -14.5613  -33.1698 H   0  0  0  0  0  0  0  0  0  0  0  0
    1.1703  -13.3159  -33.6873 H   0  0  0  0  0  0  0  0  0  0  0  0
  1  3  2  0  0  0  0
  1  5  1  0  0  0  0
  1  6  1  0  0  0  0
  2  4  2  0  0  0  0
  2  5  1  0  0  0  0
  2  7  1  0  0  0  0
  3  4  1  0  0  0  0
  3  8  1  0  0  0  0
  4  9  1  0  0  0  0
  6 10  1  0  0  0  0
  6 12  2  0  0  0  0
  7 11  2  0  0  0  0
  7 13  1  0  0  0  0
  8 15  1  0  0  0  0
  9 14  1  0  0  0  0
 13 16  1  0  0  0  0
 14 15  1  0  0  0  0
 14 18  1  0  0  0  0
 14 19  1  0  0  0  0
 15 20  1  0  0  0  0
 15 21  1  0  0  0  0
 16 17  1  0  0  0  0
 16 22  1  0  0  0  0
 16 23  1  0  0  0  0
 17 24  1  0  0  0  0
 17 25  1  0  0  0  0
 17 26  1  0  0  0  0
M  CHG  1  10  -1
M  END
$$$$
