##########                                Name: HTS1710-01905510-01
##########                    Molecular_Weight:             462.207
##########                DOCK_Rotatable_Bonds:                  15
##########                       Formal_Charge:                  -2
##########                     HBond_Acceptors:                  18
##########                        HBond_Donors:                   4
##########                         Heavy_Atoms:                  30
##########                          Grid_Score:          -77.516846
##########                     Grid_vdw_energy:          -43.345699
##########                      Grid_es_energy:          -34.171146
##########           Internal_energy_repulsive:           14.658436

@<TRIPOS>MOLECULE
HTS1710-01905510-01
 40 39 1 0 0
SMALL
USER_CHARGES


@<TRIPOS>ATOM
      1 C           3.8790  -10.4118  -35.6313 C.3     1  UNL1        0.3870
      2 C           3.7561  -10.6811  -34.0751 C.3     1  UNL1        0.3870
      3 C           2.5775  -10.4819  -36.5181 C.3     1  UNL1        0.3901
      4 C           3.4420  -12.1514  -33.6091 C.3     1  UNL1        0.3901
      5 C           1.2911  -10.0969  -35.7536 C.2     1  UNL1        0.2895
      6 C           2.8660  -12.1594  -32.1787 C.2     1  UNL1        0.2895
      7 N           3.6404  -11.6201  -31.1577 N.am    1  UNL1       -0.3000
      8 N           0.9152   -8.7598  -35.7055 N.am    1  UNL1       -0.3000
      9 CA         -0.2882   -8.2855  -35.0067 C.3     1  UNL1        0.0857
     10 CA          3.2086  -11.5665  -29.7535 C.3     1  UNL1        0.0857
     11 C          -1.0048   -7.2203  -35.8544 C.2     1  UNL1        0.0642
     12 C           3.7807  -10.3061  -29.0801 C.2     1  UNL1        0.0642
     13 F           2.8371   -9.8403  -33.5532 F       1  UNL1       -0.1916
     14 F           4.9384  -10.3280  -33.5138 F       1  UNL1       -0.1916
     15 F           4.3967   -9.1684  -35.7806 F       1  UNL1       -0.1916
     16 F           4.7972  -11.2600  -36.1544 F       1  UNL1       -0.1916
     17 O           0.6227  -10.9316  -35.1660 O.2     1  UNL1       -0.2690
     18 O           1.7550  -12.6023  -31.9327 O.2     1  UNL1       -0.2690
     19 F           4.5678  -12.9013  -33.6565 F       1  UNL1       -0.1884
     20 F           2.5451  -12.7427  -34.4253 F       1  UNL1       -0.1884
     21 F           2.4450  -11.7132  -37.0610 F       1  UNL1       -0.1884
     22 F           2.7319   -9.6429  -37.5716 F       1  UNL1       -0.1884
     23 O           4.8370   -9.8805  -29.5137 O.co2   1  UNL1       -0.5478
     24 O          -0.3017   -6.4453  -36.4785 O.co2   1  UNL1       -0.5478
     25 O          -2.2247   -7.2203  -35.8520 O.co2   1  UNL1       -0.5478
     26 O           3.1609   -9.8306  -28.1436 O.co2   1  UNL1       -0.5478
     27 C           3.6702  -12.8626  -29.0463 C.3     1  UNL1        0.0678
     28 C           0.1081   -7.7266  -33.6179 C.3     1  UNL1        0.0678
     29 O           5.0786  -13.0393  -29.1774 O.3     1  UNL1       -0.3928
     30 O          -1.0351   -7.2244  -32.9278 O.3     1  UNL1       -0.3928
     31 H           4.5252  -11.2547  -31.3873 H       1  UNL1        0.1496
     32 H           1.4828   -8.0976  -36.1620 H       1  UNL1        0.1496
     33 H          -0.9668   -9.1001  -34.8622 H       1  UNL1        0.0583
     34 H           2.1424  -11.5052  -29.6865 H       1  UNL1        0.0583
     35 H           3.1696  -13.6995  -29.4868 H       1  UNL1        0.0579
     36 H           3.4301  -12.7888  -28.0061 H       1  UNL1        0.0579
     37 H           0.8153   -6.9342  -33.7477 H       1  UNL1        0.0579
     38 H           0.5369   -8.5182  -33.0397 H       1  UNL1        0.0579
     39 H           5.3496  -13.8402  -28.7020 H       1  UNL1        0.2095
     40 H          -1.4080   -6.4770  -33.4209 H       1  UNL1        0.2095
@<TRIPOS>BOND
     1     1     2    1
     2     1     3    1
     3     2     4    1
     4     3     5    1
     5     4     6    1
     6     6     7   am
     7     5     8   am
     8     8     9    1
     9     7    10    1
    10     9    11    1
    11    10    12    1
    12     2    13    1
    13     2    14    1
    14     1    15    1
    15     1    16    1
    16     5    17    2
    17     6    18    2
    18     4    19    1
    19     4    20    1
    20     3    21    1
    21     3    22    1
    22    12    23   ar
    23    11    24   ar
    24    11    25   ar
    25    12    26   ar
    26    10    27    1
    27     9    28    1
    28    27    29    1
    29    28    30    1
    30     7    31    1
    31     8    32    1
    32     9    33    1
    33    10    34    1
    34    27    35    1
    35    27    36    1
    36    28    37    1
    37    28    38    1
    38    29    39    1
    39    30    40    1
@<TRIPOS>SUBSTRUCTURE
     1 UNL1        1 TEMP              0 ****  ****    0 ROOT


