##########                                Name: HTS1710-01317418-01
##########                    Molecular_Weight:              305.33
##########                DOCK_Rotatable_Bonds:                  10
##########                       Formal_Charge:                  -2
##########                     HBond_Acceptors:                   6
##########                        HBond_Donors:                   1
##########                         Heavy_Atoms:                  22
##########                          Grid_Score:          -74.840691
##########                     Grid_vdw_energy:          -37.350983
##########                      Grid_es_energy:          -37.489708
##########           Internal_energy_repulsive:            9.324086

@<TRIPOS>MOLECULE
HTS1710-01317418-01
 41 41 1 0 0
SMALL
USER_CHARGES


@<TRIPOS>ATOM
      1 C           3.6314   -9.7463  -29.2292 C.2     1  UNL1        0.0717
      2 C           2.7605   -9.1422  -37.3692 C.2     1  UNL1        0.0448
      3 C           3.4908  -11.0238  -30.0259 C.ar    1  UNL1       -0.0009
      4 C           4.5766  -11.7323  -34.3553 C.2     1  UNL1        0.2172
      5 N           3.5466  -12.2536  -33.5754 N.am    1  UNL1       -0.2855
      6 C           3.5835  -11.0068  -31.4350 C.ar    1  UNL1       -0.0316
      7 C           3.4502  -12.1990  -32.1860 C.ar    1  UNL1        0.0340
      8 O           3.0651   -9.6895  -28.1506 O.co2   1  UNL1       -0.5446
      9 O           3.8824   -8.8467  -37.7435 O.co2   1  UNL1       -0.5495
     10 O           5.5094  -11.1280  -33.8535 O.2     1  UNL1       -0.2755
     11 C           2.6548  -10.0309  -36.1118 C.3     1  UNL1       -0.0010
     12 C           3.0805  -11.5003  -36.4127 C.3     1  UNL1       -0.0368
     13 C           4.4784  -11.9071  -35.8733 C.3     1  UNL1        0.0249
     14 O           4.3030   -8.8504  -29.7135 O.co2   1  UNL1       -0.5446
     15 O           1.7259   -8.7576  -37.8875 O.co2   1  UNL1       -0.5495
     16 C           3.2753  -12.2534  -29.3709 C.ar    1  UNL1       -0.0528
     17 C           3.1691  -13.4414  -30.1070 C.ar    1  UNL1       -0.0594
     18 C           3.2657  -13.4139  -31.5054 C.ar    1  UNL1       -0.0404
     19 C           1.2580   -9.9307  -35.4278 C.3     1  UNL1       -0.0451
     20 C           0.9729   -8.5169  -34.8598 C.3     1  UNL1       -0.0527
     21 C          -0.4687   -8.3917  -34.3126 C.3     1  UNL1       -0.0559
     22 C          -0.7322   -7.0071  -33.6847 C.3     1  UNL1       -0.0653
     23 H           2.8139  -12.7054  -34.0532 H       1  UNL1        0.1548
     24 H           3.7507  -10.1133  -31.9235 H       1  UNL1        0.0642
     25 H           3.3531   -9.6503  -35.3959 H       1  UNL1        0.0361
     26 H           3.0839  -11.6332  -37.4744 H       1  UNL1        0.0276
     27 H           2.3737  -12.1239  -35.9062 H       1  UNL1        0.0276
     28 H           5.2212  -11.2952  -36.3409 H       1  UNL1        0.0359
     29 H           4.6332  -12.9414  -36.0990 H       1  UNL1        0.0359
     30 H           3.1953  -12.2789  -28.3423 H       1  UNL1        0.0624
     31 H           3.0194  -14.3382  -29.6187 H       1  UNL1        0.0618
     32 H           3.2005  -14.2944  -32.0398 H       1  UNL1        0.0636
     33 H           1.2180  -10.6371  -34.6251 H       1  UNL1        0.0271
     34 H           0.5171  -10.1367  -36.1718 H       1  UNL1        0.0271
     35 H           1.1100   -7.7973  -35.6396 H       1  UNL1        0.0265
     36 H           1.6500   -8.3437  -34.0496 H       1  UNL1        0.0265
     37 H          -0.6214   -9.1435  -33.5668 H       1  UNL1        0.0263
     38 H          -1.1446   -8.5159  -35.1327 H       1  UNL1        0.0263
     39 H          -0.0674   -6.8573  -32.8598 H       1  UNL1        0.0230
     40 H          -1.7442   -6.9583  -33.3406 H       1  UNL1        0.0230
     41 H          -0.5678   -6.2457  -34.4181 H       1  UNL1        0.0230
@<TRIPOS>BOND
     1     2    11    1
     2     1     3    1
     3     4     5   am
     4     5     7    1
     5     3     6   ar
     6     6     7   ar
     7     1     8   ar
     8     2     9   ar
     9     4    10    2
    10    11    12    1
    11    12    13    1
    12     4    13    1
    13     1    14   ar
    14     2    15   ar
    15     3    16   ar
    16    16    17   ar
    17    17    18   ar
    18    11    19    1
    19    19    20    1
    20    20    21    1
    21    21    22    1
    22     7    18   ar
    23     5    23    1
    24     6    24    1
    25    11    25    1
    26    12    26    1
    27    12    27    1
    28    13    28    1
    29    13    29    1
    30    16    30    1
    31    17    31    1
    32    18    32    1
    33    19    33    1
    34    19    34    1
    35    20    35    1
    36    20    36    1
    37    21    37    1
    38    21    38    1
    39    22    39    1
    40    22    40    1
    41    22    41    1
@<TRIPOS>SUBSTRUCTURE
     1 UNL1        1 TEMP              0 ****  ****    0 ROOT


