##########                                Name: HTS1710-01254344-01
##########                    Molecular_Weight:             389.362
##########                DOCK_Rotatable_Bonds:                   8
##########                       Formal_Charge:                  -2
##########                     HBond_Acceptors:                   9
##########                        HBond_Donors:                   3
##########                         Heavy_Atoms:                  28
##########                          Grid_Score:          -81.872932
##########                     Grid_vdw_energy:          -43.530926
##########                      Grid_es_energy:          -38.342007
##########           Internal_energy_repulsive:            9.363642

@<TRIPOS>MOLECULE
HTS1710-01254344-01
 47 49 1 0 0
SMALL
USER_CHARGES


@<TRIPOS>ATOM
      1 C           5.2847   -7.8820  -31.8028 C.2     1  UNL1       -0.0555
      2 C           5.3369   -8.7822  -32.8533 C.2     1  UNL1       -0.1089
      3 C           4.3843  -10.4987  -31.2668 C.2     1  UNL1        0.0539
      4 C           4.4047   -9.5141  -30.3160 C.2     1  UNL1       -0.0306
      5 C           4.7821  -10.1733  -32.7108 C.3     1  UNL1        0.0319
      6 O           4.7790   -8.2207  -30.5704 O.co2   1  UNL1       -0.7688
      7 C           3.6124  -10.3894  -33.6849 C.ar    1  UNL1        0.0086
      8 C           5.7621   -6.5029  -31.9715 C.2     1  UNL1        0.1708
      9 O           5.8367   -8.4796  -34.1057 O.co2   1  UNL1       -0.7839
     10 C           6.2682   -6.2255  -33.3127 C.2     1  UNL1       -0.0241
     11 C           3.9958  -11.9557  -31.0503 C.2     1  UNL1        0.3364
     12 C           6.2851   -7.1900  -34.2943 C.2     1  UNL1       -0.0886
     13 C           3.7618  -11.1795  -34.8480 C.ar    1  UNL1        0.1243
     14 C           2.3641   -9.7955  -33.4061 C.ar    1  UNL1       -0.0124
     15 N           4.0616   -9.7422  -29.0038 N.pl3   1  UNL1       -0.3685
     16 O           5.7372   -5.6659  -31.0856 O.2     1  UNL1       -0.2886
     17 O           4.5479  -12.8777  -31.6305 O.2     1  UNL1       -0.2453
     18 C           2.6624  -11.3649  -35.7143 C.ar    1  UNL1       -0.0162
     19 C           1.2713   -9.9779  -34.2779 C.ar    1  UNL1        0.1206
     20 O           2.9728  -12.1541  -30.1636 O.3     1  UNL1       -0.4646
     21 C           1.4279  -10.7662  -35.4264 C.ar    1  UNL1       -0.0165
     22 O           4.9897  -11.7593  -35.1102 O.3     1  UNL1       -0.4948
     23 C           6.8095   -6.8555  -35.6662 C.3     1  UNL1        0.0566
     24 O           0.0358   -9.4035  -34.0447 O.3     1  UNL1       -0.4951
     25 O           6.5679   -5.4885  -35.9860 O.3     1  UNL1       -0.3915
     26 C           2.7338  -13.4717  -29.6356 C.3     1  UNL1        0.0820
     27 C           5.1530  -12.9757  -35.8588 C.3     1  UNL1        0.0788
     28 C          -0.4014   -8.1941  -34.6877 C.3     1  UNL1        0.0788
     29 H           5.5629  -10.8586  -32.9671 H       1  UNL1        0.0438
     30 H           6.6228   -5.2810  -33.5304 H       1  UNL1        0.0647
     31 H           2.2495   -9.2220  -32.5558 H       1  UNL1        0.0658
     32 H           4.0981   -9.0066  -28.3505 H       1  UNL1        0.1413
     33 H           3.7794  -10.6410  -28.7179 H       1  UNL1        0.1413
     34 H           2.7680  -11.9433  -36.5624 H       1  UNL1        0.0655
     35 H           0.6290  -10.9068  -36.0644 H       1  UNL1        0.0655
     36 H           6.3206   -7.4754  -36.3884 H       1  UNL1        0.0596
     37 H           7.8656   -7.0268  -35.6784 H       1  UNL1        0.0596
     38 H           7.1493   -4.9241  -35.4527 H       1  UNL1        0.2098
     39 H           1.9021  -13.4410  -28.9630 H       1  UNL1        0.0661
     40 H           3.6036  -13.8093  -29.1118 H       1  UNL1        0.0661
     41 H           2.5179  -14.1443  -30.4393 H       1  UNL1        0.0661
     42 H           6.1933  -13.2171  -35.9245 H       1  UNL1        0.0660
     43 H           4.7544  -12.8449  -36.8432 H       1  UNL1        0.0660
     44 H           4.6328  -13.7704  -35.3661 H       1  UNL1        0.0660
     45 H          -1.3861   -7.9466  -34.3502 H       1  UNL1        0.0660
     46 H          -0.4133   -8.3381  -35.7479 H       1  UNL1        0.0660
     47 H           0.2700   -7.3976  -34.4436 H       1  UNL1        0.0660
@<TRIPOS>BOND
     1     1     2    2
     2     3     4    2
     3     4     6    1
     4     2     5    1
     5     1     6    1
     6     5     7    1
     7     1     8    1
     8     2     9    1
     9     8    10    1
    10     3    11    1
    11    10    12    2
    12     7    13   ar
    13     7    14   ar
    14     4    15    1
    15     8    16    2
    16    11    17    2
    17    13    18   ar
    18    14    19   ar
    19    11    20    1
    20    19    21   ar
    21    13    22    1
    22    12    23    1
    23    19    24    1
    24    23    25    1
    25    20    26    1
    26    22    27    1
    27    24    28    1
    28     3     5    1
    29     9    12    1
    30    18    21   ar
    31     5    29    1
    32    10    30    1
    33    14    31    1
    34    15    32    1
    35    15    33    1
    36    18    34    1
    37    21    35    1
    38    23    36    1
    39    23    37    1
    40    25    38    1
    41    26    39    1
    42    26    40    1
    43    26    41    1
    44    27    42    1
    45    27    43    1
    46    27    44    1
    47    28    45    1
    48    28    46    1
    49    28    47    1
@<TRIPOS>SUBSTRUCTURE
     1 UNL1        1 TEMP              0 ****  ****    0 ROOT


