##########                                Name: HTS1710-01401898-01
##########                    Molecular_Weight:             347.343
##########                DOCK_Rotatable_Bonds:                   8
##########                       Formal_Charge:                  -2
##########                     HBond_Acceptors:                   7
##########                        HBond_Donors:                   0
##########                         Heavy_Atoms:                  25
##########                          Grid_Score:          -78.523407
##########                     Grid_vdw_energy:          -41.377903
##########                      Grid_es_energy:          -37.145508
##########           Internal_energy_repulsive:           16.128725

@<TRIPOS>MOLECULE
HTS1710-01401898-01
 43 44 1 0 0
SMALL
USER_CHARGES


@<TRIPOS>ATOM
      1 C           4.7417   -9.7875  -32.4269 C.2     1  UNL1        0.0168
      2 N           3.3277  -11.1742  -31.1674 N.am    1  UNL1       -0.2872
      3 C           4.9233   -9.5582  -31.1101 C.2     1  UNL1       -0.0358
      4 C           4.0845  -10.4320  -30.2783 C.2     1  UNL1        0.2329
      5 C           3.6529  -10.8505  -32.5798 C.3     1  UNL1        0.0822
      6 C           2.4466  -10.3775  -33.3945 C.ar    1  UNL1        0.0127
      7 C           5.2494   -9.0620  -33.6291 C.2     1  UNL1        0.1579
      8 O           4.0503  -10.4994  -29.0611 O.2     1  UNL1       -0.2712
      9 C           1.8323  -11.1949  -34.3694 C.ar    1  UNL1        0.1287
     10 C           6.0154  -14.2665  -27.2634 C.2     1  UNL1        0.0417
     11 O           5.7480   -8.6465  -30.5456 O.co2   1  UNL1       -0.8701
     12 O           5.7729   -7.9648  -33.5378 O.2     1  UNL1       -0.2926
     13 O           6.2631  -13.2197  -27.8387 O.co2   1  UNL1       -0.5498
     14 C           2.4143  -12.2797  -30.8233 C.3     1  UNL1        0.0159
     15 F           2.2903  -12.4424  -34.6114 F       1  UNL1       -0.2051
     16 O           6.7016  -14.7663  -26.3899 O.co2   1  UNL1       -0.5498
     17 C           1.9410   -9.0818  -33.1766 C.ar    1  UNL1       -0.0537
     18 C           4.7381  -15.0332  -27.6523 C.3     1  UNL1       -0.0132
     19 C           5.2544   -9.8372  -34.9483 C.3     1  UNL1       -0.0017
     20 C           0.7378  -10.7220  -35.1101 C.ar    1  UNL1       -0.0261
     21 C           3.0815  -13.6770  -30.9001 C.3     1  UNL1       -0.0371
     22 C           3.7041  -14.2048  -28.4621 C.3     1  UNL1       -0.0479
     23 C           4.2290  -13.8581  -29.8758 C.3     1  UNL1       -0.0513
     24 C           0.8451   -8.6093  -33.9171 C.ar    1  UNL1       -0.0613
     25 C           0.2438   -9.4292  -34.8842 C.ar    1  UNL1       -0.0590
     26 H           3.9730  -11.7026  -33.1422 H       1  UNL1        0.0603
     27 H           1.5879  -12.2607  -31.5027 H       1  UNL1        0.0465
     28 H           2.1076  -12.1316  -29.8089 H       1  UNL1        0.0465
     29 H           2.3793   -8.4741  -32.4669 H       1  UNL1        0.0622
     30 H           4.2649  -15.3696  -26.7536 H       1  UNL1        0.0325
     31 H           5.0491  -15.8340  -28.2902 H       1  UNL1        0.0325
     32 H           4.7467  -10.7698  -34.8160 H       1  UNL1        0.0309
     33 H           6.2644  -10.0207  -35.2504 H       1  UNL1        0.0309
     34 H           4.7557   -9.2633  -35.7013 H       1  UNL1        0.0309
     35 H           0.2964  -11.3259  -35.8211 H       1  UNL1        0.0646
     36 H           3.4791  -13.8112  -31.8844 H       1  UNL1        0.0280
     37 H           2.3300  -14.4031  -30.6698 H       1  UNL1        0.0280
     38 H           3.4994  -13.2960  -27.9358 H       1  UNL1        0.0269
     39 H           2.8170  -14.7933  -28.5708 H       1  UNL1        0.0269
     40 H           4.8668  -14.6496  -30.2098 H       1  UNL1        0.0266
     41 H           4.7590  -12.9309  -29.8102 H       1  UNL1        0.0266
     42 H           0.4818   -7.6581  -33.7498 H       1  UNL1        0.0618
     43 H          -0.5609   -9.0812  -35.4286 H       1  UNL1        0.0618
@<TRIPOS>BOND
     1     2     5    1
     2     1     3    2
     3     3     4    1
     4     1     5    1
     5     5     6    1
     6     1     7    1
     7     4     8    2
     8     6     9   ar
     9    10    18    1
    10     3    11    1
    11     7    12    2
    12    10    13   ar
    13     2    14    1
    14     9    15    1
    15    10    16   ar
    16     6    17   ar
    17    18    22    1
    18     7    19    1
    19     9    20   ar
    20    14    21    1
    21    22    23    1
    22    21    23    1
    23    17    24   ar
    24    24    25   ar
    25     2     4   am
    26    20    25   ar
    27     5    26    1
    28    14    27    1
    29    14    28    1
    30    17    29    1
    31    18    30    1
    32    18    31    1
    33    19    32    1
    34    19    33    1
    35    19    34    1
    36    20    35    1
    37    21    36    1
    38    21    37    1
    39    22    38    1
    40    22    39    1
    41    23    40    1
    42    23    41    1
    43    24    42    1
    44    25    43    1
@<TRIPOS>SUBSTRUCTURE
     1 UNL1        1 TEMP              0 ****  ****    0 ROOT


