##########                                Name: HTS1710-01454327-01
##########                    Molecular_Weight:              327.17
##########                DOCK_Rotatable_Bonds:                   6
##########                       Formal_Charge:                  -2
##########                     HBond_Acceptors:                   7
##########                        HBond_Donors:                   1
##########                         Heavy_Atoms:                  21
##########                          Grid_Score:          -75.293343
##########                     Grid_vdw_energy:          -34.196899
##########                      Grid_es_energy:          -41.096443
##########           Internal_energy_repulsive:            7.812631

@<TRIPOS>MOLECULE
HTS1710-01454327-01
 32 33 1 0 0
SMALL
USER_CHARGES


@<TRIPOS>ATOM
      1 P           3.9430   -9.3995  -31.6121 P.3     1  UNL1        0.5190
      2 N           2.8772   -9.9995  -30.4036 N.3     1  UNL1       -0.1884
      3 P           3.3093  -10.0249  -28.7405 P.3     1  UNL1       -0.0713
      4 O           3.1397   -9.2838  -33.0152 O.3     1  UNL1       -0.4041
      5 O           4.2239   -7.8299  -31.3136 O.3     1  UNL1       -0.4041
      6 O           5.1352  -10.2895  -31.6374 O.2     1  UNL1       -0.2159
      7 O           4.7027  -10.5437  -28.7257 O.2     1  UNL1       -0.6460
      8 O           2.3431  -10.9297  -28.0633 O.co2   1  UNL1       -0.5861
      9 O           3.2049   -8.6043  -28.3152 O.co2   1  UNL1       -0.5861
     10 C           5.0446   -6.9628  -32.0053 C.ar    1  UNL1        0.1321
     11 C           2.4306  -10.2775  -33.6590 C.ar    1  UNL1        0.1321
     12 C           2.3648  -11.6000  -33.1674 C.ar    1  UNL1       -0.0194
     13 C           1.7824   -9.9532  -34.8633 C.ar    1  UNL1       -0.0194
     14 C           5.9219   -7.5090  -32.9573 C.ar    1  UNL1       -0.0194
     15 C           5.0122   -5.5648  -31.8107 C.ar    1  UNL1       -0.0194
     16 C           1.0611  -10.9309  -35.5672 C.ar    1  UNL1       -0.0583
     17 C           6.7822   -6.6764  -33.6903 C.ar    1  UNL1       -0.0583
     18 C           5.8754   -4.7339  -32.5444 C.ar    1  UNL1       -0.0583
     19 C           1.6443  -12.5764  -33.8758 C.ar    1  UNL1       -0.0583
     20 C           0.9911  -12.2432  -35.0728 C.ar    1  UNL1       -0.0615
     21 C           6.7623   -5.2896  -33.4810 C.ar    1  UNL1       -0.0615
     22 H           2.6697  -10.9649  -30.6595 H       1  UNL1        0.1397
     23 H           2.8455  -11.8489  -32.2888 H       1  UNL1        0.0654
     24 H           1.8368   -8.9910  -35.2321 H       1  UNL1        0.0654
     25 H           5.9338   -8.5282  -33.1186 H       1  UNL1        0.0654
     26 H           4.3547   -5.1535  -31.1298 H       1  UNL1        0.0654
     27 H           0.5825  -10.6850  -36.4478 H       1  UNL1        0.0619
     28 H           7.4291   -7.0847  -34.3830 H       1  UNL1        0.0619
     29 H           5.8577   -3.7129  -32.3950 H       1  UNL1        0.0619
     30 H           1.5952  -13.5419  -33.5148 H       1  UNL1        0.0619
     31 H           0.4600  -12.9621  -35.5888 H       1  UNL1        0.0618
     32 H           7.3993   -4.6779  -34.0150 H       1  UNL1        0.0618
@<TRIPOS>BOND
     1     1     2    1
     2     2     3    1
     3     1     4    1
     4     1     5    1
     5     1     6    2
     6     3     7    2
     7     3     8    1
     8     3     9    1
     9     5    10    1
    10     4    11    1
    11    11    12   ar
    12    11    13   ar
    13    10    14   ar
    14    10    15   ar
    15    13    16   ar
    16    14    17   ar
    17    15    18   ar
    18    12    19   ar
    19    16    20   ar
    20    18    21   ar
    21    17    21   ar
    22    19    20   ar
    23     2    22    1
    24    12    23    1
    25    13    24    1
    26    14    25    1
    27    15    26    1
    28    16    27    1
    29    17    28    1
    30    18    29    1
    31    19    30    1
    32    20    31    1
    33    21    32    1
@<TRIPOS>SUBSTRUCTURE
     1 UNL1        1 TEMP              0 ****  ****    0 ROOT


