##########                                Name: HTS1710-01847231-01
##########                    Molecular_Weight:             469.432
##########                DOCK_Rotatable_Bonds:                  10
##########                       Formal_Charge:                  -1
##########                     HBond_Acceptors:                  15
##########                        HBond_Donors:                   2
##########                         Heavy_Atoms:                  32
##########                          Grid_Score:          -74.946732
##########                     Grid_vdw_energy:          -48.148144
##########                      Grid_es_energy:          -26.798588
##########           Internal_energy_repulsive:           11.357952

@<TRIPOS>MOLECULE
HTS1710-01847231-01
 51 53 1 0 0
SMALL
USER_CHARGES


@<TRIPOS>ATOM
      1 N           4.4650  -10.9250  -32.3376 N.am    1  UNL1       -0.2533
      2 C           4.7379  -10.2805  -33.5351 C.2     1  UNL1        0.2438
      3 C           4.4112  -12.2486  -32.9780 C.3     1  UNL1        0.1041
      4 CA          4.3032  -11.5208  -34.3636 C.3     1  UNL1        0.1283
      5 C          -0.5612   -6.1328  -35.2556 C.ar    1  UNL1        0.2861
      6 C          -0.1497   -6.3026  -33.9019 C.ar    1  UNL1        0.3064
      7 CA          4.4075  -10.7514  -30.8869 C.2     1  UNL1        0.0631
      8 N          -1.0290   -4.9328  -35.9091 N.pl3   1  UNL1       -0.1558
      9 N           0.1986   -7.5507  -33.6404 N.ar    1  UNL1       -0.1270
     10 S           2.9796  -13.1145  -32.2278 S.3     1  UNL1       -0.1310
     11 C          -0.4448   -7.3662  -35.8328 C.ar    1  UNL1        0.1003
     12 C           4.1047  -11.8377  -30.0930 C.2     1  UNL1        0.0004
     13 N          -0.0208   -8.2142  -34.8230 N.ar    1  UNL1       -0.2610
     14 N           2.9339  -11.2989  -34.8399 N.am    1  UNL1       -0.3017
     15 C           4.6538   -9.3514  -30.3302 C.2     1  UNL1        0.0860
     16 C           2.5630  -10.2484  -35.6639 C.2     1  UNL1        0.2154
     17 C           3.8565  -13.2495  -30.6277 C.3     1  UNL1        0.0219
     18 O           5.1288   -9.1419  -33.7158 O.2     1  UNL1       -0.2731
     19 O          -1.0163   -3.8795  -35.2808 O.co2   1  UNL1       -0.6333
     20 C           1.0878  -10.1525  -36.0765 C.3     1  UNL1        0.0435
     21 O          -1.4274   -5.0387  -37.0663 O.2     1  UNL1       -0.0290
     22 C           3.9736  -11.8203  -28.5704 C.3     1  UNL1        0.1164
     23 C           4.8636  -13.9336  -27.6187 C.2     1  UNL1        0.3043
     24 C           0.1540   -9.6757  -34.9296 C.3     1  UNL1        0.0501
     25 O           3.7754   -8.7942  -29.6979 O.co2   1  UNL1       -0.5433
     26 O           5.0329  -12.6283  -28.0111 O.3     1  UNL1       -0.4603
     27 O           3.3901   -9.4234  -36.0137 O.2     1  UNL1       -0.2757
     28 O           3.7616  -14.4202  -27.4383 O.2     1  UNL1       -0.2512
     29 O          -0.1699   -5.2747  -32.9947 O.3     1  UNL1       -0.4743
     30 OXT         5.7372   -8.8398  -30.5398 O.co2   1  UNL1       -0.5433
     31 C           6.1592  -14.7426  -27.4317 C.3     1  UNL1        0.0332
     32 C           0.1088   -5.5196  -31.6062 C.3     1  UNL1        0.0807
     33 H           5.1320  -13.0387  -32.9436 H       1  UNL1        0.0644
     34 H           4.7736  -11.9116  -35.2416 H       1  UNL1        0.0622
     35 H          -1.9281   -4.8913  -35.5102 H       1  UNL1        0.4511
     36 H          -0.6335   -7.6142  -36.8166 H       1  UNL1        0.0895
     37 H           2.2367  -11.9340  -34.5573 H       1  UNL1        0.1495
     38 H           4.7906  -13.7520  -30.7687 H       1  UNL1        0.0424
     39 H           3.2670  -13.8083  -29.9311 H       1  UNL1        0.0424
     40 H           0.7626  -11.1197  -36.3983 H       1  UNL1        0.0376
     41 H           1.0258   -9.4234  -36.8571 H       1  UNL1        0.0376
     42 H           3.0238  -12.2221  -28.2851 H       1  UNL1        0.0746
     43 H           4.0465  -10.8166  -28.2070 H       1  UNL1        0.0746
     44 H          -0.8100  -10.1131  -35.0853 H       1  UNL1        0.0513
     45 H           0.6237   -9.9840  -34.0190 H       1  UNL1        0.0513
     46 H           7.0027  -14.1189  -27.6425 H       1  UNL1        0.0342
     47 H           6.1576  -15.5781  -28.1002 H       1  UNL1        0.0342
     48 H           6.2183  -15.0933  -26.4225 H       1  UNL1        0.0342
     49 H           0.0451   -4.6005  -31.0621 H       1  UNL1        0.0660
     50 H           1.0937   -5.9257  -31.5063 H       1  UNL1        0.0660
     51 H          -0.6050   -6.2149  -31.2164 H       1  UNL1        0.0660
@<TRIPOS>BOND
     1     1     2   am
     2     1     3    1
     3     1     7    1
     4     2     4    1
     5     2    18    2
     6     3     4    1
     7     3    10    1
     8     4    14    1
     9     5     6   ar
    10     5     8    1
    11     5    11   ar
    12     6     9   ar
    13     6    29    1
    14     7    12    2
    15     7    15    1
    16     8    19    1
    17     8    21    2
    18     9    13   ar
    19    10    17    1
    20    11    13   ar
    21    12    17    1
    22    12    22    1
    23    13    24    1
    24    14    16   am
    25    15    25   ar
    26    15    30   ar
    27    16    20    1
    28    16    27    2
    29    20    24    1
    30    22    26    1
    31    23    26    1
    32    23    28    2
    33    23    31    1
    34    29    32    1
    35     3    33    1
    36     4    34    1
    37     8    35    1
    38    11    36    1
    39    14    37    1
    40    17    38    1
    41    17    39    1
    42    20    40    1
    43    20    41    1
    44    22    42    1
    45    22    43    1
    46    24    44    1
    47    24    45    1
    48    31    46    1
    49    31    47    1
    50    31    48    1
    51    32    49    1
    52    32    50    1
    53    32    51    1
@<TRIPOS>SUBSTRUCTURE
     1 UNL1        1 TEMP              0 ****  ****    0 ROOT


