##########                                Name: HTS1710-02528450-01
##########                    Molecular_Weight:             347.324
##########                DOCK_Rotatable_Bonds:                   8
##########                       Formal_Charge:                  -2
##########                     HBond_Acceptors:                   8
##########                        HBond_Donors:                   0
##########                         Heavy_Atoms:                  25
##########                          Grid_Score:          -77.845741
##########                     Grid_vdw_energy:          -41.823746
##########                      Grid_es_energy:          -36.021996
##########           Internal_energy_repulsive:           11.019447

@<TRIPOS>MOLECULE
HTS1710-02528450-01
 42 43 1 0 0
SMALL
USER_CHARGES


@<TRIPOS>ATOM
      1 C           4.3683   -8.8538  -31.7271 C.ar    1  UNL1        0.1237
      2 C           5.0584   -9.3111  -33.8986 C.ar    1  UNL1        0.1237
      3 N           4.2617   -9.7142  -32.8214 N.ar    1  UNL1       -0.2989
      4 C           5.3050   -7.9179  -32.1091 C.ar    1  UNL1       -0.0825
      5 C           5.7261   -8.2000  -33.4395 C.ar    1  UNL1       -0.0825
      6 C           3.6262   -8.9518  -30.4406 C.2     1  UNL1        0.3556
      7 C           5.1721   -9.9354  -35.2475 C.2     1  UNL1        0.3556
      8 C           3.2648  -10.6780  -32.9281 C.ar    1  UNL1        0.0478
      9 O           5.7645   -6.8760  -31.3852 O.co2   1  UNL1       -0.8725
     10 O           6.6277   -7.4580  -34.1177 O.co2   1  UNL1       -0.8725
     11 O           2.9336   -8.0525  -29.9909 O.2     1  UNL1       -0.2433
     12 O           5.7923  -10.9689  -35.4406 O.2     1  UNL1       -0.2433
     13 C           3.5514  -12.0144  -32.6052 C.ar    1  UNL1       -0.0344
     14 C           1.9916  -10.3150  -33.3969 C.ar    1  UNL1       -0.0344
     15 O           4.5285   -9.2621  -36.2471 O.3     1  UNL1       -0.4604
     16 O           3.7896  -10.1518  -29.8044 O.3     1  UNL1       -0.4604
     17 C           1.2849  -12.6444  -33.2423 C.ar    1  UNL1        0.1202
     18 C           0.9999  -11.2964  -33.5538 C.ar    1  UNL1       -0.0180
     19 C           2.5608  -12.9948  -32.7637 C.ar    1  UNL1       -0.0180
     20 O           0.3489  -13.6502  -33.3969 O.3     1  UNL1       -0.4951
     21 C           3.0332  -10.4439  -28.6152 C.3     1  UNL1        0.0900
     22 C           3.1434   -9.5275  -36.5262 C.3     1  UNL1        0.0900
     23 C           0.3692  -14.8628  -32.6237 C.3     1  UNL1        0.0788
     24 C           3.3667  -11.8820  -28.1749 C.3     1  UNL1       -0.0306
     25 C           2.9733  -11.0523  -36.6604 C.3     1  UNL1       -0.0306
     26 H           4.4862  -12.2739  -32.2532 H       1  UNL1        0.0639
     27 H           1.7858   -9.3299  -33.6255 H       1  UNL1        0.0639
     28 H           0.0629  -11.0330  -33.8966 H       1  UNL1        0.0655
     29 H           2.7687  -13.9778  -32.5282 H       1  UNL1        0.0655
     30 H           1.9867  -10.3617  -28.8221 H       1  UNL1        0.0695
     31 H           3.2831   -9.7517  -27.8384 H       1  UNL1        0.0695
     32 H           2.8577   -9.0478  -37.4391 H       1  UNL1        0.0695
     33 H           2.5247   -9.1505  -35.7388 H       1  UNL1        0.0695
     34 H          -0.4487  -15.4869  -32.9176 H       1  UNL1        0.0660
     35 H           0.2805  -14.6246  -31.5843 H       1  UNL1        0.0660
     36 H           1.2909  -15.3791  -32.7939 H       1  UNL1        0.0660
     37 H           3.1123  -12.5634  -28.9597 H       1  UNL1        0.0262
     38 H           2.8066  -12.1250  -27.2961 H       1  UNL1        0.0262
     39 H           4.4129  -11.9566  -27.9630 H       1  UNL1        0.0262
     40 H           3.5978  -11.4126  -37.4510 H       1  UNL1        0.0262
     41 H           1.9513  -11.2790  -36.8816 H       1  UNL1        0.0262
     42 H           3.2526  -11.5245  -35.7417 H       1  UNL1        0.0262
@<TRIPOS>BOND
     1     1     3   ar
     2     1     4   ar
     3     1     6    1
     4     2     3   ar
     5     2     5   ar
     6     2     7    1
     7     3     8    1
     8     4     5   ar
     9     4     9    1
    10     5    10    1
    11     6    11    2
    12     6    16    1
    13     7    12    2
    14     7    15    1
    15     8    13   ar
    16     8    14   ar
    17    13    19   ar
    18    14    18   ar
    19    15    22    1
    20    16    21    1
    21    17    18   ar
    22    17    19   ar
    23    17    20    1
    24    20    23    1
    25    21    24    1
    26    22    25    1
    27    13    26    1
    28    14    27    1
    29    18    28    1
    30    19    29    1
    31    21    30    1
    32    21    31    1
    33    22    32    1
    34    22    33    1
    35    23    34    1
    36    23    35    1
    37    23    36    1
    38    24    37    1
    39    24    38    1
    40    24    39    1
    41    25    40    1
    42    25    41    1
    43    25    42    1
@<TRIPOS>SUBSTRUCTURE
     1 UNL1        1 TEMP              0 ****  ****    0 ROOT


