##########                                Name: HTS1710-01227211-01
##########                    Molecular_Weight:             368.391
##########                DOCK_Rotatable_Bonds:                   5
##########                       Formal_Charge:                  -2
##########                     HBond_Acceptors:                  10
##########                        HBond_Donors:                   4
##########                         Heavy_Atoms:                  24
##########                          Grid_Score:          -76.510727
##########                     Grid_vdw_energy:          -39.820618
##########                      Grid_es_energy:          -36.690105
##########           Internal_energy_repulsive:           10.871572

@<TRIPOS>MOLECULE
HTS1710-01227211-01
 36 37 1 0 0
SMALL
USER_CHARGES


@<TRIPOS>ATOM
      1 S           3.4119   -9.2356  -29.8232 S.3     1  UNL1       -0.0506
      2 S           3.1041  -10.0253  -36.5093 S.3     1  UNL1       -0.0506
      3 C           1.6084   -9.1243  -35.9796 C.ar    1  UNL1        0.0855
      4 C           3.0843  -10.9601  -30.3239 C.ar    1  UNL1        0.0855
      5 C           1.9343  -10.2547  -32.5131 C.2     1  UNL1       -0.0522
      6 C           1.4349  -10.4246  -33.7677 C.2     1  UNL1       -0.0522
      7 O           3.9402   -9.3935  -28.4638 O.co2   1  UNL1       -0.7201
      8 O           3.7064   -9.1036  -37.4777 O.co2   1  UNL1       -0.7201
      9 C           3.5144  -11.9945  -29.4617 C.ar    1  UNL1       -0.0166
     10 C           1.0968   -8.1242  -36.8393 C.ar    1  UNL1       -0.0166
     11 C           0.9510   -9.3828  -34.7371 C.ar    1  UNL1       -0.0010
     12 C           2.4182  -11.2951  -31.5435 C.ar    1  UNL1       -0.0010
     13 O           4.3812   -8.7363  -30.8044 O.2     1  UNL1       -0.1803
     14 O           2.0849   -8.6162  -29.9004 O.2     1  UNL1       -0.1803
     15 O           2.6058  -11.2792  -37.0826 O.2     1  UNL1       -0.1803
     16 O           3.8518  -10.1788  -35.2566 O.2     1  UNL1       -0.1803
     17 C          -0.1957   -8.6201  -34.4128 C.ar    1  UNL1       -0.0511
     18 C           2.2094  -12.6627  -31.8397 C.ar    1  UNL1       -0.0511
     19 C          -0.0386   -7.3820  -36.4907 C.ar    1  UNL1        0.0264
     20 C           3.2941  -13.3408  -29.7811 C.ar    1  UNL1        0.0264
     21 N           3.7182  -14.3321  -28.9286 N.pl3   1  UNL1       -0.3579
     22 N          -0.5160   -6.4090  -37.3366 N.pl3   1  UNL1       -0.3579
     23 C           2.6391  -13.6731  -30.9705 C.ar    1  UNL1       -0.0404
     24 C          -0.6845   -7.6319  -35.2768 C.ar    1  UNL1       -0.0404
     25 H           1.9878   -9.2784  -32.1829 H       1  UNL1        0.0624
     26 H           1.3813  -11.4008  -34.0981 H       1  UNL1        0.0624
     27 H           3.9986  -11.7541  -28.5826 H       1  UNL1        0.0655
     28 H           1.5681   -7.9384  -37.7384 H       1  UNL1        0.0655
     29 H          -0.6827   -8.7957  -33.5200 H       1  UNL1        0.0625
     30 H           1.7297  -12.9215  -32.7160 H       1  UNL1        0.0625
     31 H           4.1794  -14.0971  -28.0912 H       1  UNL1        0.1423
     32 H           3.5607  -15.2770  -29.1554 H       1  UNL1        0.1423
     33 H          -1.3143   -5.8893  -37.0883 H       1  UNL1        0.1423
     34 H          -0.0594   -6.2321  -38.1907 H       1  UNL1        0.1423
     35 H           2.4722  -14.6634  -31.2081 H       1  UNL1        0.0636
     36 H          -1.5222   -7.0880  -35.0169 H       1  UNL1        0.0636
@<TRIPOS>BOND
     1     2     3    1
     2     3    11   ar
     3     1     4    1
     4     5    12    1
     5     5     6    2
     6     1     7    1
     7     2     8    1
     8     4     9   ar
     9     3    10   ar
    10     6    11    1
    11     4    12   ar
    12     1    13    2
    13     1    14    2
    14     2    15    2
    15     2    16    2
    16    11    17   ar
    17    12    18   ar
    18    19    24   ar
    19     9    20   ar
    20    20    21    1
    21    19    22    1
    22    18    23   ar
    23    17    24   ar
    24    20    23   ar
    25    10    19   ar
    26     5    25    1
    27     6    26    1
    28     9    27    1
    29    10    28    1
    30    17    29    1
    31    18    30    1
    32    21    31    1
    33    21    32    1
    34    22    33    1
    35    22    34    1
    36    23    35    1
    37    24    36    1
@<TRIPOS>SUBSTRUCTURE
     1 UNL1        1 TEMP              0 ****  ****    0 ROOT


