##########                                Name: HTS1710-04762838-01
##########                    Molecular_Weight:             329.332
##########                DOCK_Rotatable_Bonds:                   5
##########                       Formal_Charge:                  -2
##########                     HBond_Acceptors:                   7
##########                        HBond_Donors:                   0
##########                         Heavy_Atoms:                  24
##########                          Grid_Score:          -80.714035
##########                     Grid_vdw_energy:          -39.832142
##########                      Grid_es_energy:          -40.881889
##########           Internal_energy_repulsive:            7.511597

@<TRIPOS>MOLECULE
HTS1710-04762838-01
 41 43 1 0 0
SMALL
USER_CHARGES


@<TRIPOS>ATOM
      1 C           2.2465  -14.5326  -28.3598 C.3     1  UNL1       -0.0397
      2 C           2.7367  -13.2240  -28.9619 C.ar    1  UNL1       -0.0504
      3 C           3.2824  -13.1994  -30.2556 C.ar    1  UNL1       -0.0583
      4 C           3.7367  -11.9930  -30.8108 C.ar    1  UNL1       -0.0548
      5 C           3.6306  -10.7796  -30.0985 C.ar    1  UNL1       -0.0295
      6 C           3.1167  -10.8221  -28.7836 C.ar    1  UNL1       -0.0548
      7 C           2.6637  -12.0295  -28.2268 C.ar    1  UNL1       -0.0583
      8 C           4.1557   -9.5457  -30.7192 C.2     1  UNL1       -0.0550
      9 O           5.4590   -9.1902  -30.5206 O.co2   1  UNL1       -0.7709
     10 C           5.4186   -7.9241  -31.0588 C.2     1  UNL1       -0.0363
     11 N           4.2647   -7.5278  -31.5682 N.2     1  UNL1       -0.2654
     12 C           3.4216   -8.5778  -31.3633 C.2     1  UNL1        0.1181
     13 C           2.0446   -8.7172  -31.9511 C.2     1  UNL1        0.2645
     14 O           1.0703   -8.2675  -31.3699 O.2     1  UNL1       -0.2683
     15 N           1.9002   -9.4120  -33.1727 N.am    1  UNL1       -0.2916
     16 C           0.5993   -9.6274  -33.8708 C.3     1  UNL1        0.0386
     17 C           0.6031  -10.7348  -34.9475 C.3     1  UNL1        0.0638
     18 O           1.7745  -10.5825  -35.7545 O.3     1  UNL1       -0.3731
     19 C           2.9736  -10.8552  -35.0158 C.3     1  UNL1        0.0795
     20 C           4.1676  -10.8769  -36.0000 C.3     1  UNL1        0.0146
     21 C           4.4624   -9.4868  -36.5777 C.2     1  UNL1        0.0442
     22 O           3.8148   -9.1415  -37.5506 O.co2   1  UNL1       -0.5497
     23 O           5.3426   -8.8338  -36.0447 O.co2   1  UNL1       -0.5497
     24 C           3.1386   -9.7621  -33.9302 C.3     1  UNL1        0.0417
     25 H           2.3839  -15.3240  -29.0666 H       1  UNL1        0.0278
     26 H           1.2077  -14.4469  -28.1178 H       1  UNL1        0.0278
     27 H           2.8030  -14.7471  -27.4714 H       1  UNL1        0.0278
     28 H           3.3498  -14.0730  -30.8009 H       1  UNL1        0.0620
     29 H           4.1547  -11.9934  -31.7544 H       1  UNL1        0.0623
     30 H           3.0736   -9.9554  -28.2250 H       1  UNL1        0.0623
     31 H           2.2746  -12.0390  -27.2711 H       1  UNL1        0.0620
     32 H           6.2500   -7.3129  -31.0646 H       1  UNL1        0.0668
     33 H           0.3215   -8.7083  -34.3431 H       1  UNL1        0.0487
     34 H          -0.0903   -9.9488  -33.1185 H       1  UNL1        0.0487
     35 H          -0.2703  -10.6458  -35.5593 H       1  UNL1        0.0575
     36 H           0.6028  -11.6980  -34.4814 H       1  UNL1        0.0575
     37 H           2.9282  -11.8073  -34.5296 H       1  UNL1        0.0615
     38 H           3.9397  -11.5440  -36.8048 H       1  UNL1        0.0350
     39 H           5.0336  -11.2010  -35.4615 H       1  UNL1        0.0350
     40 H           3.4935   -8.8736  -34.4091 H       1  UNL1        0.0490
     41 H           3.8179  -10.1663  -33.2091 H       1  UNL1        0.0490
@<TRIPOS>BOND
     1     1     2    1
     2     2     3   ar
     3     3     4   ar
     4     4     5   ar
     5     5     6   ar
     6     6     7   ar
     7     2     7   ar
     8     5     8    1
     9     8     9    1
    10     9    10    1
    11    10    11    2
    12    11    12    1
    13     8    12    2
    14    12    13    1
    15    13    14    2
    16    13    15   am
    17    15    16    1
    18    16    17    1
    19    17    18    1
    20    18    19    1
    21    19    20    1
    22    20    21    1
    23    21    22   ar
    24    21    23   ar
    25    19    24    1
    26    15    24    1
    27     1    25    1
    28     1    26    1
    29     1    27    1
    30     3    28    1
    31     4    29    1
    32     6    30    1
    33     7    31    1
    34    10    32    1
    35    16    33    1
    36    16    34    1
    37    17    35    1
    38    17    36    1
    39    19    37    1
    40    20    38    1
    41    20    39    1
    42    24    40    1
    43    24    41    1
@<TRIPOS>SUBSTRUCTURE
     1 UNL1        1 TEMP              0 ****  ****    0 ROOT


