HTS1710-02591980-01
 OpenBabel03232612353D

 32 33  0  0  1  0  0  0  0  0999 V2000
    2.4432  -10.6829  -32.2828 N   0  0  0  0  0  0  0  0  0  0  0  0
    1.4690  -11.1758  -33.1431 C   0  0  0  0  0  0  0  0  0  0  0  0
    2.8508  -11.5919  -31.3036 C   0  0  0  0  0  0  0  0  0  0  0  0
    2.9646   -9.2907  -32.3806 C   0  0  2  0  0  0  0  0  0  0  0  0
    0.9628  -12.8518  -32.7871 S   0  0  0  0  0  0  0  0  0  0  0  0
    2.1023  -12.8635  -31.4583 C   0  0  0  0  0  0  0  0  0  0  0  0
    4.5159   -9.2608  -32.4918 C   0  0  0  0  0  0  0  0  0  0  0  0
    2.3899   -8.4042  -31.2506 C   0  0  0  0  0  0  0  0  0  0  0  0
    0.7978  -10.3371  -34.4315 S   0  0  0  0  0  0  0  0  0  0  0  0
    5.1769   -8.4894  -31.3412 C   0  0  0  0  0  0  0  0  0  0  0  0
    5.4023  -14.5760  -28.5286 C   0  0  0  0  0  0  0  0  0  0  0  0
    2.2433  -13.9875  -30.6736 C   0  0  0  0  0  0  0  0  0  0  0  0
    3.7099  -11.3654  -30.4692 O   0  0  0  0  0  0  0  0  0  0  0  0
    3.1215  -14.2253  -29.5233 C   0  0  0  0  0  0  0  0  0  0  0  0
    6.3693  -13.6299  -28.2870 O   0  0  0  0  0  0  0  0  0  0  0  0
    4.4676  -14.3399  -29.6237 C   0  0  0  0  0  0  0  0  0  0  0  0
    1.8719   -7.3420  -31.5532 O   0  5  0  0  0  0  0  0  0  0  0  0
    5.4576  -15.6465  -27.6700 C   0  0  0  0  0  0  0  0  0  0  0  0
    7.0384  -14.1727  -27.2201 C   0  0  0  0  0  0  0  0  0  0  0  0
    6.5427  -15.3776  -26.8030 C   0  0  0  0  0  0  0  0  0  0  0  0
    5.4875   -7.3304  -31.5543 O   0  5  0  0  0  0  0  0  0  0  0  0
    2.4836   -8.8381  -30.1151 O   0  0  0  0  0  0  0  0  0  0  0  0
    5.3184   -9.0760  -30.2816 O   0  0  0  0  0  0  0  0  0  0  0  0
    2.6163   -8.8586  -33.2954 H   0  0  0  0  0  0  0  0  0  0  0  0
    4.7840   -8.7931  -33.4162 H   0  0  0  0  0  0  0  0  0  0  0  0
    4.8632  -10.2718  -32.4450 H   0  0  0  0  0  0  0  0  0  0  0  0
    1.6394  -14.7825  -30.9351 H   0  0  0  0  0  0  0  0  0  0  0  0
    2.6916  -14.3097  -28.5889 H   0  0  0  0  0  0  0  0  0  0  0  0
    4.8722  -14.2514  -30.5689 H   0  0  0  0  0  0  0  0  0  0  0  0
    4.8387  -16.4722  -27.6595 H   0  0  0  0  0  0  0  0  0  0  0  0
    7.8455  -13.7124  -26.7711 H   0  0  0  0  0  0  0  0  0  0  0  0
    6.8856  -15.9629  -26.0253 H   0  0  0  0  0  0  0  0  0  0  0  0
  1  2  1  0  0  0  0
  1  3  1  0  0  0  0
  1  4  1  0  0  0  0
  2  5  1  0  0  0  0
  2  9  2  0  0  0  0
  3  6  1  0  0  0  0
  3 13  2  0  0  0  0
  4  7  1  0  0  0  0
  4  8  1  0  0  0  0
  4 24  1  6  0  0  0
  5  6  1  0  0  0  0
  6 12  2  0  0  0  0
  7 10  1  0  0  0  0
  7 25  1  0  0  0  0
  7 26  1  0  0  0  0
  8 17  1  0  0  0  0
  8 22  2  0  0  0  0
 10 21  1  0  0  0  0
 10 23  2  0  0  0  0
 11 15  1  0  0  0  0
 11 16  1  0  0  0  0
 11 18  2  0  0  0  0
 12 14  1  0  0  0  0
 12 27  1  0  0  0  0
 14 16  2  0  0  0  0
 14 28  1  0  0  0  0
 15 19  1  0  0  0  0
 16 29  1  0  0  0  0
 18 20  1  0  0  0  0
 18 30  1  0  0  0  0
 19 20  2  0  0  0  0
 19 31  1  0  0  0  0
 20 32  1  0  0  0  0
M  CHG  2  17  -1  21  -1
M  END
$$$$
