##########                                Name: HTS1710-00701589-01
##########                    Molecular_Weight:             395.414
##########                DOCK_Rotatable_Bonds:                   8
##########                       Formal_Charge:                  -2
##########                     HBond_Acceptors:                  10
##########                        HBond_Donors:                   0
##########                         Heavy_Atoms:                  26
##########                          Grid_Score:          -78.844872
##########                     Grid_vdw_energy:          -41.702293
##########                      Grid_es_energy:          -37.142578
##########           Internal_energy_repulsive:           17.921997

@<TRIPOS>MOLECULE
HTS1710-00701589-01
 39 40 1 0 0
SMALL
USER_CHARGES


@<TRIPOS>ATOM
      1 N           3.4626  -11.1463  -31.6408 N.am    1  UNL1       -0.2463
      2 C           2.6983  -10.4692  -32.5918 C.2     1  UNL1        0.2589
      3 C           4.3005  -10.4218  -30.6452 C.3     1  UNL1        0.0765
      4 C           3.4174  -12.5307  -31.7597 C.2     1  UNL1        0.1211
      5 C           2.0225  -11.4357  -33.4912 C.2     1  UNL1        0.0773
      6 O           2.6072   -9.2542  -32.6649 O.2     1  UNL1       -0.2690
      7 C           3.4756   -9.9472  -29.4122 C.3     1  UNL1        0.0111
      8 C           5.1114   -9.3022  -31.3387 C.2     1  UNL1        0.0629
      9 S           2.3858  -13.1044  -33.0997 S.3     1  UNL1       -0.0610
     10 S           4.2480  -13.6283  -30.8029 S.2     1  UNL1       -0.0272
     11 C           1.1897  -11.0084  -34.5082 C.2     1  UNL1       -0.0322
     12 C           3.2999  -11.0543  -28.3634 C.2     1  UNL1        0.0439
     13 O           5.4398   -9.4991  -32.4967 O.co2   1  UNL1       -0.5479
     14 O           5.3820   -8.2993  -30.6992 O.co2   1  UNL1       -0.5479
     15 C           0.7200   -9.6818  -35.0434 C.ar    1  UNL1        0.0181
     16 O           4.2947  -11.6816  -28.0387 O.co2   1  UNL1       -0.5497
     17 O           2.1720  -11.2555  -27.9471 O.co2   1  UNL1       -0.5497
     18 C           1.2463   -9.1881  -36.2667 C.ar    1  UNL1        0.1307
     19 C          -0.2455   -8.9021  -34.3706 C.ar    1  UNL1       -0.0476
     20 C           0.8073   -7.9476  -36.7852 C.ar    1  UNL1        0.0223
     21 O           2.1999   -9.9363  -36.9386 O.3     1  UNL1       -0.4944
     22 C          -0.6767   -7.6736  -34.8897 C.ar    1  UNL1       -0.0192
     23 C          -0.1572   -7.1885  -36.0946 C.ar    1  UNL1        0.1236
     24 C           3.5328  -10.1619  -36.4473 C.3     1  UNL1        0.0788
     25 O          -0.6199   -5.9741  -36.5631 O.3     1  UNL1       -0.4950
     26 C          -1.2508   -4.9949  -35.7187 C.3     1  UNL1        0.0788
     27 H           5.0155  -11.1045  -30.2357 H       1  UNL1        0.0570
     28 H           2.5086   -9.6335  -29.7460 H       1  UNL1        0.0347
     29 H           4.0114   -9.1437  -28.9514 H       1  UNL1        0.0347
     30 H           0.7874  -11.7999  -35.0343 H       1  UNL1        0.0637
     31 H          -0.6410   -9.2429  -33.4804 H       1  UNL1        0.0626
     32 H           1.1958   -7.5968  -37.6746 H       1  UNL1        0.0691
     33 H          -1.3836   -7.1221  -34.3786 H       1  UNL1        0.0654
     34 H           4.0725  -10.7675  -37.1450 H       1  UNL1        0.0660
     35 H           3.4849  -10.6625  -35.5028 H       1  UNL1        0.0660
     36 H           4.0326   -9.2233  -36.3284 H       1  UNL1        0.0660
     37 H          -1.5222   -4.1412  -36.3039 H       1  UNL1        0.0660
     38 H          -0.5710   -4.6976  -34.9479 H       1  UNL1        0.0660
     39 H          -2.1287   -5.4178  -35.2766 H       1  UNL1        0.0660
@<TRIPOS>BOND
     1     1     2   am
     2     1     3    1
     3     1     4    1
     4     2     5    1
     5     2     6    2
     6     3     7    1
     7     3     8    1
     8     4     9    1
     9     4    10    2
    10     5    11    2
    11     7    12    1
    12     8    13   ar
    13     8    14   ar
    14    11    15    1
    15    12    16   ar
    16    12    17   ar
    17    15    18   ar
    18    15    19   ar
    19    18    20   ar
    20    18    21    1
    21    19    22   ar
    22    20    23   ar
    23    21    24    1
    24    23    25    1
    25    25    26    1
    26     5     9    1
    27    22    23   ar
    28     3    27    1
    29     7    28    1
    30     7    29    1
    31    11    30    1
    32    19    31    1
    33    20    32    1
    34    22    33    1
    35    24    34    1
    36    24    35    1
    37    24    36    1
    38    26    37    1
    39    26    38    1
    40    26    39    1
@<TRIPOS>SUBSTRUCTURE
     1 UNL1        1 TEMP              0 ****  ****    0 ROOT


