##########                                Name: HTS1710-03240517-01
##########                    Molecular_Weight:             341.301
##########                DOCK_Rotatable_Bonds:                  10
##########                       Formal_Charge:                  -2
##########                     HBond_Acceptors:                  11
##########                        HBond_Donors:                   3
##########                         Heavy_Atoms:                  23
##########                          Grid_Score:          -75.529373
##########                     Grid_vdw_energy:          -38.122066
##########                      Grid_es_energy:          -37.407310
##########           Internal_energy_repulsive:           13.151146

@<TRIPOS>MOLECULE
HTS1710-03240517-01
 34 34 1 0 0
SMALL
USER_CHARGES


@<TRIPOS>ATOM
      1 S           2.0723  -12.6968  -32.0561 S.O2    1  UNL1        0.0567
      2 C           2.7877  -12.4261  -29.3160 C.ar    1  UNL1        0.0646
      3 C           2.2335  -13.2473  -30.3328 C.ar    1  UNL1        0.1171
      4 C           5.1050   -9.1074  -31.9406 C.2     1  UNL1        0.0819
      5 C           3.2105  -11.0053  -29.5564 C.2     1  UNL1        0.2652
      6 N           4.6351   -9.5136  -30.7931 N.2     1  UNL1       -0.1828
      7 C           5.5807   -7.6723  -32.1579 C.2     1  UNL1        0.0873
      8 N           4.1893  -10.7667  -30.5079 N.am    1  UNL1       -0.2026
      9 O           1.5613  -11.3229  -32.1003 O.2     1  UNL1       -0.1532
     10 O           3.2476  -13.1330  -32.8160 O.2     1  UNL1       -0.1532
     11 C           4.7443   -9.1568  -35.4530 C.2     1  UNL1        0.0421
     12 N           0.8062  -13.6368  -32.6791 N.3     1  UNL1       -0.2035
     13 C           5.1897  -10.0828  -33.1183 C.3     1  UNL1       -0.0021
     14 O           2.7478  -10.0797  -28.9084 O.2     1  UNL1       -0.2684
     15 O           6.6642   -7.5348  -32.6992 O.co2   1  UNL1       -0.5433
     16 O           5.7508   -8.4840  -35.3098 O.co2   1  UNL1       -0.5498
     17 C           4.1213   -9.7678  -34.1911 C.3     1  UNL1       -0.0077
     18 O           4.8900   -6.7316  -31.7993 O.co2   1  UNL1       -0.5433
     19 C           2.9515  -12.9485  -28.0173 C.ar    1  UNL1       -0.0477
     20 O           4.2039   -9.4036  -36.5173 O.co2   1  UNL1       -0.5498
     21 C           1.8310  -14.5604  -30.0134 C.ar    1  UNL1       -0.0346
     22 C           2.5541  -14.2588  -27.7168 C.ar    1  UNL1       -0.0609
     23 C           1.9876  -15.0621  -28.7141 C.ar    1  UNL1       -0.0599
     24 H           4.5755  -11.5306  -30.9943 H       1  UNL1        0.1776
     25 H           0.7468  -14.5133  -32.1608 H       1  UNL1        0.1442
     26 H           0.9829  -13.8354  -33.6639 H       1  UNL1        0.1442
     27 H           5.0372  -11.0784  -32.7572 H       1  UNL1        0.0333
     28 H           6.1561   -9.9850  -33.5672 H       1  UNL1        0.0333
     29 H           3.6194  -10.6746  -34.4569 H       1  UNL1        0.0328
     30 H           3.4367   -9.0558  -33.7798 H       1  UNL1        0.0328
     31 H           3.3686  -12.3599  -27.2793 H       1  UNL1        0.0626
     32 H           1.4164  -15.1589  -30.7447 H       1  UNL1        0.0637
     33 H           2.6788  -14.6307  -26.7623 H       1  UNL1        0.0618
     34 H           1.6854  -16.0237  -28.4924 H       1  UNL1        0.0618
@<TRIPOS>BOND
     1     1     3    1
     2     1     9    2
     3     1    10    2
     4     1    12    1
     5     2     3   ar
     6     2     5    1
     7     2    19   ar
     8     3    21   ar
     9     4     6    2
    10     4     7    1
    11     4    13    1
    12     5     8   am
    13     5    14    2
    14     6     8    1
    15     7    15   ar
    16     7    18   ar
    17    11    16   ar
    18    11    17    1
    19    11    20   ar
    20    13    17    1
    21    19    22   ar
    22    21    23   ar
    23    22    23   ar
    24     8    24    1
    25    12    25    1
    26    12    26    1
    27    13    27    1
    28    13    28    1
    29    17    29    1
    30    17    30    1
    31    19    31    1
    32    21    32    1
    33    22    33    1
    34    23    34    1
@<TRIPOS>SUBSTRUCTURE
     1 UNL1        1 TEMP              0 ****  ****    0 ROOT


