##########                                Name: HTS1710-00803421-01
##########                    Molecular_Weight:             395.414
##########                DOCK_Rotatable_Bonds:                   8
##########                       Formal_Charge:                  -2
##########                     HBond_Acceptors:                  10
##########                        HBond_Donors:                   0
##########                         Heavy_Atoms:                  26
##########                          Grid_Score:          -78.396652
##########                     Grid_vdw_energy:          -38.326225
##########                      Grid_es_energy:          -40.070431
##########           Internal_energy_repulsive:           13.932974

@<TRIPOS>MOLECULE
HTS1710-00803421-01
 39 40 1 0 0
SMALL
USER_CHARGES


@<TRIPOS>ATOM
      1 N           3.1199   -9.4446  -33.2679 N.am    1  UNL1       -0.2463
      2 C           3.5648  -10.1631  -34.3740 C.2     1  UNL1        0.1211
      3 C           1.9883   -8.6659  -33.5122 C.2     1  UNL1        0.2589
      4 C           1.5284   -8.8685  -34.9075 C.2     1  UNL1        0.0773
      5 S           2.5893   -9.8967  -35.8463 S.3     1  UNL1       -0.0610
      6 C           3.8389   -9.4004  -31.9648 C.3     1  UNL1        0.0765
      7 C           0.4307   -8.2823  -35.5009 C.2     1  UNL1       -0.0322
      8 C           2.9107   -9.7584  -30.7649 C.3     1  UNL1        0.0111
      9 C           4.5915   -8.0587  -31.8103 C.2     1  UNL1        0.0629
     10 C          -0.6782   -7.3746  -35.0671 C.ar    1  UNL1        0.0181
     11 S           4.9086  -11.1633  -34.4232 S.2     1  UNL1       -0.0272
     12 C           3.6577   -9.7558  -29.4238 C.2     1  UNL1        0.0439
     13 C          -1.0895   -6.3102  -35.9053 C.ar    1  UNL1        0.1307
     14 C          -2.1528   -5.4656  -35.5119 C.ar    1  UNL1        0.0223
     15 O           1.5003   -7.9005  -32.6994 O.2     1  UNL1       -0.2690
     16 O           5.7874   -8.0330  -32.0504 O.co2   1  UNL1       -0.5479
     17 O           4.8251  -10.1067  -29.4343 O.co2   1  UNL1       -0.5497
     18 C          -1.3836   -7.6027  -33.8687 C.ar    1  UNL1       -0.0476
     19 C          -2.8263   -5.6912  -34.2946 C.ar    1  UNL1        0.1236
     20 O           3.9300   -7.0956  -31.4594 O.co2   1  UNL1       -0.5479
     21 O           3.0441   -9.3724  -28.4423 O.co2   1  UNL1       -0.5497
     22 C          -2.4396   -6.7665  -33.4837 C.ar    1  UNL1       -0.0192
     23 O          -0.4079   -6.0967  -37.0924 O.3     1  UNL1       -0.4944
     24 O          -3.8756   -4.8977  -33.8710 O.3     1  UNL1       -0.4950
     25 C          -0.6674   -4.9890  -37.9718 C.3     1  UNL1        0.0788
     26 C          -4.3828   -3.7910  -34.6363 C.3     1  UNL1        0.0788
     27 H           4.5848  -10.1675  -31.9579 H       1  UNL1        0.0570
     28 H           0.3538   -8.5331  -36.4990 H       1  UNL1        0.0637
     29 H           2.5002  -10.7331  -30.9273 H       1  UNL1        0.0347
     30 H           2.1447   -9.0133  -30.7122 H       1  UNL1        0.0347
     31 H          -2.4369   -4.6807  -36.1186 H       1  UNL1        0.0691
     32 H          -1.1184   -8.3973  -33.2658 H       1  UNL1        0.0626
     33 H          -2.9363   -6.9438  -32.5966 H       1  UNL1        0.0654
     34 H          -0.0145   -5.0446  -38.8177 H       1  UNL1        0.0660
     35 H          -0.4966   -4.0710  -37.4492 H       1  UNL1        0.0660
     36 H          -1.6842   -5.0270  -38.3029 H       1  UNL1        0.0660
     37 H          -5.1911   -3.3315  -34.1066 H       1  UNL1        0.0660
     38 H          -4.7323   -4.1432  -35.5843 H       1  UNL1        0.0660
     39 H          -3.6026   -3.0746  -34.7877 H       1  UNL1        0.0660
@<TRIPOS>BOND
     1     1     2    1
     2     1     3   am
     3     3     4    1
     4     2     5    1
     5     1     6    1
     6     4     7    2
     7     6     8    1
     8     6     9    1
     9     7    10    1
    10     2    11    2
    11     8    12    1
    12    10    13   ar
    13    13    14   ar
    14     3    15    2
    15     9    16   ar
    16    12    17   ar
    17    10    18   ar
    18    19    22   ar
    19     9    20   ar
    20    12    21   ar
    21    18    22   ar
    22    13    23    1
    23    19    24    1
    24    23    25    1
    25    24    26    1
    26     4     5    1
    27    14    19   ar
    28     6    27    1
    29     7    28    1
    30     8    29    1
    31     8    30    1
    32    14    31    1
    33    18    32    1
    34    22    33    1
    35    25    34    1
    36    25    35    1
    37    25    36    1
    38    26    37    1
    39    26    38    1
    40    26    39    1
@<TRIPOS>SUBSTRUCTURE
     1 UNL1        1 TEMP              0 ****  ****    0 ROOT


