HTS1710-01604345-01
 OpenBabel03232612353D

 39 39  0  0  1  0  0  0  0  0999 V2000
    7.2198  -16.2434  -26.4896 C   0  0  0  0  0  0  0  0  0  0  0  0
    6.2589  -15.3508  -27.2621 C   0  0  0  0  0  0  0  0  0  0  0  0
    5.2386  -15.9123  -28.0516 C   0  0  0  0  0  0  0  0  0  0  0  0
    4.3517  -15.0834  -28.7566 C   0  0  0  0  0  0  0  0  0  0  0  0
    4.4699  -13.6851  -28.6745 C   0  0  0  0  0  0  0  0  0  0  0  0
    3.3133  -12.6627  -29.5799 S   0  0  0  0  0  0  0  0  0  0  0  0
    3.1004  -13.5087  -31.2067 C   0  0  0  0  0  0  0  0  0  0  0  0
    2.2865  -12.6381  -32.1931 C   0  0  0  0  0  0  0  0  0  0  0  0
    2.7393  -11.1740  -32.2225 C   0  0  0  0  0  0  0  0  0  0  0  0
    2.0108  -10.2589  -31.8710 O   0  0  0  0  0  0  0  0  0  0  0  0
    4.0245  -10.9082  -32.6740 N   0  0  0  0  0  0  0  0  0  0  0  0
    4.5789   -9.5473  -32.7508 C   0  0  2  0  0  0  0  0  0  0  0  0
    5.6374   -9.4959  -33.8920 C   0  0  0  0  0  0  0  0  0  0  0  0
    5.1994  -10.2216  -35.1911 C   0  0  0  0  0  0  0  0  0  0  0  0
    4.0547   -9.5268  -35.9385 C   0  0  0  0  0  0  0  0  0  0  0  0
    3.1039   -9.1485  -35.2765 O   0  5  0  0  0  0  0  0  0  0  0  0
    4.1573   -9.4335  -37.1500 O   0  0  0  0  0  0  0  0  0  0  0  0
    5.1325   -9.1657  -31.3654 C   0  0  0  0  0  0  0  0  0  0  0  0
    4.9059   -9.9199  -30.4336 O   0  5  0  0  0  0  0  0  0  0  0  0
    5.7467   -8.1156  -31.2863 O   0  0  0  0  0  0  0  0  0  0  0  0
    5.4961  -13.1226  -27.8923 C   0  0  0  0  0  0  0  0  0  0  0  0
    6.3835  -13.9520  -27.1881 C   0  0  0  0  0  0  0  0  0  0  0  0
    6.9734  -17.2696  -26.6661 H   0  0  0  0  0  0  0  0  0  0  0  0
    7.1401  -16.0323  -25.4437 H   0  0  0  0  0  0  0  0  0  0  0  0
    8.2214  -16.0559  -26.8160 H   0  0  0  0  0  0  0  0  0  0  0  0
    5.1419  -16.9379  -28.1127 H   0  0  0  0  0  0  0  0  0  0  0  0
    3.6093  -15.5027  -29.3380 H   0  0  0  0  0  0  0  0  0  0  0  0
    2.5861  -14.4344  -31.0532 H   0  0  0  0  0  0  0  0  0  0  0  0
    4.0695  -13.6783  -31.6276 H   0  0  0  0  0  0  0  0  0  0  0  0
    1.2566  -12.6698  -31.9044 H   0  0  0  0  0  0  0  0  0  0  0  0
    2.4420  -13.0385  -33.1731 H   0  0  0  0  0  0  0  0  0  0  0  0
    4.5902  -11.6633  -32.9552 H   0  0  0  0  0  0  0  0  0  0  0  0
    3.8324   -8.8215  -32.9977 H   0  0  0  0  0  0  0  0  0  0  0  0
    6.5371   -9.9541  -33.5374 H   0  0  0  0  0  0  0  0  0  0  0  0
    5.7721   -8.4646  -34.1434 H   0  0  0  0  0  0  0  0  0  0  0  0
    4.8816  -11.2103  -34.9334 H   0  0  0  0  0  0  0  0  0  0  0  0
    6.0444  -10.2183  -35.8475 H   0  0  0  0  0  0  0  0  0  0  0  0
    5.5966  -12.0970  -27.8363 H   0  0  0  0  0  0  0  0  0  0  0  0
    7.1309  -13.5330  -26.6131 H   0  0  0  0  0  0  0  0  0  0  0  0
  1  2  1  0  0  0  0
  1 23  1  0  0  0  0
  1 24  1  0  0  0  0
  1 25  1  0  0  0  0
  2  3  2  0  0  0  0
  2 22  1  0  0  0  0
  3  4  1  0  0  0  0
  3 26  1  0  0  0  0
  4  5  2  0  0  0  0
  4 27  1  0  0  0  0
  5  6  1  0  0  0  0
  5 21  1  0  0  0  0
  6  7  1  0  0  0  0
  7  8  1  0  0  0  0
  7 28  1  0  0  0  0
  7 29  1  0  0  0  0
  8  9  1  0  0  0  0
  8 30  1  0  0  0  0
  8 31  1  0  0  0  0
  9 10  2  0  0  0  0
  9 11  1  0  0  0  0
 11 12  1  0  0  0  0
 11 32  1  0  0  0  0
 12 13  1  0  0  0  0
 12 18  1  0  0  0  0
 12 33  1  6  0  0  0
 13 14  1  0  0  0  0
 13 34  1  0  0  0  0
 13 35  1  0  0  0  0
 14 15  1  0  0  0  0
 14 36  1  0  0  0  0
 14 37  1  0  0  0  0
 15 16  1  0  0  0  0
 15 17  2  0  0  0  0
 18 19  1  0  0  0  0
 18 20  2  0  0  0  0
 21 22  2  0  0  0  0
 21 38  1  0  0  0  0
 22 39  1  0  0  0  0
M  CHG  2  16  -1  19  -1
M  END
$$$$
