##########                                Name: HTS1710-05122403-01
##########                    Molecular_Weight:             341.346
##########                DOCK_Rotatable_Bonds:                   5
##########                       Formal_Charge:                  -2
##########                     HBond_Acceptors:                   8
##########                        HBond_Donors:                   0
##########                         Heavy_Atoms:                  25
##########                          Grid_Score:          -75.941185
##########                     Grid_vdw_energy:          -38.697788
##########                      Grid_es_energy:          -37.243397
##########           Internal_energy_repulsive:           16.160412

@<TRIPOS>MOLECULE
HTS1710-05122403-01
 42 44 1 0 0
SMALL
USER_CHARGES


@<TRIPOS>ATOM
      1 C           4.8641  -12.6270  -36.0901 C.3     1  UNL1        0.0038
      2 N           3.9811  -11.4674  -35.8266 N.am    1  UNL1       -0.2973
      3 C           4.6836  -10.1659  -35.8039 C.3     1  UNL1        0.0269
      4 C           4.8791   -9.6627  -34.3972 C.2     1  UNL1       -0.0998
      5 C           4.5577  -10.3753  -33.2733 C.2     1  UNL1       -0.0630
      6 C           4.9362   -9.5402  -32.1900 C.2     1  UNL1       -0.0144
      7 C           4.8012   -9.8652  -30.7502 C.2     1  UNL1        0.0708
      8 O           4.6547  -11.0310  -30.4261 O.co2   1  UNL1       -0.5447
      9 O           4.8450   -8.9323  -29.9662 O.co2   1  UNL1       -0.5447
     10 C           5.4401   -8.4101  -32.8063 C.2     1  UNL1       -0.1120
     11 C           5.9891   -7.1960  -32.1009 C.3     1  UNL1       -0.0524
     12 O           5.4302   -8.4310  -34.1781 O.co2   1  UNL1       -0.7845
     13 C           2.5794  -11.5158  -35.9069 C.2     1  UNL1        0.2498
     14 O           1.9952  -12.5854  -35.9490 O.2     1  UNL1       -0.2699
     15 C           1.8568  -10.1972  -35.9667 C.ar    1  UNL1        0.0760
     16 C           1.9210   -9.4312  -37.2216 C.ar    1  UNL1        0.0438
     17 N           1.2589   -8.2900  -37.3247 N.ar    1  UNL1       -0.2353
     18 C           0.5219   -7.8699  -36.2721 C.ar    1  UNL1        0.1559
     19 C          -0.2514   -6.7632  -36.1093 C.ar    1  UNL1        0.0052
     20 C          -0.8089   -6.8545  -34.7998 C.ar    1  UNL1        0.0625
     21 C          -1.7338   -5.7942  -34.2655 C.3     1  UNL1       -0.0205
     22 N          -0.4137   -7.9516  -34.1672 N.ar    1  UNL1       -0.1700
     23 N           0.3985   -8.5434  -35.0998 N.ar    1  UNL1       -0.2179
     24 C           1.0606   -9.7544  -34.8784 C.ar    1  UNL1        0.0556
     25 C           0.9907  -10.4922  -33.5505 C.3     1  UNL1       -0.0214
     26 H           5.8853  -12.3336  -35.9635 H       1  UNL1        0.0429
     27 H           4.7131  -12.9698  -37.0923 H       1  UNL1        0.0429
     28 H           4.6318  -13.4151  -35.4048 H       1  UNL1        0.0429
     29 H           4.1060   -9.4504  -36.3509 H       1  UNL1        0.0502
     30 H           5.6482  -10.2996  -36.2474 H       1  UNL1        0.0502
     31 H           4.1330  -11.3145  -33.2245 H       1  UNL1        0.0615
     32 H           5.9249   -7.3390  -31.0424 H       1  UNL1        0.0266
     33 H           5.4200   -6.3339  -32.3796 H       1  UNL1        0.0266
     34 H           7.0122   -7.0535  -32.3801 H       1  UNL1        0.0266
     35 H           2.4787   -9.7817  -38.0160 H       1  UNL1        0.0838
     36 H          -0.4044   -6.0082  -36.7961 H       1  UNL1        0.0673
     37 H          -1.8668   -5.0317  -35.0042 H       1  UNL1        0.0293
     38 H          -1.3109   -5.3645  -33.3815 H       1  UNL1        0.0293
     39 H          -2.6813   -6.2326  -34.0309 H       1  UNL1        0.0293
     40 H           0.3299   -9.9727  -32.8882 H       1  UNL1        0.0293
     41 H           1.9674  -10.5382  -33.1161 H       1  UNL1        0.0293
     42 H           0.6254  -11.4848  -33.7127 H       1  UNL1        0.0293
@<TRIPOS>BOND
     1     1     2    1
     2     2     3    1
     3     3     4    1
     4     4     5    2
     5     5     6    1
     6     6     7    1
     7     7     8   ar
     8     7     9   ar
     9     6    10    2
    10    10    11    1
    11    10    12    1
    12     4    12    1
    13     2    13   am
    14    13    14    2
    15    13    15    1
    16    15    16   ar
    17    16    17   ar
    18    17    18   ar
    19    18    19   ar
    20    19    20   ar
    21    20    21    1
    22    20    22   ar
    23    22    23   ar
    24    18    23   ar
    25    23    24   ar
    26    15    24   ar
    27    24    25    1
    28     1    26    1
    29     1    27    1
    30     1    28    1
    31     3    29    1
    32     3    30    1
    33     5    31    1
    34    11    32    1
    35    11    33    1
    36    11    34    1
    37    16    35    1
    38    19    36    1
    39    21    37    1
    40    21    38    1
    41    21    39    1
    42    25    40    1
    43    25    41    1
    44    25    42    1
@<TRIPOS>SUBSTRUCTURE
     1 UNL1        1 TEMP              0 ****  ****    0 ROOT


