HTS1710-01604346-01
 OpenBabel03232612353D

 42 43  0  0  1  0  0  0  0  0999 V2000
    4.2934   -9.1609  -29.3787 O   0  5  0  0  0  0  0  0  0  0  0  0
    3.3549   -9.9332  -29.4683 C   0  0  0  0  0  0  0  0  0  0  0  0
    2.3876   -9.9499  -28.7262 O   0  0  0  0  0  0  0  0  0  0  0  0
    3.4200  -10.9588  -30.6141 C   0  0  0  0  0  0  0  0  0  0  0  0
    4.4674  -10.6321  -31.7161 C   0  0  0  0  0  0  0  0  0  0  0  0
    4.1399   -9.3174  -32.4763 C   0  0  2  0  0  0  0  0  0  0  0  0
    3.3303   -9.6269  -33.6622 N   0  0  0  0  0  0  0  0  0  0  0  0
    2.0166   -9.2050  -33.8230 C   0  0  0  0  0  0  0  0  0  0  0  0
    1.4904   -8.5445  -32.9417 O   0  0  0  0  0  0  0  0  0  0  0  0
    1.2569   -9.5922  -35.1205 C   0  0  0  0  0  0  0  0  0  0  0  0
    0.6288  -11.0081  -34.9596 C   0  0  0  0  0  0  0  0  0  0  0  0
    1.6738  -12.0406  -35.4294 C   0  0  0  0  0  0  0  0  0  0  0  0
    2.7091  -11.2741  -36.2742 C   0  0  0  0  0  0  0  0  0  0  0  0
    2.2667   -9.7956  -36.2881 C   0  0  0  0  0  0  0  0  0  0  0  0
    0.2000   -8.5011  -35.4227 C   0  0  0  0  0  0  0  0  0  0  0  0
   -0.9496   -8.3654  -34.6122 C   0  0  0  0  0  0  0  0  0  0  0  0
   -1.8916   -7.3552  -34.8654 C   0  0  0  0  0  0  0  0  0  0  0  0
   -1.6938   -6.4556  -35.9216 C   0  0  0  0  0  0  0  0  0  0  0  0
   -0.5465   -6.5609  -36.7191 C   0  0  0  0  0  0  0  0  0  0  0  0
    0.3977   -7.5700  -36.4679 C   0  0  0  0  0  0  0  0  0  0  0  0
    5.4038   -8.5563  -32.9114 C   0  0  0  0  0  0  0  0  0  0  0  0
    5.8959   -8.8408  -33.9907 O   0  5  0  0  0  0  0  0  0  0  0  0
    5.8307   -7.7110  -32.1445 O   0  0  0  0  0  0  0  0  0  0  0  0
    2.4553  -11.0069  -31.0743 H   0  0  0  0  0  0  0  0  0  0  0  0
    3.7217  -11.8864  -30.1742 H   0  0  0  0  0  0  0  0  0  0  0  0
    4.4891  -11.4387  -32.4189 H   0  0  0  0  0  0  0  0  0  0  0  0
    5.4151  -10.5031  -31.2364 H   0  0  0  0  0  0  0  0  0  0  0  0
    3.5998   -8.6863  -31.8018 H   0  0  0  0  0  0  0  0  0  0  0  0
    3.7401  -10.1613  -34.3804 H   0  0  0  0  0  0  0  0  0  0  0  0
   -0.2545  -11.0852  -35.5585 H   0  0  0  0  0  0  0  0  0  0  0  0
    0.3596  -11.1850  -33.9392 H   0  0  0  0  0  0  0  0  0  0  0  0
    1.2033  -12.7975  -36.0213 H   0  0  0  0  0  0  0  0  0  0  0  0
    2.1399  -12.5217  -34.5950 H   0  0  0  0  0  0  0  0  0  0  0  0
    2.7303  -11.6616  -37.2713 H   0  0  0  0  0  0  0  0  0  0  0  0
    3.6917  -11.3769  -35.8634 H   0  0  0  0  0  0  0  0  0  0  0  0
    1.7964   -9.5648  -37.2211 H   0  0  0  0  0  0  0  0  0  0  0  0
    3.1121   -9.1505  -36.1689 H   0  0  0  0  0  0  0  0  0  0  0  0
   -1.0985   -9.0162  -33.8252 H   0  0  0  0  0  0  0  0  0  0  0  0
   -2.7320   -7.2750  -34.2720 H   0  0  0  0  0  0  0  0  0  0  0  0
   -2.3905   -5.7183  -36.1113 H   0  0  0  0  0  0  0  0  0  0  0  0
   -0.3948   -5.8953  -37.4930 H   0  0  0  0  0  0  0  0  0  0  0  0
    1.2454   -7.6324  -37.0531 H   0  0  0  0  0  0  0  0  0  0  0  0
  1  2  1  0  0  0  0
  2  3  2  0  0  0  0
  2  4  1  0  0  0  0
  4  5  1  0  0  0  0
  4 24  1  0  0  0  0
  4 25  1  0  0  0  0
  5  6  1  0  0  0  0
  5 26  1  0  0  0  0
  5 27  1  0  0  0  0
  6  7  1  0  0  0  0
  6 21  1  0  0  0  0
  6 28  1  1  0  0  0
  7  8  1  0  0  0  0
  7 29  1  0  0  0  0
  8  9  2  0  0  0  0
  8 10  1  0  0  0  0
 10 11  1  0  0  0  0
 10 14  1  0  0  0  0
 10 15  1  0  0  0  0
 11 12  1  0  0  0  0
 11 30  1  0  0  0  0
 11 31  1  0  0  0  0
 12 13  1  0  0  0  0
 12 32  1  0  0  0  0
 12 33  1  0  0  0  0
 13 14  1  0  0  0  0
 13 34  1  0  0  0  0
 13 35  1  0  0  0  0
 14 36  1  0  0  0  0
 14 37  1  0  0  0  0
 15 16  2  0  0  0  0
 15 20  1  0  0  0  0
 16 17  1  0  0  0  0
 16 38  1  0  0  0  0
 17 18  2  0  0  0  0
 17 39  1  0  0  0  0
 18 19  1  0  0  0  0
 18 40  1  0  0  0  0
 19 20  2  0  0  0  0
 19 41  1  0  0  0  0
 20 42  1  0  0  0  0
 21 22  1  0  0  0  0
 21 23  2  0  0  0  0
M  CHG  2   1  -1  22  -1
M  END
$$$$
