##########                                Name: HTS1710-00617541-01
##########                    Molecular_Weight:             347.343
##########                DOCK_Rotatable_Bonds:                   8
##########                       Formal_Charge:                  -2
##########                     HBond_Acceptors:                   7
##########                        HBond_Donors:                   0
##########                         Heavy_Atoms:                  25
##########                          Grid_Score:          -77.041290
##########                     Grid_vdw_energy:          -39.142239
##########                      Grid_es_energy:          -37.899052
##########           Internal_energy_repulsive:           12.730007

@<TRIPOS>MOLECULE
HTS1710-00617541-01
 43 44 1 0 0
SMALL
USER_CHARGES


@<TRIPOS>ATOM
      1 C           3.6913  -10.7044  -32.3560 C.3     1  UNL1        0.0796
      2 N           3.4748  -10.9921  -30.9160 N.am    1  UNL1       -0.2873
      3 C           4.8262   -9.6749  -32.3105 C.2     1  UNL1        0.0167
      4 C           2.4340  -10.1930  -33.0534 C.ar    1  UNL1       -0.0224
      5 C           4.3171  -10.2557  -30.1033 C.2     1  UNL1        0.2329
      6 C           2.5581  -12.0577  -30.4790 C.3     1  UNL1        0.0159
      7 C           5.1126   -9.4254  -31.0182 C.2     1  UNL1       -0.0358
      8 C           5.2877   -8.9690  -33.5423 C.2     1  UNL1        0.1579
      9 C           1.8362   -8.9924  -32.6284 C.ar    1  UNL1       -0.0538
     10 C           1.8757  -10.8999  -34.1378 C.ar    1  UNL1       -0.0538
     11 O           4.3713  -10.2943  -28.8860 O.2     1  UNL1       -0.2712
     12 C           3.1229  -13.4652  -30.7696 C.3     1  UNL1       -0.0371
     13 O           5.9998   -8.5213  -30.5448 O.co2   1  UNL1       -0.8701
     14 C           5.3187   -9.8028  -34.8267 C.3     1  UNL1       -0.0017
     15 O           5.7472   -7.8411  -33.5074 O.2     1  UNL1       -0.2926
     16 C           0.6894   -8.5040  -33.2749 C.ar    1  UNL1       -0.0261
     17 C           0.7298  -10.4123  -34.7849 C.ar    1  UNL1       -0.0261
     18 C           4.3493  -13.7923  -29.8884 C.3     1  UNL1       -0.0513
     19 C           0.1388   -9.2158  -34.3512 C.ar    1  UNL1        0.1234
     20 C           3.9381  -14.0967  -28.4262 C.3     1  UNL1       -0.0479
     21 F          -0.9628   -8.7464  -34.9733 F       1  UNL1       -0.2055
     22 C           4.9744  -14.9711  -27.6744 C.3     1  UNL1       -0.0132
     23 C           6.3210  -14.2645  -27.4567 C.2     1  UNL1        0.0417
     24 O           6.3888  -13.0886  -27.7699 O.co2   1  UNL1       -0.5498
     25 O           7.2329  -14.9245  -26.9898 O.co2   1  UNL1       -0.5498
     26 H           3.9357  -11.5707  -32.9345 H       1  UNL1        0.0602
     27 H           1.6278  -11.9458  -30.9956 H       1  UNL1        0.0465
     28 H           2.4279  -11.9669  -29.4208 H       1  UNL1        0.0465
     29 H           2.2425   -8.4681  -31.8378 H       1  UNL1        0.0622
     30 H           2.3112  -11.7794  -34.4570 H       1  UNL1        0.0622
     31 H           3.4140  -13.5147  -31.7981 H       1  UNL1        0.0280
     32 H           2.3579  -14.1797  -30.5481 H       1  UNL1        0.0280
     33 H           4.8680  -10.7559  -34.6442 H       1  UNL1        0.0309
     34 H           6.3332   -9.9416  -35.1375 H       1  UNL1        0.0309
     35 H           4.7766   -9.2934  -35.5958 H       1  UNL1        0.0309
     36 H           0.2527   -7.6238  -32.9592 H       1  UNL1        0.0646
     37 H           0.3229  -10.9325  -35.5778 H       1  UNL1        0.0646
     38 H           5.0143  -12.9539  -29.8944 H       1  UNL1        0.0266
     39 H           4.8262  -14.6622  -30.2893 H       1  UNL1        0.0266
     40 H           3.0005  -14.6122  -28.4361 H       1  UNL1        0.0269
     41 H           3.8747  -13.1614  -27.9105 H       1  UNL1        0.0269
     42 H           5.1457  -15.8604  -28.2442 H       1  UNL1        0.0325
     43 H           4.5680  -15.1839  -26.7077 H       1  UNL1        0.0325
@<TRIPOS>BOND
     1     1     2    1
     2     1     3    1
     3     1     4    1
     4     2     5   am
     5     2     6    1
     6     3     7    2
     7     3     8    1
     8     4     9   ar
     9     4    10   ar
    10     5    11    2
    11     6    12    1
    12     7    13    1
    13     8    14    1
    14     8    15    2
    15     9    16   ar
    16    10    17   ar
    17    12    18    1
    18    16    19   ar
    19    18    20    1
    20    19    21    1
    21    20    22    1
    22    22    23    1
    23    23    24   ar
    24    23    25   ar
    25     5     7    1
    26    17    19   ar
    27     1    26    1
    28     6    27    1
    29     6    28    1
    30     9    29    1
    31    10    30    1
    32    12    31    1
    33    12    32    1
    34    14    33    1
    35    14    34    1
    36    14    35    1
    37    16    36    1
    38    17    37    1
    39    18    38    1
    40    18    39    1
    41    20    40    1
    42    20    41    1
    43    22    42    1
    44    22    43    1
@<TRIPOS>SUBSTRUCTURE
     1 UNL1        1 TEMP              0 ****  ****    0 ROOT


