HTS1710-03135672-01
 OpenBabel03232612343D

 38 38  0  0  0  0  0  0  0  0999 V2000
    3.1295  -10.0565  -35.4009 C   0  0  0  0  0  0  0  0  0  0  0  0
    4.2258   -9.8564  -36.4226 C   0  0  0  0  0  0  0  0  0  0  0  0
    0.8486   -9.6094  -34.6156 C   0  0  0  0  0  0  0  0  0  0  0  0
    2.3235  -11.0748  -33.3207 C   0  0  0  0  0  0  0  0  0  0  0  0
   -0.4010   -8.9983  -34.7021 N   0  0  0  0  0  0  0  0  0  0  0  0
    2.4538  -11.9095  -32.2123 N   0  0  0  0  0  0  0  0  0  0  0  0
    3.4709  -11.8694  -31.2633 C   0  0  0  0  0  0  0  0  0  0  0  0
   -0.9061   -8.0276  -33.8407 C   0  0  0  0  0  0  0  0  0  0  0  0
    1.8873   -9.4052  -35.5495 C   0  0  0  0  0  0  0  0  0  0  0  0
    3.3348  -10.8996  -34.2896 C   0  0  0  0  0  0  0  0  0  0  0  0
    1.0870  -10.4333  -33.5025 C   0  0  0  0  0  0  0  0  0  0  0  0
    3.4215  -10.9665  -28.4196 C   0  0  0  0  0  0  0  0  0  0  0  0
   -3.6406   -5.8962  -35.5943 C   0  0  0  0  0  0  0  0  0  0  0  0
    5.2904  -10.4149  -36.2239 O   0  5  0  0  0  0  0  0  0  0  0  0
   -0.2351   -7.5778  -32.9269 O   0  0  0  0  0  0  0  0  0  0  0  0
    4.3365  -11.0113  -31.3014 O   0  0  0  0  0  0  0  0  0  0  0  0
    4.0851   -9.9780  -28.6791 O   0  5  0  0  0  0  0  0  0  0  0  0
   -4.3478   -6.8486  -35.8744 O   0  5  0  0  0  0  0  0  0  0  0  0
   -2.3111   -7.4896  -34.1225 C   0  0  0  0  0  0  0  0  0  0  0  0
    3.4188  -12.8867  -30.1188 C   0  0  0  0  0  0  0  0  0  0  0  0
    3.9777   -9.1477  -37.3841 O   0  0  0  0  0  0  0  0  0  0  0  0
    4.0140  -12.3282  -28.8040 C   0  0  0  0  0  0  0  0  0  0  0  0
   -2.2752   -6.1965  -34.9691 C   0  0  0  0  0  0  0  0  0  0  0  0
   -3.9365   -4.7241  -35.7495 O   0  0  0  0  0  0  0  0  0  0  0  0
    2.3394  -10.9670  -27.8577 O   0  0  0  0  0  0  0  0  0  0  0  0
   -0.9832   -9.2803  -35.4442 H   0  0  0  0  0  0  0  0  0  0  0  0
    1.7579  -12.5949  -32.0885 H   0  0  0  0  0  0  0  0  0  0  0  0
    1.7359   -8.7721  -36.3503 H   0  0  0  0  0  0  0  0  0  0  0  0
    4.2344  -11.3941  -34.1835 H   0  0  0  0  0  0  0  0  0  0  0  0
    0.3390  -10.5698  -32.8048 H   0  0  0  0  0  0  0  0  0  0  0  0
   -2.7943   -7.2798  -33.1912 H   0  0  0  0  0  0  0  0  0  0  0  0
   -2.8456   -8.2332  -34.6761 H   0  0  0  0  0  0  0  0  0  0  0  0
    3.9743  -13.7551  -30.4057 H   0  0  0  0  0  0  0  0  0  0  0  0
    2.3905  -13.1207  -29.9374 H   0  0  0  0  0  0  0  0  0  0  0  0
    3.8151  -13.0234  -28.0154 H   0  0  0  0  0  0  0  0  0  0  0  0
    5.0646  -12.1932  -28.9557 H   0  0  0  0  0  0  0  0  0  0  0  0
   -1.9928   -5.3776  -34.3410 H   0  0  0  0  0  0  0  0  0  0  0  0
   -1.5669   -6.3325  -35.7595 H   0  0  0  0  0  0  0  0  0  0  0  0
  1  2  1  0  0  0  0
  1  9  2  0  0  0  0
  1 10  1  0  0  0  0
  2 14  1  0  0  0  0
  2 21  2  0  0  0  0
  3  5  1  0  0  0  0
  3  9  1  0  0  0  0
  3 11  2  0  0  0  0
  4  6  1  0  0  0  0
  4 10  2  0  0  0  0
  4 11  1  0  0  0  0
  5  8  1  0  0  0  0
  5 26  1  0  0  0  0
  6  7  1  0  0  0  0
  6 27  1  0  0  0  0
  7 16  2  0  0  0  0
  7 20  1  0  0  0  0
  8 15  2  0  0  0  0
  8 19  1  0  0  0  0
  9 28  1  0  0  0  0
 10 29  1  0  0  0  0
 11 30  1  0  0  0  0
 12 17  1  0  0  0  0
 12 22  1  0  0  0  0
 12 25  2  0  0  0  0
 13 18  1  0  0  0  0
 13 23  1  0  0  0  0
 13 24  2  0  0  0  0
 19 23  1  0  0  0  0
 19 31  1  0  0  0  0
 19 32  1  0  0  0  0
 20 22  1  0  0  0  0
 20 33  1  0  0  0  0
 20 34  1  0  0  0  0
 22 35  1  0  0  0  0
 22 36  1  0  0  0  0
 23 37  1  0  0  0  0
 23 38  1  0  0  0  0
M  CHG  3  14  -1  17  -1  18  -1
M  END
$$$$
