HTS1710-05464737-01
 OpenBabel03232612363D

 37 37  0  0  1  0  0  0  0  0999 V2000
    1.2970  -15.5653  -25.6551 C   0  0  0  0  0  0  0  0  0  0  0  0
    2.5067  -15.4311  -26.4208 O   0  0  0  0  0  0  0  0  0  0  0  0
    2.4669  -14.7790  -27.6231 C   0  0  0  0  0  0  0  0  0  0  0  0
    1.4806  -14.2196  -28.0737 O   0  0  0  0  0  0  0  0  0  0  0  0
    3.8340  -14.7959  -28.3215 C   0  0  0  0  0  0  0  0  0  0  0  0
    4.6957  -13.5295  -28.0512 C   0  0  2  0  0  0  0  0  0  0  0  0
    4.8291  -12.6568  -29.2437 N   0  0  0  0  0  0  0  0  0  0  0  0
    3.6337  -11.4828  -29.5653 S   0  0  0  0  0  0  0  0  0  0  0  0
    3.7239  -10.6317  -28.3753 O   0  0  0  0  0  0  0  0  0  0  0  0
    2.4033  -12.2037  -29.9105 O   0  0  0  0  0  0  0  0  0  0  0  0
    4.2332  -10.5343  -30.9561 C   0  0  0  0  0  0  0  0  0  0  0  0
    4.0558  -10.8669  -32.2745 C   0  0  0  0  0  0  0  0  0  0  0  0
    4.6771   -9.8333  -33.0204 C   0  0  0  0  0  0  0  0  0  0  0  0
    4.7365   -9.7545  -34.4989 C   0  0  0  0  0  0  0  0  0  0  0  0
    5.7680   -9.9592  -35.1177 O   0  0  0  0  0  0  0  0  0  0  0  0
    3.5538   -9.4322  -35.1042 O   0  0  0  0  0  0  0  0  0  0  0  0
    3.1840  -10.0791  -36.3361 C   0  0  0  0  0  0  0  0  0  0  0  0
    5.1692   -8.9834  -32.0521 C   0  0  0  0  0  0  0  0  0  0  0  0
    5.9083   -7.6913  -32.2948 C   0  0  0  0  0  0  0  0  0  0  0  0
    4.9351   -9.3733  -30.7613 O   0  0  0  0  0  0  0  0  0  0  0  0
    6.0912  -13.8942  -27.5120 C   0  0  0  0  0  0  0  0  0  0  0  0
    6.9961  -13.1185  -27.7696 O   0  5  0  0  0  0  0  0  0  0  0  0
    6.2149  -14.9419  -26.9006 O   0  0  0  0  0  0  0  0  0  0  0  0
    1.5048  -16.0967  -24.7500 H   0  0  0  0  0  0  0  0  0  0  0  0
    0.5711  -16.1049  -26.2268 H   0  0  0  0  0  0  0  0  0  0  0  0
    0.9147  -14.5942  -25.4189 H   0  0  0  0  0  0  0  0  0  0  0  0
    3.6724  -14.8745  -29.3763 H   0  0  0  0  0  0  0  0  0  0  0  0
    4.3748  -15.6298  -27.9254 H   0  0  0  0  0  0  0  0  0  0  0  0
    4.1678  -12.9769  -27.3023 H   0  0  0  0  0  0  0  0  0  0  0  0
    4.8682  -13.2707  -30.0573 H   0  0  0  0  0  0  0  0  0  0  0  0
    3.5704  -11.6979  -32.6470 H   0  0  0  0  0  0  0  0  0  0  0  0
    2.2356   -9.7072  -36.6634 H   0  0  0  0  0  0  0  0  0  0  0  0
    3.1179  -11.1353  -36.1784 H   0  0  0  0  0  0  0  0  0  0  0  0
    3.9237   -9.8754  -37.0820 H   0  0  0  0  0  0  0  0  0  0  0  0
    6.0096   -7.5307  -33.3478 H   0  0  0  0  0  0  0  0  0  0  0  0
    6.8787   -7.7460  -31.8474 H   0  0  0  0  0  0  0  0  0  0  0  0
    5.3609   -6.8805  -31.8614 H   0  0  0  0  0  0  0  0  0  0  0  0
  1  2  1  0  0  0  0
  1 24  1  0  0  0  0
  1 25  1  0  0  0  0
  1 26  1  0  0  0  0
  2  3  1  0  0  0  0
  3  4  2  0  0  0  0
  3  5  1  0  0  0  0
  5  6  1  0  0  0  0
  5 27  1  0  0  0  0
  5 28  1  0  0  0  0
  6  7  1  0  0  0  0
  6 21  1  0  0  0  0
  6 29  1  1  0  0  0
  7  8  1  0  0  0  0
  7 30  1  0  0  0  0
  8  9  2  0  0  0  0
  8 10  2  0  0  0  0
  8 11  1  0  0  0  0
 11 12  2  0  0  0  0
 11 20  1  0  0  0  0
 12 13  1  0  0  0  0
 12 31  1  0  0  0  0
 13 14  1  0  0  0  0
 13 18  2  0  0  0  0
 14 15  2  0  0  0  0
 14 16  1  0  0  0  0
 16 17  1  0  0  0  0
 17 32  1  0  0  0  0
 17 33  1  0  0  0  0
 17 34  1  0  0  0  0
 18 19  1  0  0  0  0
 18 20  1  0  0  0  0
 19 35  1  0  0  0  0
 19 36  1  0  0  0  0
 19 37  1  0  0  0  0
 21 22  1  0  0  0  0
 21 23  2  0  0  0  0
M  CHG  1  22  -1
M  END
$$$$
