##########                                Name: HTS1710-00179738-01
##########                    Molecular_Weight:             369.739
##########                DOCK_Rotatable_Bonds:                   6
##########                       Formal_Charge:                  -2
##########                     HBond_Acceptors:                  10
##########                        HBond_Donors:                   2
##########                         Heavy_Atoms:                  24
##########                          Grid_Score:          -77.190720
##########                     Grid_vdw_energy:          -38.773224
##########                      Grid_es_energy:          -38.417496
##########           Internal_energy_repulsive:           14.030599

@<TRIPOS>MOLECULE
HTS1710-00179738-01
 32 33 1 0 0
SMALL
USER_CHARGES


@<TRIPOS>ATOM
      1 S           1.5909  -11.0777  -33.6391 S.O2    1  UNL1        0.0724
      2 C           2.7629  -11.9050  -29.7993 C.ar    1  UNL1        0.0175
      3 C           5.3573   -8.3962  -32.9612 C.ar    1  UNL1        0.0405
      4 C           1.9843  -11.9558  -32.1151 C.ar    1  UNL1        0.1092
      5 C           2.4371  -11.2367  -30.9946 C.ar    1  UNL1       -0.0248
      6 N           3.0684  -10.9120  -34.4654 N.pl3   1  UNL1       -0.2162
      7 C           3.2355  -11.0970  -28.6237 C.2     1  UNL1        0.0731
      8 C           5.6418   -7.8232  -31.5942 C.2     1  UNL1        0.0752
      9 O           0.7055  -11.8522  -34.5150 O.2     1  UNL1       -0.1500
     10 O           1.3096   -9.6899  -33.2587 O.2     1  UNL1       -0.1500
     11 C           2.6434  -13.3115  -29.7402 C.ar    1  UNL1        0.0499
     12 C           6.0448   -7.9691  -34.1230 C.ar    1  UNL1        0.1258
     13 C           4.3654   -9.3898  -33.0809 C.ar    1  UNL1       -0.0270
     14 C           4.0475   -9.9494  -34.3337 C.ar    1  UNL1        0.0489
     15 O           2.7259  -11.3284  -27.5409 O.co2   1  UNL1       -0.5446
     16 O           5.7383   -8.6159  -30.6737 O.co2   1  UNL1       -0.5445
     17 C           1.8572  -13.3530  -32.0438 C.ar    1  UNL1       -0.0337
     18 C           2.1906  -14.0276  -30.8606 C.ar    1  UNL1       -0.0409
     19 C           5.7428   -8.5464  -35.3683 C.ar    1  UNL1       -0.0177
     20 O           5.7731   -6.6149  -31.5000 O.co2   1  UNL1       -0.5445
     21 O           4.0833  -10.2496  -28.8430 O.co2   1  UNL1       -0.5446
     22 C           4.7525   -9.5332  -35.4741 C.ar    1  UNL1       -0.0358
     23 CL          3.0827  -14.2088  -28.2947 Cl      1  UNL1       -0.0829
     24 O           6.9946   -6.9885  -34.0677 O.3     1  UNL1       -0.5061
     25 H           2.5312  -10.2105  -31.0491 H       1  UNL1        0.0644
     26 H           3.2522  -11.6069  -35.1380 H       1  UNL1        0.1737
     27 H           3.8644   -9.7123  -32.2382 H       1  UNL1        0.0644
     28 H           1.5184  -13.8828  -32.8620 H       1  UNL1        0.0638
     29 H           2.1030  -15.0548  -30.8127 H       1  UNL1        0.0633
     30 H           6.2539   -8.2415  -36.2114 H       1  UNL1        0.0655
     31 H           4.5415   -9.9545  -36.3923 H       1  UNL1        0.0638
     32 H           7.2579   -6.5465  -34.8509 H       1  UNL1        0.2922
@<TRIPOS>BOND
     1     2     5   ar
     2     3    13   ar
     3     1     4    1
     4     4     5   ar
     5     1     6    1
     6     2     7    1
     7     3     8    1
     8     1     9    2
     9     1    10    2
    10    11    18   ar
    11    12    19   ar
    12    13    14   ar
    13     6    14    1
    14     7    15   ar
    15     8    16   ar
    16     4    17   ar
    17    17    18   ar
    18    19    22   ar
    19     8    20   ar
    20     7    21   ar
    21    14    22   ar
    22    11    23    1
    23    12    24    1
    24     2    11   ar
    25     3    12   ar
    26     5    25    1
    27     6    26    1
    28    13    27    1
    29    17    28    1
    30    18    29    1
    31    19    30    1
    32    22    31    1
    33    24    32    1
@<TRIPOS>SUBSTRUCTURE
     1 UNL1        1 TEMP              0 ****  ****    0 ROOT


