##########                                Name: HTS1710-04760755-01
##########                    Molecular_Weight:             317.278
##########                DOCK_Rotatable_Bonds:                   5
##########                       Formal_Charge:                  -2
##########                     HBond_Acceptors:                   8
##########                        HBond_Donors:                   1
##########                         Heavy_Atoms:                  23
##########                          Grid_Score:          -76.033112
##########                     Grid_vdw_energy:          -38.836269
##########                      Grid_es_energy:          -37.196846
##########           Internal_energy_repulsive:            6.636751

@<TRIPOS>MOLECULE
HTS1710-04760755-01
 36 38 1 0 0
SMALL
USER_CHARGES


@<TRIPOS>ATOM
      1 CB          2.2218  -11.4655  -35.6564 C.3     1  UNL1       -0.0413
      2 CA          3.3896  -10.4787  -35.8865 C.3     1  UNL1        0.0601
      3 N           3.6965   -9.7912  -34.6231 N.am    1  UNL1       -0.3024
      4 C           4.5721  -10.3061  -33.6745 C.2     1  UNL1        0.2623
      5 O           5.1497  -11.3532  -33.9132 O.2     1  UNL1       -0.2685
      6 CA          4.7910   -9.5049  -32.4399 C.2     1  UNL1        0.1180
      7 N           5.3517   -8.2672  -32.4606 N.2     1  UNL1       -0.2654
      8 C           5.5216   -7.9717  -31.1816 C.2     1  UNL1       -0.0363
      9 O           5.1237   -8.9192  -30.2609 O.co2   1  UNL1       -0.7709
     10 C           4.6281   -9.8557  -31.1229 C.2     1  UNL1       -0.0549
     11 C           3.8897  -11.0222  -30.5983 C.ar    1  UNL1       -0.0259
     12 C           2.9261  -11.6395  -31.4243 C.ar    1  UNL1       -0.0514
     13 C           2.2055  -12.7610  -30.9823 C.ar    1  UNL1       -0.0157
     14 C           2.4621  -13.2976  -29.7142 C.ar    1  UNL1        0.1621
     15 O           1.7459  -14.3848  -29.2628 O.3     1  UNL1       -0.4849
     16 C           1.8041  -14.7270  -27.8621 C.3     1  UNL1        0.1237
     17 C           3.2760  -14.6364  -27.3966 C.3     1  UNL1        0.1237
     18 O           3.7721  -13.3149  -27.6938 O.3     1  UNL1       -0.4849
     19 C           3.4713  -12.7411  -28.9104 C.ar    1  UNL1        0.1626
     20 C           4.1826  -11.6136  -29.3491 C.ar    1  UNL1       -0.0096
     21 C           3.0732   -9.4453  -36.9807 C.2     1  UNL1        0.0617
     22 O           1.9185   -9.0696  -37.0922 O.co2   1  UNL1       -0.5479
     23 OXT         4.0060   -9.0684  -37.6691 O.co2   1  UNL1       -0.5479
     24 H           2.4891  -12.1618  -34.8892 H       1  UNL1        0.0251
     25 H           2.0184  -11.9952  -36.5636 H       1  UNL1        0.0251
     26 H           1.3497  -10.9225  -35.3573 H       1  UNL1        0.0251
     27 H           4.2359  -11.0424  -36.2198 H       1  UNL1        0.0557
     28 H           3.2618   -8.9268  -34.4411 H       1  UNL1        0.1497
     29 H           5.9331   -7.0726  -30.8862 H       1  UNL1        0.0668
     30 H           2.7483  -11.2610  -32.3678 H       1  UNL1        0.0624
     31 H           1.4892  -13.1884  -31.5899 H       1  UNL1        0.0655
     32 H           1.4406  -15.7230  -27.7183 H       1  UNL1        0.0731
     33 H           1.1974  -14.0529  -27.2942 H       1  UNL1        0.0731
     34 H           3.8632  -15.3665  -27.9134 H       1  UNL1        0.0731
     35 H           3.3388  -14.8225  -26.3448 H       1  UNL1        0.0731
     36 H           4.9253  -11.2135  -28.7548 H       1  UNL1        0.0661
@<TRIPOS>BOND
     1     1     2    1
     2     2     3    1
     3     3     4   am
     4     4     5    2
     5     4     6    1
     6     6     7    1
     7     7     8    2
     8     8     9    1
     9     9    10    1
    10     6    10    2
    11    10    11    1
    12    11    12   ar
    13    12    13   ar
    14    13    14   ar
    15    14    15    1
    16    15    16    1
    17    16    17    1
    18    17    18    1
    19    18    19    1
    20    14    19   ar
    21    19    20   ar
    22    11    20   ar
    23     2    21    1
    24    21    22   ar
    25    21    23   ar
    26     1    24    1
    27     1    25    1
    28     1    26    1
    29     2    27    1
    30     3    28    1
    31     8    29    1
    32    12    30    1
    33    13    31    1
    34    16    32    1
    35    16    33    1
    36    17    34    1
    37    17    35    1
    38    20    36    1
@<TRIPOS>SUBSTRUCTURE
     1 UNL1        1 TEMP              0 ****  ****    0 ROOT


