HTS1710-01378563-01
 OpenBabel03232612353D

 54 56  0  0  1  0  0  0  0  0999 V2000
    3.4508  -10.3769  -32.2859 C   0  0  0  0  0  0  0  0  0  0  0  0
    2.5151  -14.1098  -27.6373 S   0  0  0  0  0  0  0  0  0  0  0  0
    2.4910   -9.2985  -32.3215 C   0  0  0  0  0  0  0  0  0  0  0  0
    3.3529  -11.0251  -33.5162 C   0  0  0  0  0  0  0  0  0  0  0  0
    2.3654  -10.3827  -34.2897 N   0  0  0  0  0  0  0  0  0  0  0  0
    3.1230  -14.4348  -29.1762 N   0  0  0  0  0  0  0  0  0  0  0  0
    1.8743   -9.3382  -33.5341 C   0  0  0  0  0  0  0  0  0  0  0  0
    4.3945  -10.8552  -31.2088 C   0  0  2  0  0  0  0  0  0  0  0  0
    4.0309  -12.2447  -30.8310 N   0  3  0  0  0  0  0  0  0  0  0  0
    4.5649   -9.8660  -30.0371 C   0  0  0  0  0  0  0  0  0  0  0  0
    4.5660  -14.2086  -29.4214 C   0  0  0  0  0  0  0  0  0  0  0  0
    2.3193  -13.9524  -30.3190 C   0  0  0  0  0  0  0  0  0  0  0  0
    3.0744  -10.9167  -36.6565 C   0  0  0  0  0  0  0  0  0  0  0  0
    1.9195  -10.7697  -35.6366 C   0  0  0  0  0  0  0  0  0  0  0  0
    2.0222  -12.7430  -27.6471 O   0  0  0  0  0  0  0  0  0  0  0  0
    3.4942  -14.5248  -26.6469 O   0  0  0  0  0  0  0  0  0  0  0  0
    3.6415   -9.5689  -37.1277 C   0  0  0  0  0  0  0  0  0  0  0  0
    0.8799   -8.4216  -33.8975 C   0  0  0  0  0  0  0  0  0  0  0  0
    2.1535   -8.3385  -31.3584 C   0  0  0  0  0  0  0  0  0  0  0  0
    2.5815  -12.4514  -30.5755 C   0  0  0  0  0  0  0  0  0  0  0  0
    4.8562  -12.7129  -29.6923 C   0  0  0  0  0  0  0  0  0  0  0  0
    3.9357  -10.0463  -29.0099 O   0  5  0  0  0  0  0  0  0  0  0  0
    3.0547   -8.9959  -38.0299 O   0  5  0  0  0  0  0  0  0  0  0  0
    1.0417  -15.1602  -27.5335 C   0  0  0  0  0  0  0  0  0  0  0  0
    1.1520   -7.3915  -31.6878 C   0  0  0  0  0  0  0  0  0  0  0  0
    0.5228   -7.4383  -32.9551 C   0  0  0  0  0  0  0  0  0  0  0  0
    5.3447   -8.9512  -30.2256 O   0  0  0  0  0  0  0  0  0  0  0  0
    4.6467   -9.1648  -36.5709 O   0  0  0  0  0  0  0  0  0  0  0  0
    0.7581   -6.4074  -30.8022 O   0  0  0  0  0  0  0  0  0  0  0  0
   -0.2400   -5.4228  -31.1254 C   0  0  0  0  0  0  0  0  0  0  0  0
    3.9115  -11.8409  -33.8119 H   0  0  0  0  0  0  0  0  0  0  0  0
    5.3890  -10.8845  -31.6023 H   0  0  0  0  0  0  0  0  0  0  0  0
    4.2379  -12.8179  -31.6489 H   0  0  0  0  0  0  0  0  0  0  0  0
    4.8706  -14.7834  -30.2709 H   0  0  0  0  0  0  0  0  0  0  0  0
    5.1103  -14.5086  -28.5504 H   0  0  0  0  0  0  0  0  0  0  0  0
    2.5825  -14.5095  -31.1937 H   0  0  0  0  0  0  0  0  0  0  0  0
    1.2823  -14.0867  -30.0917 H   0  0  0  0  0  0  0  0  0  0  0  0
    2.7087  -11.4487  -37.5099 H   0  0  0  0  0  0  0  0  0  0  0  0
    3.8674  -11.4408  -36.1653 H   0  0  0  0  0  0  0  0  0  0  0  0
    1.4090  -11.7075  -35.5670 H   0  0  0  0  0  0  0  0  0  0  0  0
    1.2855   -9.9850  -35.9933 H   0  0  0  0  0  0  0  0  0  0  0  0
    0.4251   -8.4654  -34.8229 H   0  0  0  0  0  0  0  0  0  0  0  0
    2.6197   -8.3215  -30.4379 H   0  0  0  0  0  0  0  0  0  0  0  0
    2.2851  -11.8847  -29.7177 H   0  0  0  0  0  0  0  0  0  0  0  0
    2.0173  -12.1282  -31.4252 H   0  0  0  0  0  0  0  0  0  0  0  0
    5.8924  -12.5882  -29.9286 H   0  0  0  0  0  0  0  0  0  0  0  0
    4.6164  -12.1407  -28.8206 H   0  0  0  0  0  0  0  0  0  0  0  0
    0.3277  -14.8466  -28.2662 H   0  0  0  0  0  0  0  0  0  0  0  0
    0.6116  -15.0759  -26.5574 H   0  0  0  0  0  0  0  0  0  0  0  0
    1.3161  -16.1783  -27.7157 H   0  0  0  0  0  0  0  0  0  0  0  0
   -0.2045   -6.7450  -33.1905 H   0  0  0  0  0  0  0  0  0  0  0  0
   -0.3789   -4.7684  -30.2904 H   0  0  0  0  0  0  0  0  0  0  0  0
   -1.1638   -5.9126  -31.3522 H   0  0  0  0  0  0  0  0  0  0  0  0
    0.0805   -4.8551  -31.9739 H   0  0  0  0  0  0  0  0  0  0  0  0
  1  3  1  0  0  0  0
  1  4  2  0  0  0  0
  1  8  1  0  0  0  0
  2  6  1  0  0  0  0
  2 15  2  0  0  0  0
  2 16  2  0  0  0  0
  2 24  1  0  0  0  0
  3  7  2  0  0  0  0
  3 19  1  0  0  0  0
  4  5  1  0  0  0  0
  4 31  1  0  0  0  0
  5 14  1  0  0  0  0
  5  7  1  0  0  0  0
  6 11  1  0  0  0  0
  6 12  1  0  0  0  0
  7 18  1  0  0  0  0
  8  9  1  0  0  0  0
  8 10  1  0  0  0  0
  8 32  1  6  0  0  0
  9 20  1  0  0  0  0
  9 21  1  0  0  0  0
  9 33  1  0  0  0  0
 10 22  1  0  0  0  0
 10 27  2  0  0  0  0
 11 21  1  0  0  0  0
 11 34  1  0  0  0  0
 11 35  1  0  0  0  0
 12 20  1  0  0  0  0
 12 36  1  0  0  0  0
 12 37  1  0  0  0  0
 13 14  1  0  0  0  0
 13 17  1  0  0  0  0
 13 38  1  0  0  0  0
 13 39  1  0  0  0  0
 14 40  1  0  0  0  0
 14 41  1  0  0  0  0
 17 23  1  0  0  0  0
 17 28  2  0  0  0  0
 18 26  2  0  0  0  0
 18 42  1  0  0  0  0
 19 25  2  0  0  0  0
 19 43  1  0  0  0  0
 20 44  1  0  0  0  0
 20 45  1  0  0  0  0
 21 46  1  0  0  0  0
 21 47  1  0  0  0  0
 24 48  1  0  0  0  0
 24 49  1  0  0  0  0
 24 50  1  0  0  0  0
 25 26  1  0  0  0  0
 25 29  1  0  0  0  0
 26 51  1  0  0  0  0
 29 30  1  0  0  0  0
 30 52  1  0  0  0  0
 30 53  1  0  0  0  0
 30 54  1  0  0  0  0
M  CHG  3   9   1  22  -1  23  -1
M  END
$$$$
