HTS1710-00114362-01
 OpenBabel03232612343D

 23 23  0  0  1  0  0  0  0  0999 V2000
    3.1091  -10.0390  -30.3578 C   0  0  1  0  0  0  0  0  0  0  0  0
    4.3604   -9.4210  -31.0473 C   0  0  1  0  0  0  0  0  0  0  0  0
    3.1030  -11.5297  -30.8036 C   0  0  1  0  0  0  0  0  0  0  0  0
    4.4831  -10.1734  -32.4057 C   0  0  1  0  0  0  0  0  0  0  0  0
    3.8097  -11.5570  -32.1859 C   0  0  0  0  0  0  0  0  0  0  0  0
    2.9931   -9.8284  -28.8278 C   0  0  0  0  0  0  0  0  0  0  0  0
    4.3864   -7.8768  -31.1651 C   0  0  0  0  0  0  0  0  0  0  0  0
    3.8562   -9.4256  -33.6070 C   0  0  0  0  0  0  0  0  0  0  0  0
    3.7879  -12.4961  -29.8070 C   0  0  0  0  0  0  0  0  0  0  0  0
    3.0780  -13.2323  -29.1419 O   0  5  0  0  0  0  0  0  0  0  0  0
    3.6240   -8.9195  -28.3139 O   0  5  0  0  0  0  0  0  0  0  0  0
    2.6897   -9.0867  -33.4997 O   0  5  0  0  0  0  0  0  0  0  0  0
    3.3370   -7.2663  -31.0505 O   0  5  0  0  0  0  0  0  0  0  0  0
    4.5666   -9.1944  -34.5727 O   0  0  0  0  0  0  0  0  0  0  0  0
    5.4805   -7.3604  -31.3201 O   0  0  0  0  0  0  0  0  0  0  0  0
    2.2322  -10.5724  -28.2320 O   0  0  0  0  0  0  0  0  0  0  0  0
    5.0038  -12.4396  -29.7303 O   0  0  0  0  0  0  0  0  0  0  0  0
    2.2269   -9.5216  -30.6723 H   0  0  0  0  0  0  0  0  0  0  0  0
    5.2237   -9.5635  -30.4315 H   0  0  0  0  0  0  0  0  0  0  0  0
    2.0942  -11.8835  -30.8485 H   0  0  0  0  0  0  0  0  0  0  0  0
    5.5157  -10.2592  -32.6730 H   0  0  0  0  0  0  0  0  0  0  0  0
    3.0914  -11.7384  -32.9579 H   0  0  0  0  0  0  0  0  0  0  0  0
    4.5420  -12.3366  -32.2146 H   0  0  0  0  0  0  0  0  0  0  0  0
  1  2  1  0  0  0  0
  1  3  1  0  0  0  0
  1  6  1  0  0  0  0
  1 18  1  6  0  0  0
  2  4  1  0  0  0  0
  2  7  1  0  0  0  0
  2 19  1  1  0  0  0
  3  5  1  0  0  0  0
  3  9  1  0  0  0  0
  3 20  1  6  0  0  0
  4  8  1  0  0  0  0
  4  5  1  0  0  0  0
  4 21  1  6  0  0  0
  5 22  1  0  0  0  0
  5 23  1  0  0  0  0
  6 11  1  0  0  0  0
  6 16  2  0  0  0  0
  7 13  1  0  0  0  0
  7 15  2  0  0  0  0
  8 12  1  0  0  0  0
  8 14  2  0  0  0  0
  9 10  1  0  0  0  0
  9 17  2  0  0  0  0
M  CHG  4  10  -1  11  -1  12  -1  13  -1
M  END
$$$$
