HTS1710-04197911-01
 OpenBabel03232612353D

 41 43  0  0  1  0  0  0  0  0999 V2000
    3.9855  -11.7633  -34.5105 S   0  0  0  0  0  0  0  0  0  0  0  0
   -0.5317   -7.8153  -33.7355 N   0  0  0  0  0  0  0  0  0  0  0  0
   -1.0062   -7.3136  -32.5353 C   0  0  0  0  0  0  0  0  0  0  0  0
    3.5318  -11.6567  -29.9073 C   0  0  0  0  0  0  0  0  0  0  0  0
   -2.6668   -6.8328  -34.2239 C   0  0  1  0  0  0  0  0  0  0  0  0
   -1.3861   -7.4168  -34.8571 C   0  0  0  0  0  0  0  0  0  0  0  0
    3.6975  -12.9846  -33.3622 N   0  0  0  0  0  0  0  0  0  0  0  0
    2.9558  -12.7979  -29.2984 C   0  0  0  0  0  0  0  0  0  0  0  0
    3.8797  -10.4076  -29.1429 C   0  0  0  0  0  0  0  0  0  0  0  0
   -2.2329   -6.4451  -32.7857 C   0  0  0  0  0  0  0  0  0  0  0  0
   -3.3053   -5.7166  -35.0739 C   0  0  0  0  0  0  0  0  0  0  0  0
    2.6544  -13.9214  -29.9835 N   0  0  0  0  0  0  0  0  0  0  0  0
    2.6497  -10.5758  -34.2882 C   0  0  0  0  0  0  0  0  0  0  0  0
    3.4687  -12.8744  -32.0066 C   0  0  0  0  0  0  0  0  0  0  0  0
    0.5289   -8.7509  -33.9177 C   0  0  0  0  0  0  0  0  0  0  0  0
    5.2981  -11.1910  -34.1954 O   0  0  0  0  0  0  0  0  0  0  0  0
    3.7097  -12.4684  -35.7653 O   0  0  0  0  0  0  0  0  0  0  0  0
    3.7991  -11.7119  -31.2877 C   0  0  0  0  0  0  0  0  0  0  0  0
   -0.5247   -7.5356  -31.4370 O   0  0  0  0  0  0  0  0  0  0  0  0
    4.8479   -9.7673  -29.5134 O   0  5  0  0  0  0  0  0  0  0  0  0
   -3.0010   -4.5597  -34.8373 O   0  5  0  0  0  0  0  0  0  0  0  0
    2.9066  -13.9547  -31.3068 C   0  0  0  0  0  0  0  0  0  0  0  0
    2.8289   -9.4404  -33.4782 C   0  0  0  0  0  0  0  0  0  0  0  0
    1.4121  -10.7936  -34.9174 C   0  0  0  0  0  0  0  0  0  0  0  0
    1.7738   -8.5323  -33.2969 C   0  0  0  0  0  0  0  0  0  0  0  0
    0.3578   -9.8860  -34.7350 C   0  0  0  0  0  0  0  0  0  0  0  0
    2.6356  -12.8715  -27.5732 Cl  0  0  0  0  0  0  0  0  0  0  0  0
    3.1766  -10.1344  -28.1849 O   0  0  0  0  0  0  0  0  0  0  0  0
   -4.0936   -6.0711  -35.9320 O   0  0  0  0  0  0  0  0  0  0  0  0
   -3.4787   -7.5285  -34.1833 H   0  0  0  0  0  0  0  0  0  0  0  0
   -0.8955   -6.6773  -35.4548 H   0  0  0  0  0  0  0  0  0  0  0  0
   -1.6062   -8.2450  -35.4979 H   0  0  0  0  0  0  0  0  0  0  0  0
    3.6934  -13.9031  -33.7166 H   0  0  0  0  0  0  0  0  0  0  0  0
   -1.9835   -5.4061  -32.7289 H   0  0  0  0  0  0  0  0  0  0  0  0
   -3.0061   -6.5991  -32.0623 H   0  0  0  0  0  0  0  0  0  0  0  0
    4.2329  -10.9078  -31.7674 H   0  0  0  0  0  0  0  0  0  0  0  0
    2.6760  -14.8137  -31.8303 H   0  0  0  0  0  0  0  0  0  0  0  0
    3.7370   -9.2745  -33.0166 H   0  0  0  0  0  0  0  0  0  0  0  0
    1.2783  -11.6240  -35.5155 H   0  0  0  0  0  0  0  0  0  0  0  0
    1.9115   -7.6986  -32.7044 H   0  0  0  0  0  0  0  0  0  0  0  0
   -0.5478  -10.0505  -35.2019 H   0  0  0  0  0  0  0  0  0  0  0  0
  1  7  1  0  0  0  0
  1 13  1  0  0  0  0
  1 16  2  0  0  0  0
  1 17  2  0  0  0  0
  2 15  1  0  0  0  0
  2  3  1  0  0  0  0
  2  6  1  0  0  0  0
  3 10  1  0  0  0  0
  3 19  2  0  0  0  0
  4 18  2  0  0  0  0
  4  8  1  0  0  0  0
  4  9  1  0  0  0  0
  5  6  1  0  0  0  0
  5 11  1  0  0  0  0
  5 10  1  0  0  0  0
  5 30  1  1  0  0  0
  6 31  1  0  0  0  0
  6 32  1  0  0  0  0
  7 14  1  0  0  0  0
  7 33  1  0  0  0  0
  8 27  1  0  0  0  0
  8 12  2  0  0  0  0
  9 20  1  0  0  0  0
  9 28  2  0  0  0  0
 10 34  1  0  0  0  0
 10 35  1  0  0  0  0
 11 21  1  0  0  0  0
 11 29  2  0  0  0  0
 12 22  1  0  0  0  0
 13 23  2  0  0  0  0
 13 24  1  0  0  0  0
 14 18  1  0  0  0  0
 14 22  2  0  0  0  0
 15 26  1  0  0  0  0
 15 25  2  0  0  0  0
 18 36  1  0  0  0  0
 22 37  1  0  0  0  0
 23 25  1  0  0  0  0
 23 38  1  0  0  0  0
 24 26  2  0  0  0  0
 24 39  1  0  0  0  0
 25 40  1  0  0  0  0
 26 41  1  0  0  0  0
M  CHG  2  20  -1  21  -1
M  END
$$$$
