##########                                Name: HTS1710-03604145-01
##########                    Molecular_Weight:             310.371
##########                DOCK_Rotatable_Bonds:                  10
##########                       Formal_Charge:                  -2
##########                     HBond_Acceptors:                   6
##########                        HBond_Donors:                   0
##########                         Heavy_Atoms:                  21
##########                          Grid_Score:          -75.269241
##########                     Grid_vdw_energy:          -35.571701
##########                      Grid_es_energy:          -39.697540
##########           Internal_energy_repulsive:            6.049623

@<TRIPOS>MOLECULE
HTS1710-03604145-01
 39 39 1 0 0
SMALL
USER_CHARGES


@<TRIPOS>ATOM
      1 C           2.4442   -8.6387  -31.3865 C.3     1  UNL1        0.0038
      2 C           4.8628   -9.4583  -31.4675 C.2     1  UNL1        0.0550
      3 C           3.4229   -9.7896  -31.0430 C.3     1  UNL1        0.0499
      4 C           2.8968   -7.2931  -30.8012 C.2     1  UNL1        0.0431
      5 S           2.8902  -11.3694  -31.8433 S.3     1  UNL1       -0.1464
      6 O           5.2318   -9.8829  -32.5486 O.co2   1  UNL1       -0.5487
      7 O           2.5769   -7.0528  -29.6491 O.co2   1  UNL1       -0.5498
      8 C           4.0649  -12.5478  -31.0561 C.3     1  UNL1        0.0194
      9 O           5.5348   -8.7806  -30.7094 O.co2   1  UNL1       -0.5487
     10 C           3.4653  -13.1313  -29.7869 C.ar    1  UNL1       -0.0373
     11 O           3.5707   -6.5691  -31.5122 O.co2   1  UNL1       -0.5498
     12 C           2.3222  -14.1869  -27.4319 C.ar    1  UNL1        0.1205
     13 C           2.7346  -14.3321  -29.8316 C.ar    1  UNL1       -0.0543
     14 C           3.6199  -12.4611  -28.5612 C.ar    1  UNL1       -0.0543
     15 C           2.1638  -14.8603  -28.6628 C.ar    1  UNL1       -0.0197
     16 C           3.0471  -12.9853  -27.3912 C.ar    1  UNL1       -0.0197
     17 O           1.7701  -14.6538  -26.2522 O.3     1  UNL1       -0.4920
     18 C           0.7918  -15.7123  -26.1759 C.3     1  UNL1        0.0896
     19 C           0.3556  -15.9231  -24.7035 C.3     1  UNL1       -0.0189
     20 C          -1.0159  -16.6345  -24.5835 C.3     1  UNL1       -0.0528
     21 C          -1.5144  -16.6926  -23.1244 C.3     1  UNL1       -0.0652
     22 H           1.4791   -8.8784  -30.9913 H       1  UNL1        0.0339
     23 H           2.4172   -8.5394  -32.4515 H       1  UNL1        0.0339
     24 H           3.4036   -9.9086  -29.9798 H       1  UNL1        0.0476
     25 H           4.9703  -12.0323  -30.8128 H       1  UNL1        0.0425
     26 H           4.2660  -13.3447  -31.7413 H       1  UNL1        0.0425
     27 H           2.6174  -14.8280  -30.7291 H       1  UNL1        0.0622
     28 H           4.1563  -11.5804  -28.5209 H       1  UNL1        0.0622
     29 H           1.6280  -15.7414  -28.7033 H       1  UNL1        0.0654
     30 H           3.1597  -12.4843  -26.4961 H       1  UNL1        0.0654
     31 H           1.2192  -16.6181  -26.5524 H       1  UNL1        0.0696
     32 H          -0.0628  -15.4447  -26.7614 H       1  UNL1        0.0696
     33 H           0.2891  -14.9679  -24.2258 H       1  UNL1        0.0298
     34 H           1.0868  -16.5486  -24.2356 H       1  UNL1        0.0298
     35 H          -0.9203  -17.6332  -24.9554 H       1  UNL1        0.0264
     36 H          -1.7283  -16.0745  -25.1528 H       1  UNL1        0.0264
     37 H          -0.8183  -17.2485  -22.5316 H       1  UNL1        0.0230
     38 H          -2.4711  -17.1707  -23.0931 H       1  UNL1        0.0230
     39 H          -1.5993  -15.6989  -22.7366 H       1  UNL1        0.0230
@<TRIPOS>BOND
     1     2     3    1
     2     1     3    1
     3     1     4    1
     4     3     5    1
     5     2     6   ar
     6     4     7   ar
     7     5     8    1
     8     2     9   ar
     9     8    10    1
    10     4    11   ar
    11    12    16   ar
    12    10    13   ar
    13    10    14   ar
    14    13    15   ar
    15    14    16   ar
    16    12    17    1
    17    17    18    1
    18    18    19    1
    19    19    20    1
    20    20    21    1
    21    12    15   ar
    22     1    22    1
    23     1    23    1
    24     3    24    1
    25     8    25    1
    26     8    26    1
    27    13    27    1
    28    14    28    1
    29    15    29    1
    30    16    30    1
    31    18    31    1
    32    18    32    1
    33    19    33    1
    34    19    34    1
    35    20    35    1
    36    20    36    1
    37    21    37    1
    38    21    38    1
    39    21    39    1
@<TRIPOS>SUBSTRUCTURE
     1 UNL1        1 TEMP              0 ****  ****    0 ROOT


