##########                                Name: HTS1710-02531716-01
##########                    Molecular_Weight:              292.42
##########                DOCK_Rotatable_Bonds:                  11
##########                       Formal_Charge:                  -2
##########                     HBond_Acceptors:                   6
##########                        HBond_Donors:                   0
##########                         Heavy_Atoms:                  18
##########                          Grid_Score:          -75.112312
##########                     Grid_vdw_energy:          -36.084164
##########                      Grid_es_energy:          -39.028149
##########           Internal_energy_repulsive:            9.709826

@<TRIPOS>MOLECULE
HTS1710-02531716-01
 38 37 1 0 0
SMALL
USER_CHARGES


@<TRIPOS>ATOM
      1 C           2.7178  -12.3453  -32.4003 C.3     1  UNL1        0.0598
      2 C           4.6626   -9.1341  -30.2949 C.2     1  UNL1        0.0516
      3 C           4.2170   -9.8785  -35.3281 C.2     1  UNL1        0.0516
      4 S           2.7107  -10.7209  -31.4916 S.3     1  UNL1       -0.1376
      5 S           3.8791  -12.2517  -33.8558 S.3     1  UNL1       -0.1376
      6 O           3.9494   -8.8250  -29.3569 O.co2   1  UNL1       -0.5490
      7 O           4.9907   -9.5292  -34.4546 O.co2   1  UNL1       -0.5490
      8 C           4.4565  -10.5223  -30.9084 C.3     1  UNL1        0.0345
      9 C           3.1761  -10.9362  -34.9579 C.3     1  UNL1        0.0345
     10 O           4.1957   -9.4506  -36.4694 O.co2   1  UNL1       -0.5490
     11 O           5.5345   -8.4362  -30.7828 O.co2   1  UNL1       -0.5490
     12 C           3.2187  -13.4961  -31.4668 C.3     1  UNL1       -0.0293
     13 C           1.2880  -12.6783  -32.9045 C.3     1  UNL1       -0.0412
     14 C           2.4048  -13.6888  -30.1556 C.3     1  UNL1       -0.0510
     15 C           5.2661  -13.4785  -28.0684 C.3     1  UNL1       -0.0559
     16 C           3.7359  -13.6833  -27.9586 C.3     1  UNL1       -0.0533
     17 C           3.1780  -14.5404  -29.1209 C.3     1  UNL1       -0.0530
     18 C           6.0521  -14.7495  -27.6820 C.3     1  UNL1       -0.0653
     19 H           4.6684  -11.2681  -30.1710 H       1  UNL1        0.0437
     20 H           5.1152  -10.6323  -31.7443 H       1  UNL1        0.0437
     21 H           2.8155  -11.3943  -35.8552 H       1  UNL1        0.0437
     22 H           2.3859  -10.4487  -34.4261 H       1  UNL1        0.0437
     23 H           4.2331  -13.2865  -31.1987 H       1  UNL1        0.0287
     24 H           3.1015  -14.4019  -32.0242 H       1  UNL1        0.0287
     25 H           0.9431  -11.8923  -33.5435 H       1  UNL1        0.0251
     26 H           0.6278  -12.7733  -32.0679 H       1  UNL1        0.0251
     27 H           1.3074  -13.5986  -33.4499 H       1  UNL1        0.0251
     28 H           1.4829  -14.1794  -30.3887 H       1  UNL1        0.0266
     29 H           2.2286  -12.7239  -29.7279 H       1  UNL1        0.0266
     30 H           5.5553  -12.6822  -27.4148 H       1  UNL1        0.0263
     31 H           5.4948  -13.2474  -29.0878 H       1  UNL1        0.0263
     32 H           3.2576  -12.7262  -27.9753 H       1  UNL1        0.0265
     33 H           3.5375  -14.2004  -27.0431 H       1  UNL1        0.0265
     34 H           3.9944  -15.0249  -29.6145 H       1  UNL1        0.0265
     35 H           2.4960  -15.2529  -28.7060 H       1  UNL1        0.0265
     36 H           5.8411  -15.0038  -26.6642 H       1  UNL1        0.0230
     37 H           7.1007  -14.5683  -27.7943 H       1  UNL1        0.0230
     38 H           5.7596  -15.5575  -28.3195 H       1  UNL1        0.0230
@<TRIPOS>BOND
     1     1     4    1
     2     1     5    1
     3     1    12    1
     4     1    13    1
     5     2     6   ar
     6     2     8    1
     7     2    11   ar
     8     3     7   ar
     9     3     9    1
    10     3    10   ar
    11     4     8    1
    12     5     9    1
    13    12    14    1
    14    14    17    1
    15    15    16    1
    16    15    18    1
    17    16    17    1
    18     8    19    1
    19     8    20    1
    20     9    21    1
    21     9    22    1
    22    12    23    1
    23    12    24    1
    24    13    25    1
    25    13    26    1
    26    13    27    1
    27    14    28    1
    28    14    29    1
    29    15    30    1
    30    15    31    1
    31    16    32    1
    32    16    33    1
    33    17    34    1
    34    17    35    1
    35    18    36    1
    36    18    37    1
    37    18    38    1
@<TRIPOS>SUBSTRUCTURE
     1 UNL1        1 TEMP              0 ****  ****    0 ROOT


