##########                                Name: HTS1710-01188765-01
##########                    Molecular_Weight:             391.358
##########                DOCK_Rotatable_Bonds:                   9
##########                       Formal_Charge:                  -2
##########                     HBond_Acceptors:                  10
##########                        HBond_Donors:                   2
##########                         Heavy_Atoms:                  27
##########                          Grid_Score:          -75.307129
##########                     Grid_vdw_energy:          -42.837528
##########                      Grid_es_energy:          -32.469597
##########           Internal_energy_repulsive:           12.472637

@<TRIPOS>MOLECULE
HTS1710-01188765-01
 40 41 1 0 0
SMALL
USER_CHARGES


@<TRIPOS>ATOM
      1 S           2.3253   -9.5626  -33.8179 S.O2    1  UNL1        0.0759
      2 C           2.3255  -11.1801  -33.0057 C.ar    1  UNL1        0.1504
      3 C          -1.2563   -6.0487  -36.0637 C.ar    1  UNL1        0.0388
      4 N           0.6752   -9.2418  -34.0734 N.pl3   1  UNL1       -0.2160
      5 C          -1.6362   -6.4409  -34.7477 C.ar    1  UNL1        0.1275
      6 C          -1.9235   -4.9102  -36.8328 C.2     1  UNL1        0.0752
      7 O           2.7431   -8.5536  -32.8394 O.2     1  UNL1       -0.1499
      8 O           2.9240   -9.6996  -35.1490 O.2     1  UNL1       -0.1499
      9 C          -0.9772   -7.5041  -34.1055 C.ar    1  UNL1        0.0028
     10 C          -0.2019   -6.7602  -36.6846 C.ar    1  UNL1       -0.0476
     11 C           1.4377  -12.1963  -33.4178 C.ar    1  UNL1        0.1466
     12 C           3.7441  -10.8212  -28.7436 C.2     1  UNL1        0.0646
     13 C           4.4312  -12.1026  -29.0785 C.2     1  UNL1       -0.0388
     14 C           3.2229  -11.4219  -31.9468 C.ar    1  UNL1       -0.0243
     15 C           0.0640   -8.1984  -34.7394 C.ar    1  UNL1        0.0515
     16 C           4.2092  -12.8796  -30.1698 C.2     1  UNL1       -0.0529
     17 O          -2.8637   -4.3503  -36.2932 O.co2   1  UNL1       -0.5445
     18 O           2.7737  -10.8715  -28.0077 O.co2   1  UNL1       -0.5452
     19 C           3.2491  -12.6653  -31.2892 C.ar    1  UNL1       -0.0229
     20 C           1.4636  -13.4457  -32.7614 C.ar    1  UNL1       -0.0174
     21 C           0.4505   -7.8182  -36.0355 C.ar    1  UNL1       -0.0385
     22 O          -2.6423   -5.8181  -34.0614 O.3     1  UNL1       -0.5061
     23 O          -1.4960   -4.6136  -37.9340 O.co2   1  UNL1       -0.5445
     24 O           4.2056   -9.8055  -29.2322 O.co2   1  UNL1       -0.5452
     25 C           2.3611  -13.6756  -31.7077 C.ar    1  UNL1       -0.0510
     26 O           0.5659  -11.9484  -34.4632 O.3     1  UNL1       -0.4931
     27 C           0.6510  -12.6080  -35.7378 C.3     1  UNL1        0.0789
     28 H           0.0588   -9.9042  -33.6854 H       1  UNL1        0.1737
     29 H          -1.2641   -7.7780  -33.1527 H       1  UNL1        0.0673
     30 H           0.0936   -6.4942  -37.6370 H       1  UNL1        0.0626
     31 H           5.1480  -12.4318  -28.4130 H       1  UNL1        0.0635
     32 H           3.8707  -10.6758  -31.6491 H       1  UNL1        0.0644
     33 H           4.7835  -13.7348  -30.2325 H       1  UNL1        0.0624
     34 H           0.8186  -14.1945  -33.0584 H       1  UNL1        0.0655
     35 H           1.2171   -8.3192  -36.5114 H       1  UNL1        0.0637
     36 H          -3.2837   -5.3156  -34.5240 H       1  UNL1        0.2922
     37 H           2.3707  -14.5929  -31.2351 H       1  UNL1        0.0625
     38 H          -0.1285  -12.2500  -36.3774 H       1  UNL1        0.0660
     39 H           0.5435  -13.6637  -35.6010 H       1  UNL1        0.0660
     40 H           1.6015  -12.4010  -36.1837 H       1  UNL1        0.0660
@<TRIPOS>BOND
     1     1     2    1
     2     3    10   ar
     3     1     4    1
     4     5     9   ar
     5     3     6    1
     6     1     7    2
     7     1     8    2
     8     9    15   ar
     9    10    21   ar
    10     2    11   ar
    11    12    13    1
    12    13    16    2
    13     2    14   ar
    14     4    15    1
    15    16    19    1
    16     6    17   ar
    17    12    18   ar
    18    14    19   ar
    19    11    20   ar
    20    15    21   ar
    21     5    22    1
    22     6    23   ar
    23    12    24   ar
    24    19    25   ar
    25    11    26    1
    26    26    27    1
    27     3     5   ar
    28    20    25   ar
    29     4    28    1
    30     9    29    1
    31    10    30    1
    32    13    31    1
    33    14    32    1
    34    16    33    1
    35    20    34    1
    36    21    35    1
    37    22    36    1
    38    25    37    1
    39    27    38    1
    40    27    39    1
    41    27    40    1
@<TRIPOS>SUBSTRUCTURE
     1 UNL1        1 TEMP              0 ****  ****    0 ROOT


