##########                                Name: HTS1710-00634943-01
##########                    Molecular_Weight:             331.282
##########                DOCK_Rotatable_Bonds:                   5
##########                       Formal_Charge:                  -2
##########                     HBond_Acceptors:                   8
##########                        HBond_Donors:                   0
##########                         Heavy_Atoms:                  24
##########                          Grid_Score:          -75.533340
##########                     Grid_vdw_energy:          -37.951477
##########                      Grid_es_energy:          -37.581863
##########           Internal_energy_repulsive:            7.296195

@<TRIPOS>MOLECULE
HTS1710-00634943-01
 37 39 1 0 0
SMALL
USER_CHARGES


@<TRIPOS>ATOM
      1 C           2.9511  -10.2821  -32.3883 C.3     1  UNL1        0.0797
      2 N           4.0722  -10.4239  -33.3627 N.am    1  UNL1       -0.2870
      3 C           3.4714   -9.1958  -31.4429 C.2     1  UNL1        0.0167
      4 C           2.6310  -11.5745  -31.6394 C.ar    1  UNL1       -0.0188
      5 C           5.1075   -9.5526  -33.0722 C.2     1  UNL1        0.2329
      6 C           3.9596  -11.1682  -34.6408 C.3     1  UNL1        0.0209
      7 C           4.6851   -8.8088  -31.8779 C.2     1  UNL1       -0.0358
      8 C           2.5759   -8.6065  -30.3987 C.2     1  UNL1        0.1579
      9 C           3.4274  -11.9626  -30.5381 C.ar    1  UNL1       -0.0109
     10 C           1.5358  -12.3845  -32.0409 C.ar    1  UNL1       -0.0528
     11 O           6.1409   -9.4170  -33.7064 O.2     1  UNL1       -0.2712
     12 C           2.9269  -10.6032  -35.6564 C.3     1  UNL1        0.0027
     13 O           5.4659   -7.8316  -31.3627 O.co2   1  UNL1       -0.8701
     14 C           1.6002   -7.5245  -30.8684 C.3     1  UNL1       -0.0017
     15 O           2.5093   -9.0630  -29.2700 O.2     1  UNL1       -0.2926
     16 C           3.0911  -13.1438  -29.8732 C.ar    1  UNL1        0.1666
     17 C           1.2248  -13.5723  -31.3469 C.ar    1  UNL1       -0.0158
     18 C           3.5082   -9.5672  -36.6330 C.2     1  UNL1        0.0432
     19 C           2.0319  -13.9162  -30.2599 C.ar    1  UNL1        0.1662
     20 O           3.7157  -13.6915  -28.7955 O.3     1  UNL1       -0.4526
     21 O           4.6203   -9.1420  -36.3723 O.co2   1  UNL1       -0.5498
     22 O           2.8352   -9.2319  -37.5928 O.co2   1  UNL1       -0.5498
     23 O           1.9122  -15.0066  -29.4543 O.3     1  UNL1       -0.4526
     24 C           2.9878  -14.9129  -28.4734 C.3     1  UNL1        0.2332
     25 H           2.0250  -10.0388  -32.8659 H       1  UNL1        0.0602
     26 H           3.6798  -12.1753  -34.4121 H       1  UNL1        0.0468
     27 H           4.9149  -11.0827  -35.1154 H       1  UNL1        0.0468
     28 H           4.2317  -11.3914  -30.2350 H       1  UNL1        0.0659
     29 H           0.9608  -12.1007  -32.8496 H       1  UNL1        0.0622
     30 H           2.1346  -10.1392  -35.1069 H       1  UNL1        0.0340
     31 H           2.5915  -11.4297  -36.2472 H       1  UNL1        0.0340
     32 H           1.8222   -7.2592  -31.8809 H       1  UNL1        0.0309
     33 H           1.6976   -6.6611  -30.2439 H       1  UNL1        0.0309
     34 H           0.5989   -7.8968  -30.8086 H       1  UNL1        0.0309
     35 H           0.4300  -14.1658  -31.6317 H       1  UNL1        0.0655
     36 H           2.5851  -14.8563  -27.4836 H       1  UNL1        0.1166
     37 H           3.6258  -15.7712  -28.5062 H       1  UNL1        0.1166
@<TRIPOS>BOND
     1     1     2    1
     2     1     3    1
     3     1     4    1
     4     2     5   am
     5     2     6    1
     6     3     7    2
     7     3     8    1
     8     4     9   ar
     9     4    10   ar
    10     5    11    2
    11     6    12    1
    12     7    13    1
    13     8    14    1
    14     8    15    2
    15     9    16   ar
    16    10    17   ar
    17    12    18    1
    18    16    19   ar
    19    16    20    1
    20    18    21   ar
    21    18    22   ar
    22    19    23    1
    23    20    24    1
    24     5     7    1
    25    17    19   ar
    26    23    24    1
    27     1    25    1
    28     6    26    1
    29     6    27    1
    30     9    28    1
    31    10    29    1
    32    12    30    1
    33    12    31    1
    34    14    32    1
    35    14    33    1
    36    14    34    1
    37    17    35    1
    38    24    36    1
    39    24    37    1
@<TRIPOS>SUBSTRUCTURE
     1 UNL1        1 TEMP              0 ****  ****    0 ROOT


