HTS1710-01997840-01
 OpenBabel03232612353D

 47 49  0  0  1  0  0  0  0  0999 V2000
    1.6541   -8.9940  -33.0634 C   0  0  0  0  0  0  0  0  0  0  0  0
    3.3142   -9.4650  -31.4706 N   0  0  0  0  0  0  0  0  0  0  0  0
    1.9380   -7.8844  -32.3486 C   0  0  0  0  0  0  0  0  0  0  0  0
    2.9710   -8.1327  -31.3335 C   0  0  0  0  0  0  0  0  0  0  0  0
    2.5498  -10.1285  -32.5568 C   0  0  2  0  0  0  0  0  0  0  0  0
    0.6683   -9.2559  -34.1606 C   0  0  0  0  0  0  0  0  0  0  0  0
    3.4472  -10.6830  -33.6566 C   0  0  0  0  0  0  0  0  0  0  0  0
    3.4232   -7.3454  -30.5189 O   0  0  0  0  0  0  0  0  0  0  0  0
    0.0992   -8.1009  -34.9274 C   0  0  0  0  0  0  0  0  0  0  0  0
    2.9840  -12.0441  -27.9708 C   0  0  0  0  0  0  0  0  0  0  0  0
    0.3366  -10.3939  -34.4482 O   0  0  0  0  0  0  0  0  0  0  0  0
    1.3512   -6.6687  -32.4434 O   0  5  0  0  0  0  0  0  0  0  0  0
    5.2941  -10.3355  -35.1877 N   0  0  0  0  0  0  0  0  0  0  0  0
    2.4389  -10.9534  -27.9782 O   0  5  0  0  0  0  0  0  0  0  0  0
    4.1973  -10.2307  -30.5700 C   0  0  0  0  0  0  0  0  0  0  0  0
    0.5562   -7.8116  -36.2266 C   0  0  0  0  0  0  0  0  0  0  0  0
   -0.9335   -7.3278  -34.3695 C   0  0  0  0  0  0  0  0  0  0  0  0
   -1.0171   -5.9541  -36.3807 C   0  0  0  0  0  0  0  0  0  0  0  0
    2.6934  -12.9754  -27.2408 O   0  0  0  0  0  0  0  0  0  0  0  0
    0.0076   -6.7410  -36.9510 C   0  0  0  0  0  0  0  0  0  0  0  0
   -1.4844   -6.2567  -35.0906 C   0  0  0  0  0  0  0  0  0  0  0  0
    4.4868   -9.9021  -34.1985 C   0  0  0  0  0  0  0  0  0  0  0  0
   -1.5884   -4.8884  -37.0483 O   0  0  0  0  0  0  0  0  0  0  0  0
    3.7587  -11.7037  -30.3730 C   0  0  0  0  0  0  0  0  0  0  0  0
    4.1173  -12.2690  -28.9769 C   0  0  0  0  0  0  0  0  0  0  0  0
    3.2489  -11.9782  -34.1700 C   0  0  0  0  0  0  0  0  0  0  0  0
    5.0922  -11.5752  -35.6787 C   0  0  0  0  0  0  0  0  0  0  0  0
   -1.1528   -4.4547  -38.3487 C   0  0  0  0  0  0  0  0  0  0  0  0
    4.0847  -12.4305  -35.2009 C   0  0  0  0  0  0  0  0  0  0  0  0
    2.0081  -10.9884  -32.2220 H   0  0  0  0  0  0  0  0  0  0  0  0
    4.2045   -9.7495  -29.6143 H   0  0  0  0  0  0  0  0  0  0  0  0
    5.1660  -10.2505  -31.0240 H   0  0  0  0  0  0  0  0  0  0  0  0
    1.2991   -8.3897  -36.6495 H   0  0  0  0  0  0  0  0  0  0  0  0
   -1.2882   -7.5483  -33.4258 H   0  0  0  0  0  0  0  0  0  0  0  0
    0.3531   -6.5293  -37.9001 H   0  0  0  0  0  0  0  0  0  0  0  0
   -2.2368   -5.6886  -34.6709 H   0  0  0  0  0  0  0  0  0  0  0  0
    4.6376   -8.9537  -33.8207 H   0  0  0  0  0  0  0  0  0  0  0  0
    4.2408  -12.3037  -31.1163 H   0  0  0  0  0  0  0  0  0  0  0  0
    2.6927  -11.7309  -30.4613 H   0  0  0  0  0  0  0  0  0  0  0  0
    4.3011  -13.3195  -29.0641 H   0  0  0  0  0  0  0  0  0  0  0  0
    4.9875  -11.7578  -28.6216 H   0  0  0  0  0  0  0  0  0  0  0  0
    2.5023  -12.5837  -33.7947 H   0  0  0  0  0  0  0  0  0  0  0  0
    5.7045  -11.9105  -36.4387 H   0  0  0  0  0  0  0  0  0  0  0  0
   -1.7404   -3.6167  -38.6606 H   0  0  0  0  0  0  0  0  0  0  0  0
   -1.2716   -5.2543  -39.0496 H   0  0  0  0  0  0  0  0  0  0  0  0
   -0.1222   -4.1705  -38.3032 H   0  0  0  0  0  0  0  0  0  0  0  0
    3.9622  -13.3737  -35.6013 H   0  0  0  0  0  0  0  0  0  0  0  0
  1  3  2  0  0  0  0
  1  5  1  0  0  0  0
  1  6  1  0  0  0  0
  2  4  1  0  0  0  0
  2  5  1  0  0  0  0
  2 15  1  0  0  0  0
  3  4  1  0  0  0  0
  3 12  1  0  0  0  0
  4  8  2  0  0  0  0
  5  7  1  0  0  0  0
  5 30  1  1  0  0  0
  6  9  1  0  0  0  0
  6 11  2  0  0  0  0
  7 22  2  0  0  0  0
  7 26  1  0  0  0  0
  9 16  2  0  0  0  0
  9 17  1  0  0  0  0
 10 14  1  0  0  0  0
 10 19  2  0  0  0  0
 10 25  1  0  0  0  0
 13 22  1  0  0  0  0
 13 27  2  0  0  0  0
 15 24  1  0  0  0  0
 15 31  1  0  0  0  0
 15 32  1  0  0  0  0
 16 20  1  0  0  0  0
 16 33  1  0  0  0  0
 17 21  2  0  0  0  0
 17 34  1  0  0  0  0
 18 20  2  0  0  0  0
 18 21  1  0  0  0  0
 18 23  1  0  0  0  0
 20 35  1  0  0  0  0
 21 36  1  0  0  0  0
 22 37  1  0  0  0  0
 23 28  1  0  0  0  0
 24 25  1  0  0  0  0
 24 38  1  0  0  0  0
 24 39  1  0  0  0  0
 25 40  1  0  0  0  0
 25 41  1  0  0  0  0
 26 29  2  0  0  0  0
 26 42  1  0  0  0  0
 27 29  1  0  0  0  0
 27 43  1  0  0  0  0
 28 44  1  0  0  0  0
 28 45  1  0  0  0  0
 28 46  1  0  0  0  0
 29 47  1  0  0  0  0
M  CHG  2  12  -1  14  -1
M  END
$$$$
