##########                                Name: HTS1710-04646891-01
##########                    Molecular_Weight:             322.315
##########                DOCK_Rotatable_Bonds:                  10
##########                       Formal_Charge:                  -2
##########                     HBond_Acceptors:                   7
##########                        HBond_Donors:                   0
##########                         Heavy_Atoms:                  23
##########                          Grid_Score:          -77.170082
##########                     Grid_vdw_energy:          -39.341545
##########                      Grid_es_energy:          -37.828537
##########           Internal_energy_repulsive:           15.790799

@<TRIPOS>MOLECULE
HTS1710-04646891-01
 41 42 1 0 0
SMALL
USER_CHARGES


@<TRIPOS>ATOM
      1 C           4.3939  -10.2811  -31.3103 C.2     1  UNL1        0.0470
      2 C           7.1390  -18.0073  -24.4180 C.2     1  UNL1        0.0470
      3 C           7.1091  -17.1847  -25.6519 C.2     1  UNL1        0.3384
      4 C           4.2677  -11.7162  -31.6437 C.2     1  UNL1        0.3384
      5 C           3.8709   -9.5857  -30.2437 C.2     1  UNL1       -0.1070
      6 C           6.1592  -18.7647  -23.8082 C.2     1  UNL1       -0.1070
      7 C           8.2655  -18.1740  -23.5714 C.2     1  UNL1       -0.0626
      8 C           5.1072   -9.2942  -32.0397 C.2     1  UNL1       -0.0626
      9 O           6.5465  -19.3981  -22.6562 O.co2   1  UNL1       -0.7876
     10 O           4.1716   -8.2498  -30.2108 O.co2   1  UNL1       -0.7876
     11 C           4.9365   -8.1260  -31.3423 C.2     1  UNL1       -0.1333
     12 C           7.8526  -18.9996  -22.5596 C.2     1  UNL1       -0.1333
     13 O           8.0881  -16.5667  -26.0400 O.2     1  UNL1       -0.2450
     14 O           3.9592  -12.1245  -32.7518 O.2     1  UNL1       -0.2450
     15 O           5.9127  -17.1717  -26.3102 O.3     1  UNL1       -0.4589
     16 O           4.5325  -12.5397  -30.5813 O.3     1  UNL1       -0.4589
     17 C           3.0250  -10.1797  -29.1461 C.3     1  UNL1       -0.0523
     18 C           4.7362  -18.9294  -24.2762 C.3     1  UNL1       -0.0523
     19 O           5.5070  -14.2922  -28.6106 O.3     1  UNL1       -0.3731
     20 C           5.8096  -16.5098  -27.5879 C.3     1  UNL1        0.1160
     21 C           4.2030  -13.9456  -30.6278 C.3     1  UNL1        0.1160
     22 C           4.2071  -14.5068  -29.1899 C.3     1  UNL1        0.0820
     23 C           5.7526  -14.9785  -27.3633 C.3     1  UNL1        0.0820
     24 H           9.2025  -17.7589  -23.6930 H       1  UNL1        0.0614
     25 H           5.6422   -9.4277  -32.9120 H       1  UNL1        0.0614
     26 H           5.3488   -7.2292  -31.6436 H       1  UNL1        0.0455
     27 H           8.4731  -19.2959  -21.7901 H       1  UNL1        0.0455
     28 H           2.8890  -11.2255  -29.3270 H       1  UNL1        0.0266
     29 H           2.0718   -9.6940  -29.1279 H       1  UNL1        0.0266
     30 H           3.5139  -10.0414  -28.2045 H       1  UNL1        0.0266
     31 H           4.5924  -18.3780  -25.1818 H       1  UNL1        0.0266
     32 H           4.0689  -18.5616  -23.5250 H       1  UNL1        0.0266
     33 H           4.5369  -19.9655  -24.4542 H       1  UNL1        0.0266
     34 H           4.9198  -16.8319  -28.0872 H       1  UNL1        0.0721
     35 H           6.6600  -16.7542  -28.1897 H       1  UNL1        0.0721
     36 H           4.9282  -14.4653  -31.2185 H       1  UNL1        0.0721
     37 H           3.2358  -14.0774  -31.0661 H       1  UNL1        0.0721
     38 H           3.4657  -14.0033  -28.6054 H       1  UNL1        0.0594
     39 H           3.9862  -15.5536  -29.2081 H       1  UNL1        0.0594
     40 H           6.6854  -14.6473  -26.9571 H       1  UNL1        0.0594
     41 H           4.9552  -14.7580  -26.6846 H       1  UNL1        0.0594
@<TRIPOS>BOND
     1     2     3    1
     2     3    15    1
     3     1     4    1
     4     1     5    2
     5     2     6    2
     6     2     7    1
     7     1     8    1
     8     6     9    1
     9     5    10    1
    10     8    11    2
    11     7    12    2
    12     3    13    2
    13     4    14    2
    14    15    20    1
    15     4    16    1
    16     5    17    1
    17     6    18    1
    18    19    22    1
    19    20    23    1
    20    16    21    1
    21    21    22    1
    22    19    23    1
    23    10    11    1
    24     9    12    1
    25     7    24    1
    26     8    25    1
    27    11    26    1
    28    12    27    1
    29    17    28    1
    30    17    29    1
    31    17    30    1
    32    18    31    1
    33    18    32    1
    34    18    33    1
    35    20    34    1
    36    20    35    1
    37    21    36    1
    38    21    37    1
    39    22    38    1
    40    22    39    1
    41    23    40    1
    42    23    41    1
@<TRIPOS>SUBSTRUCTURE
     1 UNL1        1 TEMP              0 ****  ****    0 ROOT


