##########                                Name: HTS1710-00617286-01
##########                    Molecular_Weight:             380.195
##########                DOCK_Rotatable_Bonds:                   6
##########                       Formal_Charge:                  -2
##########                     HBond_Acceptors:                   6
##########                        HBond_Donors:                   0
##########                         Heavy_Atoms:                  23
##########                          Grid_Score:          -75.611145
##########                     Grid_vdw_energy:          -37.839230
##########                      Grid_es_energy:          -37.771912
##########           Internal_energy_repulsive:            6.477766

@<TRIPOS>MOLECULE
HTS1710-00617286-01
 37 38 1 0 0
SMALL
USER_CHARGES


@<TRIPOS>ATOM
      1 C           3.3447   -9.8167  -31.9195 C.3     1  UNL1        0.0795
      2 N           4.5347   -9.8273  -32.8061 N.am    1  UNL1       -0.2873
      3 C           3.4561   -8.4442  -31.2486 C.2     1  UNL1        0.0167
      4 C           3.3374  -10.9729  -30.9239 C.ar    1  UNL1       -0.0225
      5 C           5.2566   -8.6516  -32.7267 C.2     1  UNL1        0.2329
      6 C           4.8509  -10.9906  -33.6513 C.3     1  UNL1        0.0162
      7 C           4.5333   -7.8146  -31.7597 C.2     1  UNL1       -0.0358
      8 C           2.3523   -7.9354  -30.3777 C.2     1  UNL1        0.1579
      9 C           4.1987  -10.9485  -29.8105 C.ar    1  UNL1       -0.0554
     10 C           2.4678  -12.0662  -31.1031 C.ar    1  UNL1       -0.0554
     11 O           6.2716   -8.3769  -33.3434 O.2     1  UNL1       -0.2712
     12 C           3.7613  -11.2529  -34.7152 C.3     1  UNL1       -0.0320
     13 O           4.9534   -6.5575  -31.4853 O.co2   1  UNL1       -0.8701
     14 C           1.0106   -7.6723  -31.0670 C.3     1  UNL1       -0.0017
     15 O           2.4581   -7.8795  -29.1656 O.2     1  UNL1       -0.2926
     16 C           4.1915  -12.0051  -28.8867 C.ar    1  UNL1       -0.0474
     17 C           2.4589  -13.1228  -30.1784 C.ar    1  UNL1       -0.0474
     18 C           4.2731  -11.0165  -36.1556 C.3     1  UNL1       -0.0118
     19 C           3.3213  -13.0914  -29.0713 C.ar    1  UNL1        0.0179
     20 C           4.2057   -9.5400  -36.5671 C.2     1  UNL1        0.0418
     21 BR          3.3092  -14.5282  -27.8128 Br      1  UNL1       -0.0503
     22 O           3.2060   -9.1687  -37.1556 O.co2   1  UNL1       -0.5498
     23 O           5.1712   -8.8444  -36.3031 O.co2   1  UNL1       -0.5498
     24 H           2.4216   -9.9557  -32.4426 H       1  UNL1        0.0602
     25 H           4.9390  -11.8557  -33.0278 H       1  UNL1        0.0465
     26 H           5.7674  -10.7846  -34.1637 H       1  UNL1        0.0465
     27 H           4.8380  -10.1501  -29.6730 H       1  UNL1        0.0621
     28 H           1.8344  -12.0907  -31.9176 H       1  UNL1        0.0621
     29 H           2.9368  -10.5962  -34.5316 H       1  UNL1        0.0284
     30 H           3.4703  -12.2796  -34.6372 H       1  UNL1        0.0284
     31 H           1.1286   -7.7697  -32.1260 H       1  UNL1        0.0309
     32 H           0.6783   -6.6821  -30.8346 H       1  UNL1        0.0309
     33 H           0.2873   -8.3814  -30.7221 H       1  UNL1        0.0309
     34 H           4.8253  -11.9836  -28.0726 H       1  UNL1        0.0629
     35 H           1.8191  -13.9213  -30.3125 H       1  UNL1        0.0629
     36 H           3.6729  -11.5890  -36.8316 H       1  UNL1        0.0325
     37 H           5.2993  -11.3174  -36.1899 H       1  UNL1        0.0325
@<TRIPOS>BOND
     1     1     2    1
     2     1     3    1
     3     1     4    1
     4     2     5   am
     5     2     6    1
     6     3     7    2
     7     3     8    1
     8     4     9   ar
     9     4    10   ar
    10     5    11    2
    11     6    12    1
    12     7    13    1
    13     8    14    1
    14     8    15    2
    15     9    16   ar
    16    10    17   ar
    17    12    18    1
    18    16    19   ar
    19    18    20    1
    20    19    21    1
    21    20    22   ar
    22    20    23   ar
    23     5     7    1
    24    17    19   ar
    25     1    24    1
    26     6    25    1
    27     6    26    1
    28     9    27    1
    29    10    28    1
    30    12    29    1
    31    12    30    1
    32    14    31    1
    33    14    32    1
    34    14    33    1
    35    16    34    1
    36    17    35    1
    37    18    36    1
    38    18    37    1
@<TRIPOS>SUBSTRUCTURE
     1 UNL1        1 TEMP              0 ****  ****    0 ROOT


