##########                                Name: HTS1710-01847241-01
##########                    Molecular_Weight:             441.872
##########                DOCK_Rotatable_Bonds:                   9
##########                       Formal_Charge:                  -1
##########                     HBond_Acceptors:                  12
##########                        HBond_Donors:                   1
##########                         Heavy_Atoms:                  29
##########                          Grid_Score:          -75.161499
##########                     Grid_vdw_energy:          -48.947220
##########                      Grid_es_energy:          -26.214279
##########           Internal_energy_repulsive:           13.159761

@<TRIPOS>MOLECULE
HTS1710-01847241-01
 47 49 1 0 0
SMALL
USER_CHARGES


@<TRIPOS>ATOM
      1 N           4.0305  -11.6975  -31.4852 N.am    1  UNL1       -0.2533
      2 C           4.3316  -10.9216  -32.5910 C.2     1  UNL1        0.2438
      3 C           4.0306  -12.9635  -32.2262 C.3     1  UNL1        0.1041
      4 CA          4.3439  -12.1575  -33.5341 C.3     1  UNL1        0.1283
      5 CA          3.7392  -11.6425  -30.0581 C.2     1  UNL1        0.0631
      6 N          -0.3597   -9.0413  -35.2210 N.ar    1  UNL1       -0.1750
      7 S           2.3537  -13.6492  -31.9247 S.3     1  UNL1       -0.1310
      8 C           0.3697   -8.6932  -33.1198 C.ar    1  UNL1        0.0812
      9 C           3.1507  -12.7332  -29.4547 C.2     1  UNL1        0.0004
     10 N           0.3402  -10.1303  -34.7398 N.ar    1  UNL1       -0.2693
     11 C          -0.3304   -8.1682  -34.2297 C.ar    1  UNL1        0.0782
     12 C           0.7986   -9.9420  -33.4416 C.ar    1  UNL1        0.0441
     13 N           3.2095  -12.1297  -34.4609 N.am    1  UNL1       -0.3017
     14 C           4.1078  -10.3641  -29.3153 C.2     1  UNL1        0.0860
     15 C           3.1108  -11.2026  -35.4866 C.2     1  UNL1        0.2154
     16 C           2.7821  -14.0307  -30.1836 C.3     1  UNL1        0.0219
     17 O           4.4627   -9.7119  -32.6505 O.2     1  UNL1       -0.2731
     18 C           1.8812  -11.2639  -36.3976 C.3     1  UNL1        0.0435
     19 C           2.8326  -12.8644  -27.9664 C.3     1  UNL1        0.1164
     20 C           5.0957  -13.7758  -27.5049 C.2     1  UNL1        0.3043
     21 C           0.5589  -11.3082  -35.5921 C.3     1  UNL1        0.0498
     22 O           5.1034   -9.7462  -29.6430 O.co2   1  UNL1       -0.5433
     23 O           4.0804  -12.8901  -27.2386 O.3     1  UNL1       -0.4603
     24 O           3.9934  -10.3766  -35.6505 O.2     1  UNL1       -0.2757
     25 O           6.2432  -13.4119  -27.6920 O.2     1  UNL1       -0.2512
     26 CL          0.6450   -7.8947  -31.6018 Cl      1  UNL1       -0.0801
     27 OXT         3.3764  -10.0069  -28.4110 O.co2   1  UNL1       -0.5433
     28 C          -0.9502   -6.7953  -34.2207 C.3     1  UNL1       -0.0192
     29 C           4.6880  -15.2585  -27.5493 C.3     1  UNL1        0.0332
     30 H           4.6450  -13.8279  -32.0842 H       1  UNL1        0.0644
     31 H           5.1481  -12.4032  -34.1959 H       1  UNL1        0.0622
     32 H           1.3395  -10.5984  -32.8572 H       1  UNL1        0.0841
     33 H           2.4910  -12.7938  -34.3510 H       1  UNL1        0.1495
     34 H           3.6146  -14.7025  -30.1597 H       1  UNL1        0.0424
     35 H           1.9433  -14.4866  -29.7005 H       1  UNL1        0.0424
     36 H           1.9451  -12.1430  -37.0041 H       1  UNL1        0.0376
     37 H           1.8717  -10.3775  -36.9970 H       1  UNL1        0.0376
     38 H           2.2917  -13.7707  -27.7900 H       1  UNL1        0.0746
     39 H           2.2327  -12.0396  -27.6425 H       1  UNL1        0.0746
     40 H          -0.2545  -11.3792  -36.2836 H       1  UNL1        0.0513
     41 H           0.6203  -12.1552  -34.9412 H       1  UNL1        0.0513
     42 H          -1.4249   -6.6122  -35.1620 H       1  UNL1        0.0294
     43 H          -0.1891   -6.0615  -34.0563 H       1  UNL1        0.0294
     44 H          -1.6770   -6.7372  -33.4375 H       1  UNL1        0.0294
     45 H           3.6389  -15.3458  -27.3581 H       1  UNL1        0.0342
     46 H           5.2327  -15.8006  -26.8047 H       1  UNL1        0.0342
     47 H           4.9091  -15.6604  -28.5160 H       1  UNL1        0.0342
@<TRIPOS>BOND
     1     1     2   am
     2     1     3    1
     3     1     5    1
     4     2     4    1
     5     2    17    2
     6     3     4    1
     7     3     7    1
     8     4    13    1
     9     5     9    2
    10     5    14    1
    11     6    10   ar
    12     6    11   ar
    13     7    16    1
    14     8    11   ar
    15     8    12   ar
    16     8    26    1
    17     9    16    1
    18     9    19    1
    19    10    12   ar
    20    10    21    1
    21    11    28    1
    22    13    15   am
    23    14    22   ar
    24    14    27   ar
    25    15    18    1
    26    15    24    2
    27    18    21    1
    28    19    23    1
    29    20    23    1
    30    20    25    2
    31    20    29    1
    32     3    30    1
    33     4    31    1
    34    12    32    1
    35    13    33    1
    36    16    34    1
    37    16    35    1
    38    18    36    1
    39    18    37    1
    40    19    38    1
    41    19    39    1
    42    21    40    1
    43    21    41    1
    44    28    42    1
    45    28    43    1
    46    28    44    1
    47    29    45    1
    48    29    46    1
    49    29    47    1
@<TRIPOS>SUBSTRUCTURE
     1 UNL1        1 TEMP              0 ****  ****    0 ROOT


