##########                                Name: HTS1710-00179591-01
##########                    Molecular_Weight:             393.374
##########                DOCK_Rotatable_Bonds:                   9
##########                       Formal_Charge:                  -2
##########                     HBond_Acceptors:                  10
##########                        HBond_Donors:                   0
##########                         Heavy_Atoms:                  27
##########                          Grid_Score:          -78.211189
##########                     Grid_vdw_energy:          -45.507038
##########                      Grid_es_energy:          -32.704151
##########           Internal_energy_repulsive:           14.971385

@<TRIPOS>MOLECULE
HTS1710-00179591-01
 42 43 1 0 0
SMALL
USER_CHARGES


@<TRIPOS>ATOM
      1 S           3.4295   -9.1054  -31.6070 S.O2    1  UNL1        0.0751
      2 N           3.6339   -9.9477  -33.0982 N.pl3   1  UNL1       -0.1940
      3 C           2.6611  -10.8192  -33.5854 C.ar    1  UNL1        0.0932
      4 C           5.0106  -10.0649  -33.6268 C.3     1  UNL1        0.0744
      5 C           3.6811  -10.3788  -30.3613 C.ar    1  UNL1        0.1090
      6 O           4.5387   -8.1475  -31.5365 O.2     1  UNL1       -0.1498
      7 O           2.0327   -8.6611  -31.5492 O.2     1  UNL1       -0.1498
      8 C           5.2867   -9.0105  -34.7075 C.2     1  UNL1        0.0608
      9 C           6.3603  -14.3796  -27.2156 C.2     1  UNL1        0.0789
     10 C           1.7016  -10.3803  -34.5250 C.ar    1  UNL1        0.1426
     11 O           4.7839   -9.1956  -35.8031 O.co2   1  UNL1       -0.5481
     12 O           6.9161  -13.3576  -27.5790 O.co2   1  UNL1       -0.5463
     13 C           4.6063  -11.4135  -30.5850 C.ar    1  UNL1       -0.0316
     14 C           2.9002  -10.3811  -29.1924 C.ar    1  UNL1       -0.0316
     15 O           4.0836  -13.4335  -27.5058 O.3     1  UNL1       -0.4862
     16 C           4.9046  -14.6149  -27.6553 C.3     1  UNL1        0.1286
     17 C           3.9768  -12.4443  -28.4660 C.ar    1  UNL1        0.1212
     18 O           5.9838   -8.0587  -34.4032 O.co2   1  UNL1       -0.5481
     19 O           6.8514  -15.2299  -26.4941 O.co2   1  UNL1       -0.5463
     20 C           4.7590  -12.4420  -29.6418 C.ar    1  UNL1       -0.0181
     21 C           3.0513  -11.4097  -28.2496 C.ar    1  UNL1       -0.0181
     22 C           2.6061  -12.1411  -33.1031 C.ar    1  UNL1       -0.0355
     23 O           1.7668   -9.0761  -34.9831 O.3     1  UNL1       -0.4932
     24 C           0.6985  -11.2696  -34.9676 C.ar    1  UNL1       -0.0181
     25 C           0.9871   -8.5861  -36.0860 C.3     1  UNL1        0.0789
     26 C           1.6080  -13.0199  -33.5479 C.ar    1  UNL1       -0.0597
     27 C           0.6546  -12.5841  -34.4787 C.ar    1  UNL1       -0.0582
     28 H           5.1394  -11.0392  -34.0500 H       1  UNL1        0.0544
     29 H           5.6958   -9.9080  -32.8201 H       1  UNL1        0.0544
     30 H           5.1753  -11.4170  -31.4460 H       1  UNL1        0.0638
     31 H           2.2159   -9.6264  -29.0275 H       1  UNL1        0.0638
     32 H           4.4885  -15.3997  -27.0589 H       1  UNL1        0.0760
     33 H           4.9161  -14.8739  -28.6934 H       1  UNL1        0.0760
     34 H           5.4432  -13.1967  -29.8076 H       1  UNL1        0.0655
     35 H           2.4783  -11.4061  -27.3912 H       1  UNL1        0.0655
     36 H           3.3056  -12.4655  -32.4172 H       1  UNL1        0.0638
     37 H          -0.0047  -10.9518  -35.6529 H       1  UNL1        0.0655
     38 H           1.2109   -7.5526  -36.2497 H       1  UNL1        0.0660
     39 H          -0.0538   -8.6946  -35.8630 H       1  UNL1        0.0660
     40 H           1.2234   -9.1460  -36.9666 H       1  UNL1        0.0660
     41 H           1.5752  -13.9873  -33.1902 H       1  UNL1        0.0618
     42 H          -0.0805  -13.2309  -34.8047 H       1  UNL1        0.0619
@<TRIPOS>BOND
     1     1     2    1
     2     2     3    1
     3     2     4    1
     4     1     5    1
     5     1     6    2
     6     1     7    2
     7     4     8    1
     8     9    16    1
     9     3    10   ar
    10     8    11   ar
    11     9    12   ar
    12     5    13   ar
    13     5    14   ar
    14    15    17    1
    15    15    16    1
    16    17    21   ar
    17     8    18   ar
    18     9    19   ar
    19    13    20   ar
    20    14    21   ar
    21     3    22   ar
    22    10    23    1
    23    10    24   ar
    24    23    25    1
    25    22    26   ar
    26    26    27   ar
    27    17    20   ar
    28    24    27   ar
    29     4    28    1
    30     4    29    1
    31    13    30    1
    32    14    31    1
    33    16    32    1
    34    16    33    1
    35    20    34    1
    36    21    35    1
    37    22    36    1
    38    24    37    1
    39    25    38    1
    40    25    39    1
    41    25    40    1
    42    26    41    1
    43    27    42    1
@<TRIPOS>SUBSTRUCTURE
     1 UNL1        1 TEMP              0 ****  ****    0 ROOT


