HTS1710-01134657-01
 OpenBabel03232612353D

 36 36  0  0  0  0  0  0  0  0999 V2000
    1.2634  -10.6748  -34.1901 S   0  0  0  0  0  0  0  0  0  0  0  0
    2.9776  -10.1029  -34.0530 C   0  0  0  0  0  0  0  0  0  0  0  0
    3.3081   -9.1906  -33.0301 C   0  0  0  0  0  0  0  0  0  0  0  0
    4.6269   -8.7114  -32.8783 C   0  0  0  0  0  0  0  0  0  0  0  0
    4.9715   -7.7331  -31.7774 C   0  0  0  0  0  0  0  0  0  0  0  0
    3.9874  -10.5377  -34.9417 C   0  0  0  0  0  0  0  0  0  0  0  0
    0.5688  -10.3320  -32.9450 O   0  0  0  0  0  0  0  0  0  0  0  0
    0.7074  -10.3596  -35.5101 O   0  0  0  0  0  0  0  0  0  0  0  0
    1.3452  -12.3718  -34.1188 N   0  0  0  0  0  0  0  0  0  0  0  0
    3.5978  -11.3267  -28.4558 C   0  0  0  0  0  0  0  0  0  0  0  0
    4.2452   -6.7628  -31.6373 O   0  5  0  0  0  0  0  0  0  0  0  0
    5.6199   -9.1613  -33.7721 C   0  0  0  0  0  0  0  0  0  0  0  0
    4.5593  -10.6506  -28.7784 O   0  5  0  0  0  0  0  0  0  0  0  0
    5.2996  -10.0659  -34.7944 C   0  0  0  0  0  0  0  0  0  0  0  0
    5.9545   -7.9729  -31.0972 O   0  0  0  0  0  0  0  0  0  0  0  0
    3.6559  -11.6508  -36.2611 Cl  0  0  0  0  0  0  0  0  0  0  0  0
    2.5018  -10.8960  -28.1441 O   0  0  0  0  0  0  0  0  0  0  0  0
    3.7757  -12.8501  -28.4654 C   0  0  0  0  0  0  0  0  0  0  0  0
    1.2526  -12.9952  -32.7889 C   0  0  0  0  0  0  0  0  0  0  0  0
    3.9302  -13.4020  -29.9022 C   0  0  0  0  0  0  0  0  0  0  0  0
    2.6134  -12.9284  -32.0547 C   0  0  0  0  0  0  0  0  0  0  0  0
    2.5690  -13.5352  -30.6284 C   0  0  0  0  0  0  0  0  0  0  0  0
    2.5733   -8.8678  -32.3814 H   0  0  0  0  0  0  0  0  0  0  0  0
    2.2360  -12.6534  -34.5282 H   0  0  0  0  0  0  0  0  0  0  0  0
    6.5897   -8.8224  -33.6732 H   0  0  0  0  0  0  0  0  0  0  0  0
    6.0351  -10.3869  -35.4432 H   0  0  0  0  0  0  0  0  0  0  0  0
    2.9185  -13.3017  -28.0114 H   0  0  0  0  0  0  0  0  0  0  0  0
    4.6673  -13.0840  -27.9220 H   0  0  0  0  0  0  0  0  0  0  0  0
    0.9644  -14.0196  -32.9009 H   0  0  0  0  0  0  0  0  0  0  0  0
    0.5247  -12.4646  -32.2113 H   0  0  0  0  0  0  0  0  0  0  0  0
    4.3901  -14.3668  -29.8529 H   0  0  0  0  0  0  0  0  0  0  0  0
    4.5311  -12.7113  -30.4559 H   0  0  0  0  0  0  0  0  0  0  0  0
    2.9086  -11.9027  -31.9788 H   0  0  0  0  0  0  0  0  0  0  0  0
    3.3106  -13.5066  -32.6245 H   0  0  0  0  0  0  0  0  0  0  0  0
    1.8212  -13.0247  -30.0583 H   0  0  0  0  0  0  0  0  0  0  0  0
    2.3412  -14.5768  -30.7179 H   0  0  0  0  0  0  0  0  0  0  0  0
  1  2  1  0  0  0  0
  1  7  2  0  0  0  0
  1  8  2  0  0  0  0
  1  9  1  0  0  0  0
  2  3  2  0  0  0  0
  2  6  1  0  0  0  0
  3  4  1  0  0  0  0
  3 23  1  0  0  0  0
  4  5  1  0  0  0  0
  4 12  2  0  0  0  0
  5 11  1  0  0  0  0
  5 15  2  0  0  0  0
  6 14  2  0  0  0  0
  6 16  1  0  0  0  0
  9 19  1  0  0  0  0
  9 24  1  0  0  0  0
 10 18  1  0  0  0  0
 10 13  1  0  0  0  0
 10 17  2  0  0  0  0
 12 14  1  0  0  0  0
 12 25  1  0  0  0  0
 14 26  1  0  0  0  0
 18 20  1  0  0  0  0
 18 27  1  0  0  0  0
 18 28  1  0  0  0  0
 19 21  1  0  0  0  0
 19 29  1  0  0  0  0
 19 30  1  0  0  0  0
 20 22  1  0  0  0  0
 20 31  1  0  0  0  0
 20 32  1  0  0  0  0
 21 22  1  0  0  0  0
 21 33  1  0  0  0  0
 21 34  1  0  0  0  0
 22 35  1  0  0  0  0
 22 36  1  0  0  0  0
M  CHG  2  11  -1  13  -1
M  END
$$$$
