HTS1710-00740420-01
 OpenBabel03232612353D

 49 51  0  0  1  0  0  0  0  0999 V2000
    3.2833  -11.7608  -31.8239 C   0  0  0  0  0  0  0  0  0  0  0  0
    3.8851  -12.2035  -30.6463 N   0  0  0  0  0  0  0  0  0  0  0  0
    2.1491  -12.4134  -32.3716 C   0  0  0  0  0  0  0  0  0  0  0  0
    3.8267  -10.6487  -32.4952 C   0  0  0  0  0  0  0  0  0  0  0  0
    3.4319  -11.7211  -29.3269 C   0  0  1  0  0  0  0  0  0  0  0  0
    4.4019  -13.5787  -30.5288 C   0  0  0  0  0  0  0  0  0  0  0  0
    1.5923  -11.9458  -33.5778 C   0  0  0  0  0  0  0  0  0  0  0  0
    1.5229  -13.5871  -31.6995 N   0  0  0  0  0  0  0  0  0  0  0  0
    3.2588  -10.1826  -33.6901 C   0  0  0  0  0  0  0  0  0  0  0  0
    4.0336  -12.6907  -28.2932 C   0  0  0  0  0  0  0  0  0  0  0  0
    3.8339  -10.2558  -29.0892 C   0  0  0  0  0  0  0  0  0  0  0  0
    4.1912  -14.0059  -29.0651 C   0  0  0  0  0  0  0  0  0  0  0  0
    2.1410  -10.8326  -34.2355 C   0  0  0  0  0  0  0  0  0  0  0  0
    1.0614  -14.4675  -32.4222 O   0  0  0  0  0  0  0  0  0  0  0  0
    1.2675  -13.4906  -30.5026 O   0  5  0  0  0  0  0  0  0  0  0  0
    3.1299   -9.5823  -28.3563 O   0  5  0  0  0  0  0  0  0  0  0  0
    4.8478   -9.8675  -29.6435 O   0  0  0  0  0  0  0  0  0  0  0  0
    1.3779  -10.2337  -35.7539 S   0  0  0  0  0  0  0  0  0  0  0  0
    0.2744   -9.0596  -35.1916 N   0  0  0  0  0  0  0  0  0  0  0  0
    0.5664  -11.3454  -36.2609 O   0  0  0  0  0  0  0  0  0  0  0  0
    2.3742   -9.5533  -36.5872 O   0  0  0  0  0  0  0  0  0  0  0  0
    0.3310   -7.7680  -35.9119 C   0  0  0  0  0  0  0  0  0  0  0  0
    0.1758   -8.9013  -33.7194 C   0  0  0  0  0  0  0  0  0  0  0  0
   -0.8780   -6.8598  -35.5754 C   0  0  0  0  0  0  0  0  0  0  0  0
   -1.0359   -8.0284  -33.3095 C   0  0  0  0  0  0  0  0  0  0  0  0
   -1.0880   -6.6665  -34.0507 C   0  0  1  0  0  0  0  0  0  0  0  0
   -0.1145   -5.6300  -33.4482 C   0  0  0  0  0  0  0  0  0  0  0  0
    0.9089   -6.0357  -32.9267 O   0  5  0  0  0  0  0  0  0  0  0  0
   -0.4384   -4.4574  -33.5330 O   0  0  0  0  0  0  0  0  0  0  0  0
    4.6530  -10.1706  -32.1032 H   0  0  0  0  0  0  0  0  0  0  0  0
    2.3646  -11.7170  -29.2513 H   0  0  0  0  0  0  0  0  0  0  0  0
    5.4431  -13.6037  -30.7742 H   0  0  0  0  0  0  0  0  0  0  0  0
    3.8942  -14.2396  -31.1999 H   0  0  0  0  0  0  0  0  0  0  0  0
    0.7732  -12.4259  -33.9824 H   0  0  0  0  0  0  0  0  0  0  0  0
    0.9839  -13.8900  -30.9334 H   0  0  0  0  0  0  0  0  0  0  0  0
    3.6628   -9.3619  -34.1679 H   0  0  0  0  0  0  0  0  0  0  0  0
    3.3740  -12.8155  -27.4600 H   0  0  0  0  0  0  0  0  0  0  0  0
    4.9589  -12.3380  -27.8879 H   0  0  0  0  0  0  0  0  0  0  0  0
    5.0373  -14.5543  -28.7069 H   0  0  0  0  0  0  0  0  0  0  0  0
    3.3425  -14.6469  -28.9491 H   0  0  0  0  0  0  0  0  0  0  0  0
    0.3361   -7.9598  -36.9645 H   0  0  0  0  0  0  0  0  0  0  0  0
    1.2209   -7.2586  -35.6059 H   0  0  0  0  0  0  0  0  0  0  0  0
    1.0716   -8.4389  -33.3610 H   0  0  0  0  0  0  0  0  0  0  0  0
    0.0433   -9.8727  -33.2908 H   0  0  0  0  0  0  0  0  0  0  0  0
   -1.7611   -7.3019  -35.9875 H   0  0  0  0  0  0  0  0  0  0  0  0
   -0.6795   -5.8958  -35.9950 H   0  0  0  0  0  0  0  0  0  0  0  0
   -0.9793   -7.8409  -32.2576 H   0  0  0  0  0  0  0  0  0  0  0  0
   -1.9206   -8.5685  -33.5751 H   0  0  0  0  0  0  0  0  0  0  0  0
   -2.0678   -6.2603  -33.9097 H   0  0  0  0  0  0  0  0  0  0  0  0
  1  2  1  0  0  0  0
  1  3  2  0  0  0  0
  1  4  1  0  0  0  0
  2  5  1  0  0  0  0
  2  6  1  0  0  0  0
  3  7  1  0  0  0  0
  3  8  1  0  0  0  0
  4  9  2  0  0  0  0
  4 30  1  0  0  0  0
  5 10  1  0  0  0  0
  5 11  1  0  0  0  0
  5 31  1  1  0  0  0
  6 12  1  0  0  0  0
  6 32  1  0  0  0  0
  6 33  1  0  0  0  0
  7 13  2  0  0  0  0
  7 34  1  0  0  0  0
  8 14  2  0  0  0  0
  8 15  1  0  0  0  0
  8 35  1  0  0  0  0
  9 13  1  0  0  0  0
  9 36  1  0  0  0  0
 10 12  1  0  0  0  0
 10 37  1  0  0  0  0
 10 38  1  0  0  0  0
 11 16  1  0  0  0  0
 11 17  2  0  0  0  0
 12 39  1  0  0  0  0
 12 40  1  0  0  0  0
 13 18  1  0  0  0  0
 18 19  1  0  0  0  0
 18 20  2  0  0  0  0
 18 21  2  0  0  0  0
 19 22  1  0  0  0  0
 19 23  1  0  0  0  0
 22 24  1  0  0  0  0
 22 41  1  0  0  0  0
 22 42  1  0  0  0  0
 23 25  1  0  0  0  0
 23 43  1  0  0  0  0
 23 44  1  0  0  0  0
 24 26  1  0  0  0  0
 24 45  1  0  0  0  0
 24 46  1  0  0  0  0
 25 26  1  0  0  0  0
 25 47  1  0  0  0  0
 25 48  1  0  0  0  0
 26 27  1  0  0  0  0
 26 49  1  1  0  0  0
 27 28  1  0  0  0  0
 27 29  2  0  0  0  0
M  CHG  3  15  -1  16  -1  28  -1
M  END
$$$$
