##########                                Name: HTS1710-00566542-01
##########                    Molecular_Weight:              307.28
##########                DOCK_Rotatable_Bonds:                   8
##########                       Formal_Charge:                  -2
##########                     HBond_Acceptors:                   7
##########                        HBond_Donors:                   0
##########                         Heavy_Atoms:                  22
##########                          Grid_Score:          -75.505722
##########                     Grid_vdw_energy:          -36.100613
##########                      Grid_es_energy:          -39.405109
##########           Internal_energy_repulsive:           11.233651

@<TRIPOS>MOLECULE
HTS1710-00566542-01
 37 38 1 0 0
SMALL
USER_CHARGES


@<TRIPOS>ATOM
      1 C           3.5816  -10.3270  -30.7798 C.2     1  UNL1        0.0548
      2 C           4.3940   -9.8539  -31.8868 C.ar    1  UNL1       -0.0152
      3 C           3.7257   -9.2720  -29.8811 C.2     1  UNL1       -0.1061
      4 C           2.8166  -11.5953  -30.6745 C.2     1  UNL1        0.3389
      5 C           4.9160   -8.6261  -31.5477 C.ar    1  UNL1       -0.0860
      6 C           4.6708  -10.4379  -33.1316 C.ar    1  UNL1       -0.0126
      7 O           4.5230   -8.2284  -30.3008 O.co2   1  UNL1       -0.7822
      8 C           3.0847   -9.1823  -28.5196 C.3     1  UNL1       -0.0522
      9 O           2.9221  -12.2220  -29.4644 O.3     1  UNL1       -0.4588
     10 O           2.1472  -12.0390  -31.5925 O.2     1  UNL1       -0.2450
     11 C           5.7429   -7.9078  -32.4164 C.ar    1  UNL1       -0.0645
     12 C           5.4956   -9.7371  -34.0362 C.ar    1  UNL1        0.1216
     13 C           2.5399  -13.6062  -29.3414 C.3     1  UNL1        0.1160
     14 C           6.0347   -8.4720  -33.6734 C.ar    1  UNL1       -0.0204
     15 O           5.7487  -10.3220  -35.2633 O.3     1  UNL1       -0.4862
     16 C           2.8627  -14.0869  -27.9070 C.3     1  UNL1        0.0815
     17 C           4.7956  -11.1351  -35.9866 C.3     1  UNL1        0.1286
     18 O           4.2605  -13.8795  -27.6127 O.3     1  UNL1       -0.3796
     19 C           3.6769  -10.3015  -36.6390 C.2     1  UNL1        0.0789
     20 C           5.1787  -14.1441  -28.6897 C.3     1  UNL1        0.0366
     21 O           3.9557   -9.1475  -36.9139 O.co2   1  UNL1       -0.5463
     22 O           2.5937  -10.8282  -36.8310 O.co2   1  UNL1       -0.5463
     23 H           4.2797  -11.3600  -33.3802 H       1  UNL1        0.0660
     24 H           2.5018  -10.0617  -28.3412 H       1  UNL1        0.0266
     25 H           2.4516   -8.3206  -28.4795 H       1  UNL1        0.0266
     26 H           3.8456   -9.1009  -27.7718 H       1  UNL1        0.0266
     27 H           6.1285   -6.9901  -32.1443 H       1  UNL1        0.0613
     28 H           3.0858  -14.1944  -30.0492 H       1  UNL1        0.0721
     29 H           1.4926  -13.7126  -29.5333 H       1  UNL1        0.0721
     30 H           6.6431   -7.9647  -34.3348 H       1  UNL1        0.0654
     31 H           2.6353  -15.1292  -27.8243 H       1  UNL1        0.0593
     32 H           2.2734  -13.5273  -27.2111 H       1  UNL1        0.0593
     33 H           4.3514  -11.8298  -35.3049 H       1  UNL1        0.0760
     34 H           5.3260  -11.6338  -36.7708 H       1  UNL1        0.0760
     35 H           6.1792  -13.9579  -28.3593 H       1  UNL1        0.0524
     36 H           4.9516  -13.5049  -29.5172 H       1  UNL1        0.0524
     37 H           5.0877  -15.1662  -28.9930 H       1  UNL1        0.0524
@<TRIPOS>BOND
     1     1     2    1
     2     1     3    2
     3     1     4    1
     4     2     5   ar
     5     2     6   ar
     6     3     7    1
     7     3     8    1
     8     4     9    1
     9     4    10    2
    10     5    11   ar
    11     6    12   ar
    12     9    13    1
    13    11    14   ar
    14    12    15    1
    15    13    16    1
    16    15    17    1
    17    16    18    1
    18    17    19    1
    19    18    20    1
    20    19    21   ar
    21    19    22   ar
    22     5     7    1
    23    12    14   ar
    24     6    23    1
    25     8    24    1
    26     8    25    1
    27     8    26    1
    28    11    27    1
    29    13    28    1
    30    13    29    1
    31    14    30    1
    32    16    31    1
    33    16    32    1
    34    17    33    1
    35    17    34    1
    36    20    35    1
    37    20    36    1
    38    20    37    1
@<TRIPOS>SUBSTRUCTURE
     1 UNL1        1 TEMP              0 ****  ****    0 ROOT


