##########                                Name: HTS1710-00206800-01
##########                    Molecular_Weight:             250.206
##########                DOCK_Rotatable_Bonds:                   2
##########                       Formal_Charge:                  -3
##########                     HBond_Acceptors:                   6
##########                        HBond_Donors:                   0
##########                         Heavy_Atoms:                  18
##########                          Grid_Score:          -80.452469
##########                     Grid_vdw_energy:          -28.216246
##########                      Grid_es_energy:          -52.236221
##########           Internal_energy_repulsive:            2.888188

@<TRIPOS>MOLECULE
HTS1710-00206800-01
 27 28 1 0 0
SMALL
USER_CHARGES


@<TRIPOS>ATOM
      1 CA          3.3755   -7.5216  -30.7826 C.2     1  UNL1        0.0644
      2 N           2.9933   -8.5695  -30.0076 N.2     1  UNL1       -0.2617
      3 C           4.5002   -7.8768  -31.4777 C.2     1  UNL1       -0.1474
      4 C           3.9011   -9.4921  -30.2770 C.2     1  UNL1        0.0094
      5 O           4.8847   -9.1580  -31.1853 O.co2   1  UNL1       -0.7758
      6 C           2.6587   -6.2199  -30.8341 C.2     1  UNL1        0.0881
      7 C           3.9497  -10.8396  -29.6852 C.ar    1  UNL1       -0.0131
      8 O           1.6670   -6.0749  -30.1404 O.co2   1  UNL1       -0.5431
      9 O           5.1734   -7.0655  -32.3513 O.co2   1  UNL1       -0.8105
     10 C           4.5154  -11.9133  -30.4066 C.ar    1  UNL1       -0.0510
     11 C           3.4339  -11.0841  -28.3930 C.ar    1  UNL1       -0.0510
     12 OXT         3.1095   -5.3625  -31.5756 O.co2   1  UNL1       -0.5431
     13 C           4.0476  -13.4279  -28.5667 C.ar    1  UNL1        0.1234
     14 C           3.4839  -12.3722  -27.8360 C.ar    1  UNL1       -0.0259
     15 C           4.5635  -13.2025  -29.8501 C.ar    1  UNL1       -0.0259
     16 F           4.0946  -14.6661  -28.0314 F       1  UNL1       -0.2055
     17 C           6.3485   -7.5589  -33.0143 C.3     1  UNL1       -0.1039
     18 C           6.9103   -6.4348  -33.9049 C.3     1  UNL1       -0.0753
     19 H           4.8971  -11.7496  -31.3514 H       1  UNL1        0.0625
     20 H           3.0168  -10.3094  -27.8537 H       1  UNL1        0.0625
     21 H           3.1064  -12.5416  -26.8906 H       1  UNL1        0.0646
     22 H           4.9778  -13.9816  -30.3851 H       1  UNL1        0.0646
     23 H           6.0949   -8.4056  -33.6174 H       1  UNL1        0.0136
     24 H           7.0802   -7.8579  -32.2930 H       1  UNL1        0.0136
     25 H           6.1707   -6.1442  -34.6216 H       1  UNL1        0.0221
     26 H           7.7827   -6.7863  -34.4151 H       1  UNL1        0.0221
     27 H           7.1678   -5.5929  -33.2968 H       1  UNL1        0.0221
@<TRIPOS>BOND
     1     1     2    1
     2     1     3    2
     3     2     4    2
     4     3     5    1
     5     1     6    1
     6     4     7    1
     7     6     8   ar
     8     3     9    1
     9     7    10   ar
    10     7    11   ar
    11     6    12   ar
    12    13    14   ar
    13    11    14   ar
    14    10    15   ar
    15    13    16    1
    16     9    17    1
    17    17    18    1
    18     4     5    1
    19    13    15   ar
    20    10    19    1
    21    11    20    1
    22    14    21    1
    23    15    22    1
    24    17    23    1
    25    17    24    1
    26    18    25    1
    27    18    26    1
    28    18    27    1
@<TRIPOS>SUBSTRUCTURE
     1 UNL1        1 TEMP              0 ****  ****    0 ROOT


