##########                                Name: HTS1710-04762129-01
##########                    Molecular_Weight:             357.408
##########                DOCK_Rotatable_Bonds:                   6
##########                       Formal_Charge:                  -2
##########                     HBond_Acceptors:                   9
##########                        HBond_Donors:                   0
##########                         Heavy_Atoms:                  24
##########                          Grid_Score:          -75.459206
##########                     Grid_vdw_energy:          -41.886902
##########                      Grid_es_energy:          -33.572304
##########           Internal_energy_repulsive:           17.940140

@<TRIPOS>MOLECULE
HTS1710-04762129-01
 45 46 1 0 0
SMALL
USER_CHARGES


@<TRIPOS>ATOM
      1 C           2.2953  -10.2556  -33.5838 C.3     1  UNL1        0.0035
      2 N           3.4464  -11.1376  -33.3030 N.am    1  UNL1       -0.3000
      3 C           4.6176  -10.9773  -34.1869 C.3     1  UNL1        0.0266
      4 C           5.2703   -9.6376  -33.9747 C.2     1  UNL1       -0.0998
      5 C           5.7361   -8.8444  -34.9880 C.2     1  UNL1       -0.0630
      6 C           6.1536   -7.6466  -34.3506 C.2     1  UNL1       -0.0144
      7 C           6.7206   -6.4541  -35.0245 C.2     1  UNL1        0.0708
      8 O           6.6307   -5.3744  -34.4685 O.co2   1  UNL1       -0.5447
      9 O           7.2498   -6.6310  -36.1076 O.co2   1  UNL1       -0.5447
     10 C           5.8843   -7.8720  -33.0150 C.2     1  UNL1       -0.1120
     11 C           6.1173   -6.8911  -31.8937 C.3     1  UNL1       -0.0524
     12 O           5.3353   -9.0938  -32.7211 O.co2   1  UNL1       -0.7845
     13 C           3.4372  -12.1272  -32.3157 C.2     1  UNL1        0.2345
     14 O           4.3340  -12.9496  -32.2362 O.2     1  UNL1       -0.2738
     15 C           2.1577  -12.2139  -31.4378 C.3     1  UNL1        0.1076
     16 C           1.1327  -13.2057  -32.0589 C.3     1  UNL1       -0.0272
     17 C           1.5538  -14.6749  -31.8509 C.3     1  UNL1       -0.0499
     18 C           1.7768  -14.9571  -30.3525 C.3     1  UNL1       -0.0385
     19 C           2.7831  -13.9612  -29.7291 C.3     1  UNL1        0.0209
     20 N           2.4299  -12.5427  -30.0015 N.3     1  UNL1       -0.1695
     21 S           3.1772  -11.4060  -29.0019 S.O2    1  UNL1        0.0296
     22 O           4.5845  -11.7447  -28.8795 O.2     1  UNL1       -0.1583
     23 O           2.3452  -11.2607  -27.8186 O.2     1  UNL1       -0.1583
     24 C           3.0227   -9.8373  -29.8977 C.3     1  UNL1        0.0707
     25 H           2.5455   -9.5849  -34.3790 H       1  UNL1        0.0429
     26 H           2.0541   -9.6936  -32.7058 H       1  UNL1        0.0429
     27 H           1.4525  -10.8494  -33.8699 H       1  UNL1        0.0429
     28 H           4.3009  -11.0554  -35.2060 H       1  UNL1        0.0502
     29 H           5.3276  -11.7442  -33.9568 H       1  UNL1        0.0502
     30 H           5.7751   -9.0680  -35.9948 H       1  UNL1        0.0615
     31 H           6.5476   -5.9942  -32.2880 H       1  UNL1        0.0266
     32 H           6.7845   -7.3213  -31.1763 H       1  UNL1        0.0266
     33 H           5.1851   -6.6615  -31.4211 H       1  UNL1        0.0266
     34 H           1.7336  -11.2315  -31.4310 H       1  UNL1        0.0575
     35 H           1.0575  -13.0129  -33.1086 H       1  UNL1        0.0286
     36 H           0.1919  -13.0585  -31.5707 H       1  UNL1        0.0286
     37 H           2.4622  -14.8612  -32.3848 H       1  UNL1        0.0266
     38 H           0.7782  -15.3155  -32.2153 H       1  UNL1        0.0266
     39 H           2.1565  -15.9511  -30.2391 H       1  UNL1        0.0278
     40 H           0.8399  -14.8461  -29.8479 H       1  UNL1        0.0278
     41 H           3.7537  -14.1563  -30.1348 H       1  UNL1        0.0444
     42 H           2.7619  -14.1016  -28.6686 H       1  UNL1        0.0444
     43 H           3.6151   -9.8751  -30.7879 H       1  UNL1        0.0479
     44 H           3.3642   -9.0364  -29.2757 H       1  UNL1        0.0479
     45 H           1.9977   -9.6746  -30.1581 H       1  UNL1        0.0479
@<TRIPOS>BOND
     1     1     2    1
     2     2     3    1
     3     3     4    1
     4     4     5    2
     5     5     6    1
     6     6     7    1
     7     7     8   ar
     8     7     9   ar
     9     6    10    2
    10    10    11    1
    11    10    12    1
    12     4    12    1
    13     2    13   am
    14    13    14    2
    15    13    15    1
    16    15    16    1
    17    16    17    1
    18    17    18    1
    19    18    19    1
    20    19    20    1
    21    15    20    1
    22    20    21    1
    23    21    22    2
    24    21    23    2
    25    21    24    1
    26     1    25    1
    27     1    26    1
    28     1    27    1
    29     3    28    1
    30     3    29    1
    31     5    30    1
    32    11    31    1
    33    11    32    1
    34    11    33    1
    35    15    34    1
    36    16    35    1
    37    16    36    1
    38    17    37    1
    39    17    38    1
    40    18    39    1
    41    18    40    1
    42    19    41    1
    43    19    42    1
    44    24    43    1
    45    24    44    1
    46    24    45    1
@<TRIPOS>SUBSTRUCTURE
     1 UNL1        1 TEMP              0 ****  ****    0 ROOT


