##########                                Name: HTS1710-00561125-01
##########                    Molecular_Weight:             314.359
##########                DOCK_Rotatable_Bonds:                   9
##########                       Formal_Charge:                  -2
##########                     HBond_Acceptors:                   7
##########                        HBond_Donors:                   0
##########                         Heavy_Atoms:                  21
##########                          Grid_Score:          -78.474388
##########                     Grid_vdw_energy:          -41.009125
##########                      Grid_es_energy:          -37.465263
##########           Internal_energy_repulsive:            9.646010

@<TRIPOS>MOLECULE
HTS1710-00561125-01
 39 39 1 0 0
SMALL
USER_CHARGES


@<TRIPOS>ATOM
      1 C           4.3532  -10.3474  -31.4276 C.ar    1  UNL1        0.0407
      2 C           4.0950  -11.7370  -31.2442 C.ar    1  UNL1        0.1294
      3 C           4.4564   -9.8529  -32.7514 C.ar    1  UNL1       -0.0255
      4 C           4.5170   -9.3672  -30.2666 C.2     1  UNL1        0.0752
      5 C           3.9537  -12.5786  -32.3703 C.ar    1  UNL1       -0.0175
      6 O           3.9766  -12.2588  -29.9669 O.3     1  UNL1       -0.4913
      7 C           4.3153  -10.6991  -33.8651 C.ar    1  UNL1        0.0775
      8 O           4.1002   -9.6830  -29.1648 O.co2   1  UNL1       -0.5445
      9 O           5.0638   -8.3042  -30.5068 O.co2   1  UNL1       -0.5445
     10 C           4.0596  -12.0632  -33.6673 C.ar    1  UNL1       -0.0344
     11 C           2.7645  -12.8131  -29.4276 C.3     1  UNL1        0.0896
     12 S           4.4091  -10.0288  -35.5417 S.3     1  UNL1       -0.0512
     13 C           3.0790  -14.2133  -28.8537 C.3     1  UNL1       -0.0186
     14 O           5.3134   -8.8884  -35.3613 O.co2   1  UNL1       -0.7202
     15 O           3.0214   -9.6704  -35.8495 O.2     1  UNL1       -0.1803
     16 O           4.9638  -11.1361  -36.3268 O.2     1  UNL1       -0.1803
     17 C           4.1201  -14.1665  -27.7038 C.3     1  UNL1       -0.0500
     18 C           5.5892  -14.1273  -28.1982 C.3     1  UNL1       -0.0530
     19 C           6.6158  -14.6029  -27.1385 C.3     1  UNL1       -0.0533
     20 C           6.6056  -16.1417  -26.9742 C.3     1  UNL1       -0.0559
     21 C           7.7996  -16.6475  -26.1379 C.3     1  UNL1       -0.0653
     22 H           4.6394   -8.8483  -32.9014 H       1  UNL1        0.0644
     23 H           3.7702  -13.5851  -32.2350 H       1  UNL1        0.0655
     24 H           3.9491  -12.6892  -34.4803 H       1  UNL1        0.0637
     25 H           2.0301  -12.8966  -30.2013 H       1  UNL1        0.0696
     26 H           2.3822  -12.1778  -28.6561 H       1  UNL1        0.0696
     27 H           3.4646  -14.8274  -29.6404 H       1  UNL1        0.0298
     28 H           2.1703  -14.6108  -28.4522 H       1  UNL1        0.0298
     29 H           3.9912  -15.0368  -27.0950 H       1  UNL1        0.0266
     30 H           3.9474  -13.2608  -27.1606 H       1  UNL1        0.0266
     31 H           5.8270  -13.1204  -28.4710 H       1  UNL1        0.0265
     32 H           5.6587  -14.8017  -29.0260 H       1  UNL1        0.0265
     33 H           6.3754  -14.1531  -26.1978 H       1  UNL1        0.0265
     34 H           7.5911  -14.3111  -27.4677 H       1  UNL1        0.0265
     35 H           6.6491  -16.5919  -27.9440 H       1  UNL1        0.0263
     36 H           5.7071  -16.4108  -26.4594 H       1  UNL1        0.0263
     37 H           8.7142  -16.3914  -26.6307 H       1  UNL1        0.0230
     38 H           7.7366  -17.7105  -26.0328 H       1  UNL1        0.0230
     39 H           7.7760  -16.1915  -25.1703 H       1  UNL1        0.0230
@<TRIPOS>BOND
     1     1     2   ar
     2     1     3   ar
     3     1     4    1
     4     2     5   ar
     5     2     6    1
     6     3     7   ar
     7     4     8   ar
     8     4     9   ar
     9     5    10   ar
    10     6    11    1
    11     7    12    1
    12    11    13    1
    13    12    14    1
    14    12    15    2
    15    12    16    2
    16    13    17    1
    17    17    18    1
    18    18    19    1
    19    19    20    1
    20    20    21    1
    21     7    10   ar
    22     3    22    1
    23     5    23    1
    24    10    24    1
    25    11    25    1
    26    11    26    1
    27    13    27    1
    28    13    28    1
    29    17    29    1
    30    17    30    1
    31    18    31    1
    32    18    32    1
    33    19    33    1
    34    19    34    1
    35    20    35    1
    36    20    36    1
    37    21    37    1
    38    21    38    1
    39    21    39    1
@<TRIPOS>SUBSTRUCTURE
     1 UNL1        1 TEMP              0 ****  ****    0 ROOT


