##########                                Name: HTS1710-01640921-01
##########                    Molecular_Weight:             347.391
##########                DOCK_Rotatable_Bonds:                   6
##########                       Formal_Charge:                  -2
##########                     HBond_Acceptors:                   7
##########                        HBond_Donors:                   0
##########                         Heavy_Atoms:                  25
##########                          Grid_Score:          -76.810043
##########                     Grid_vdw_energy:          -35.033527
##########                      Grid_es_energy:          -41.776516
##########           Internal_energy_repulsive:           16.607176

@<TRIPOS>MOLECULE
HTS1710-01640921-01
 48 50 1 0 0
SMALL
USER_CHARGES


@<TRIPOS>ATOM
      1 O           4.2089   -5.7211  -31.1539 O.co2   1  UNL1       -0.5447
      2 C           3.4255   -6.6274  -31.3768 C.2     1  UNL1        0.0706
      3 O           2.4269   -6.5322  -32.0681 O.co2   1  UNL1       -0.5447
      4 C           3.7080   -7.9374  -30.7624 C.2     1  UNL1       -0.0170
      5 C           4.9292   -8.4380  -30.3961 C.2     1  UNL1       -0.1247
      6 O           4.8778   -9.6784  -29.8200 O.co2   1  UNL1       -0.7816
      7 C           3.5341   -9.9610  -29.8532 C.2     1  UNL1       -0.0300
      8 C           2.7829   -8.9484  -30.4017 C.2     1  UNL1       -0.0558
      9 C           2.9231  -11.1944  -29.2673 C.2     1  UNL1        0.2328
     10 O           2.1986  -11.1126  -28.2882 O.2     1  UNL1       -0.2712
     11 N           3.2491  -12.4466  -29.8265 N.am    1  UNL1       -0.2969
     12 C           2.7579  -13.7793  -29.3995 C.3     1  UNL1        0.0164
     13 C           1.6869  -14.3576  -30.3564 C.3     1  UNL1       -0.0213
     14 C           2.1749  -14.4328  -31.8240 C.3     1  UNL1        0.0161
     15 N           2.2339  -13.0923  -32.4614 N.am    1  UNL1       -0.2999
     16 C           3.5169  -12.3431  -32.3100 C.3     1  UNL1        0.0305
     17 C           4.2193  -12.5328  -30.9425 C.3     1  UNL1        0.0307
     18 C           1.2203  -12.6824  -33.3412 C.2     1  UNL1        0.2159
     19 O           0.2120  -13.3430  -33.5275 O.2     1  UNL1       -0.2756
     20 C           1.3471  -11.2790  -33.9653 C.3     1  UNL1        0.0270
     21 C           2.2555  -11.2638  -35.2279 C.3     1  UNL1       -0.0328
     22 C           1.6642  -10.4593  -36.3991 C.3     1  UNL1       -0.0498
     23 C           2.8723  -10.0538  -37.2620 C.3     1  UNL1       -0.0528
     24 C           4.0829   -9.9829  -36.3072 C.3     1  UNL1       -0.0528
     25 C           3.6565  -10.6576  -34.9843 C.3     1  UNL1       -0.0498
     26 H           5.8121   -7.9241  -30.5421 H       1  UNL1        0.0461
     27 H           1.7584   -8.9287  -30.5250 H       1  UNL1        0.0620
     28 H           2.3309  -13.6895  -28.4224 H       1  UNL1        0.0465
     29 H           3.5927  -14.4486  -29.4073 H       1  UNL1        0.0465
     30 H           0.8188  -13.7334  -30.3159 H       1  UNL1        0.0296
     31 H           1.4720  -15.3555  -30.0357 H       1  UNL1        0.0296
     32 H           1.5013  -15.0505  -32.3806 H       1  UNL1        0.0465
     33 H           3.1639  -14.8414  -31.8224 H       1  UNL1        0.0465
     34 H           3.3114  -11.3008  -32.4375 H       1  UNL1        0.0480
     35 H           4.1843  -12.7340  -33.0495 H       1  UNL1        0.0480
     36 H           4.9594  -11.7696  -30.8214 H       1  UNL1        0.0480
     37 H           4.6714  -13.5024  -30.9248 H       1  UNL1        0.0480
     38 H           1.7636  -10.6162  -33.2359 H       1  UNL1        0.0361
     39 H           0.3683  -10.9698  -34.2674 H       1  UNL1        0.0361
     40 H           2.3267  -12.3042  -35.4672 H       1  UNL1        0.0305
     41 H           1.1532   -9.5914  -36.0379 H       1  UNL1        0.0268
     42 H           0.9495  -11.0295  -36.9550 H       1  UNL1        0.0268
     43 H           2.7008   -9.0994  -37.7143 H       1  UNL1        0.0265
     44 H           3.0401  -10.7571  -38.0508 H       1  UNL1        0.0265
     45 H           4.3510   -8.9624  -36.1293 H       1  UNL1        0.0265
     46 H           4.9323  -10.4769  -36.7308 H       1  UNL1        0.0265
     47 H           3.6135   -9.9334  -34.1979 H       1  UNL1        0.0268
     48 H           4.3573  -11.4117  -34.6928 H       1  UNL1        0.0268
@<TRIPOS>BOND
     1     1     2   ar
     2     2     3   ar
     3     2     4    1
     4     4     5    2
     5     5     6    1
     6     6     7    1
     7     7     8    2
     8     4     8    1
     9     7     9    1
    10     9    10    2
    11     9    11   am
    12    11    12    1
    13    12    13    1
    14    13    14    1
    15    14    15    1
    16    15    16    1
    17    16    17    1
    18    11    17    1
    19    15    18   am
    20    18    19    2
    21    18    20    1
    22    20    21    1
    23    21    22    1
    24    22    23    1
    25    23    24    1
    26    24    25    1
    27    21    25    1
    28     5    26    1
    29     8    27    1
    30    12    28    1
    31    12    29    1
    32    13    30    1
    33    13    31    1
    34    14    32    1
    35    14    33    1
    36    16    34    1
    37    16    35    1
    38    17    36    1
    39    17    37    1
    40    20    38    1
    41    20    39    1
    42    21    40    1
    43    22    41    1
    44    22    42    1
    45    23    43    1
    46    23    44    1
    47    24    45    1
    48    24    46    1
    49    25    47    1
    50    25    48    1
@<TRIPOS>SUBSTRUCTURE
     1 UNL1        1 TEMP              0 ****  ****    0 ROOT


