##########                                Name: HTS1710-01189021-01
##########                    Molecular_Weight:             349.321
##########                DOCK_Rotatable_Bonds:                   6
##########                       Formal_Charge:                  -2
##########                     HBond_Acceptors:                   9
##########                        HBond_Donors:                   1
##########                         Heavy_Atoms:                  24
##########                          Grid_Score:          -75.720161
##########                     Grid_vdw_energy:          -39.083328
##########                      Grid_es_energy:          -36.636833
##########           Internal_energy_repulsive:           11.482367

@<TRIPOS>MOLECULE
HTS1710-01189021-01
 35 36 1 0 0
SMALL
USER_CHARGES


@<TRIPOS>ATOM
      1 S           4.6384  -10.5280  -35.6838 S.O2    1  UNL1        0.0724
      2 C           4.5470  -10.6283  -31.5875 C.ar    1  UNL1        0.0408
      3 C           4.4596  -11.0995  -33.9856 C.ar    1  UNL1        0.1093
      4 C           4.6372  -10.1961  -32.9255 C.ar    1  UNL1       -0.0227
      5 N           3.0546  -10.4591  -36.3019 N.pl3   1  UNL1       -0.2162
      6 C           4.7625   -9.6214  -30.4867 C.2     1  UNL1        0.0752
      7 C           0.0687   -8.0707  -33.1691 C.2     1  UNL1        0.0717
      8 O           5.1804   -9.1675  -35.7535 O.2     1  UNL1       -0.1500
      9 O           5.2044  -11.6478  -36.4413 O.2     1  UNL1       -0.1500
     10 C           0.6123   -8.2893  -34.5645 C.ar    1  UNL1       -0.0009
     11 C           4.2586  -11.9884  -31.3152 C.ar    1  UNL1        0.1290
     12 C           2.0947   -9.4876  -36.1055 C.ar    1  UNL1        0.0487
     13 C           1.5789   -9.2891  -34.8130 C.ar    1  UNL1       -0.0305
     14 O           4.5687   -9.9845  -29.3396 O.co2   1  UNL1       -0.5445
     15 O          -0.5895   -7.0635  -32.9722 O.co2   1  UNL1       -0.5446
     16 C           4.1777  -12.4467  -33.7139 C.ar    1  UNL1       -0.0316
     17 C           4.0750  -12.8902  -32.3873 C.ar    1  UNL1       -0.0175
     18 O           5.1342   -8.5099  -30.8222 O.co2   1  UNL1       -0.5445
     19 O           0.3217   -8.9140  -32.3260 O.co2   1  UNL1       -0.5446
     20 O           4.1451  -12.4065  -30.0004 O.3     1  UNL1       -0.4945
     21 C           0.1657   -7.4958  -35.6432 C.ar    1  UNL1       -0.0528
     22 C           0.6660   -7.7041  -36.9372 C.ar    1  UNL1       -0.0594
     23 C           1.6237   -8.6993  -37.1715 C.ar    1  UNL1       -0.0393
     24 C           3.8158  -13.7543  -29.6234 C.3     1  UNL1        0.0788
     25 H           4.8361   -9.2039  -33.1286 H       1  UNL1        0.0645
     26 H           2.7875  -11.2128  -36.8763 H       1  UNL1        0.1737
     27 H           1.9108   -9.8813  -34.0357 H       1  UNL1        0.0643
     28 H           4.0456  -13.1123  -34.4914 H       1  UNL1        0.0638
     29 H           3.8641  -13.8815  -32.1929 H       1  UNL1        0.0655
     30 H          -0.5348   -6.7561  -35.4785 H       1  UNL1        0.0624
     31 H           0.3273   -7.1222  -37.7193 H       1  UNL1        0.0618
     32 H           1.9838   -8.8543  -38.1261 H       1  UNL1        0.0636
     33 H           3.7876  -13.8295  -28.5565 H       1  UNL1        0.0660
     34 H           4.5566  -14.4235  -30.0086 H       1  UNL1        0.0660
     35 H           2.8583  -14.0131  -30.0247 H       1  UNL1        0.0660
@<TRIPOS>BOND
     1     2     4   ar
     2     1     3    1
     3     3     4   ar
     4     1     5    1
     5     2     6    1
     6     7    10    1
     7     1     8    2
     8     1     9    2
     9    10    13   ar
    10    11    17   ar
    11     5    12    1
    12    12    13   ar
    13     6    14   ar
    14     7    15   ar
    15     3    16   ar
    16    16    17   ar
    17     6    18   ar
    18     7    19   ar
    19    11    20    1
    20    21    22   ar
    21    22    23   ar
    22    12    23   ar
    23    20    24    1
    24     2    11   ar
    25    10    21   ar
    26     4    25    1
    27     5    26    1
    28    13    27    1
    29    16    28    1
    30    17    29    1
    31    21    30    1
    32    22    31    1
    33    23    32    1
    34    24    33    1
    35    24    34    1
    36    24    35    1
@<TRIPOS>SUBSTRUCTURE
     1 UNL1        1 TEMP              0 ****  ****    0 ROOT


