HTS1710-02598603-01
 OpenBabel03232612363D

 34 36  0  0  0  0  0  0  0  0999 V2000
    4.6707  -12.3396  -35.2205 S   0  0  0  0  0  0  0  0  0  0  0  0
    2.1138  -11.2176  -35.5881 C   0  0  0  0  0  0  0  0  0  0  0  0
    3.0767  -12.1963  -35.8020 N   0  0  0  0  0  0  0  0  0  0  0  0
    2.1031  -10.0354  -36.3261 C   0  0  0  0  0  0  0  0  0  0  0  0
    4.4996  -11.9384  -33.4657 C   0  0  0  0  0  0  0  0  0  0  0  0
    1.1212  -11.5185  -34.5216 C   0  0  0  0  0  0  0  0  0  0  0  0
    4.6058  -10.3082  -31.6216 C   0  0  0  0  0  0  0  0  0  0  0  0
    4.7415  -10.6280  -33.0001 C   0  0  0  0  0  0  0  0  0  0  0  0
    0.1654  -10.5715  -34.3128 O   0  0  0  0  0  0  0  0  0  0  0  0
    1.0101   -9.0957  -36.0145 C   0  0  0  0  0  0  0  0  0  0  0  0
    0.0690   -9.3994  -35.0136 C   0  0  0  0  0  0  0  0  0  0  0  0
    4.8524   -8.9104  -31.0674 C   0  0  0  0  0  0  0  0  0  0  0  0
    5.0102  -13.7606  -35.3452 O   0  0  0  0  0  0  0  0  0  0  0  0
    5.4117  -11.2665  -35.8895 O   0  0  0  0  0  0  0  0  0  0  0  0
    1.1430  -12.5482  -33.8677 O   0  0  0  0  0  0  0  0  0  0  0  0
    5.6799   -8.2214  -31.6399 O   0  5  0  0  0  0  0  0  0  0  0  0
    3.0018   -9.6804  -37.2706 O   0  5  0  0  0  0  0  0  0  0  0  0
    5.0905   -9.6803  -33.8989 F   0  0  0  0  0  0  0  0  0  0  0  0
    4.1141  -12.9408  -32.5585 C   0  0  0  0  0  0  0  0  0  0  0  0
    4.2199   -8.5506  -30.0904 O   0  0  0  0  0  0  0  0  0  0  0  0
    4.2214  -11.3407  -30.7343 C   0  0  0  0  0  0  0  0  0  0  0  0
    0.8793   -7.8725  -36.7124 C   0  0  0  0  0  0  0  0  0  0  0  0
   -0.9790   -8.5136  -34.7139 C   0  0  0  0  0  0  0  0  0  0  0  0
    3.9779  -12.6408  -31.1989 C   0  0  0  0  0  0  0  0  0  0  0  0
   -0.1682   -6.9868  -36.4141 C   0  0  0  0  0  0  0  0  0  0  0  0
   -1.0987   -7.3063  -35.4151 C   0  0  0  0  0  0  0  0  0  0  0  0
    2.7885  -12.9317  -36.3896 H   0  0  0  0  0  0  0  0  0  0  0  0
    3.9314  -13.8988  -32.8959 H   0  0  0  0  0  0  0  0  0  0  0  0
    4.1186  -11.1335  -29.7286 H   0  0  0  0  0  0  0  0  0  0  0  0
    1.5606   -7.6287  -37.4482 H   0  0  0  0  0  0  0  0  0  0  0  0
   -1.6611   -8.7520  -33.9771 H   0  0  0  0  0  0  0  0  0  0  0  0
    3.6970  -13.3796  -30.5353 H   0  0  0  0  0  0  0  0  0  0  0  0
   -0.2536   -6.0980  -36.9316 H   0  0  0  0  0  0  0  0  0  0  0  0
   -1.8688   -6.6548  -35.1972 H   0  0  0  0  0  0  0  0  0  0  0  0
  1  3  1  0  0  0  0
  1  5  1  0  0  0  0
  1 13  2  0  0  0  0
  1 14  2  0  0  0  0
  2  3  1  0  0  0  0
  2  4  2  0  0  0  0
  2  6  1  0  0  0  0
  3 27  1  0  0  0  0
  4 10  1  0  0  0  0
  4 17  1  0  0  0  0
  5  8  2  0  0  0  0
  5 19  1  0  0  0  0
  6  9  1  0  0  0  0
  6 15  2  0  0  0  0
  7  8  1  0  0  0  0
  7 12  1  0  0  0  0
  7 21  2  0  0  0  0
  8 18  1  0  0  0  0
  9 11  1  0  0  0  0
 10 11  2  0  0  0  0
 10 22  1  0  0  0  0
 11 23  1  0  0  0  0
 12 16  1  0  0  0  0
 12 20  2  0  0  0  0
 19 24  2  0  0  0  0
 19 28  1  0  0  0  0
 21 24  1  0  0  0  0
 21 29  1  0  0  0  0
 22 25  2  0  0  0  0
 22 30  1  0  0  0  0
 23 26  2  0  0  0  0
 23 31  1  0  0  0  0
 24 32  1  0  0  0  0
 25 26  1  0  0  0  0
 25 33  1  0  0  0  0
 26 34  1  0  0  0  0
M  CHG  2  16  -1  17  -1
M  END
$$$$
