##########                                Name: HTS1710-01625536-01
##########                    Molecular_Weight:             316.337
##########                DOCK_Rotatable_Bonds:                   6
##########                       Formal_Charge:                  -2
##########                     HBond_Acceptors:                   7
##########                        HBond_Donors:                   1
##########                         Heavy_Atoms:                  23
##########                          Grid_Score:          -74.702919
##########                     Grid_vdw_energy:          -40.051491
##########                      Grid_es_energy:          -34.651428
##########           Internal_energy_repulsive:            6.429729

@<TRIPOS>MOLECULE
HTS1710-01625536-01
 41 43 1 0 0
SMALL
USER_CHARGES


@<TRIPOS>ATOM
      1 C           6.7500   -6.5636  -35.1155 C.3     1  UNL1       -0.0524
      2 C           6.0503   -7.8053  -34.6229 C.2     1  UNL1       -0.1120
      3 O           5.6583   -8.7466  -35.5385 O.co2   1  UNL1       -0.7845
      4 C           5.0947   -9.6787  -34.7075 C.2     1  UNL1       -0.1000
      5 C           4.5052  -10.9527  -35.2627 C.3     1  UNL1        0.0243
      6 N           3.9358  -11.7685  -34.1825 N.am    1  UNL1       -0.3070
      7 C           2.6025  -11.6871  -33.8060 C.2     1  UNL1        0.2644
      8 O           1.8622  -10.9096  -34.3868 O.2     1  UNL1       -0.2685
      9 C           2.1345  -12.5548  -32.7051 C.ar    1  UNL1        0.1470
     10 C           1.0755  -13.4961  -32.7794 C.ar    1  UNL1       -0.0117
     11 C           0.9540  -14.0924  -31.5634 C.ar    1  UNL1        0.0265
     12 N           1.9393  -13.5017  -30.7900 N.ar    1  UNL1       -0.2677
     13 N           2.6631  -12.5590  -31.4911 N.ar    1  UNL1       -0.1663
     14 C           2.2456  -13.8079  -29.3794 C.3     1  UNL1        0.0527
     15 C           2.7968  -12.6247  -28.5579 C.3     1  UNL1       -0.0305
     16 C           3.5569  -13.2581  -27.3748 C.3     1  UNL1       -0.0511
     17 C           3.8678  -14.7205  -27.7712 C.3     1  UNL1       -0.0511
     18 C           3.2655  -14.9445  -29.1733 C.3     1  UNL1       -0.0305
     19 C           5.1153   -9.3642  -33.3754 C.2     1  UNL1       -0.0630
     20 C           5.7595   -8.0997  -33.3055 C.2     1  UNL1       -0.0144
     21 C           6.0328   -7.3213  -32.0731 C.2     1  UNL1        0.0708
     22 O           5.9219   -7.9079  -31.0110 O.co2   1  UNL1       -0.5447
     23 O           6.3503   -6.1504  -32.1830 O.co2   1  UNL1       -0.5447
     24 H           6.8398   -6.6037  -36.1810 H       1  UNL1        0.0266
     25 H           7.7245   -6.5057  -34.6773 H       1  UNL1        0.0266
     26 H           6.1822   -5.7003  -34.8377 H       1  UNL1        0.0266
     27 H           5.2730  -11.5098  -35.7575 H       1  UNL1        0.0500
     28 H           3.7280  -10.7021  -35.9541 H       1  UNL1        0.0500
     29 H           4.5235  -12.3985  -33.7063 H       1  UNL1        0.1493
     30 H           0.4979  -13.6937  -33.6115 H       1  UNL1        0.0656
     31 H           0.2797  -14.8208  -31.2807 H       1  UNL1        0.0826
     32 H           1.2739  -14.0917  -29.0328 H       1  UNL1        0.0545
     33 H           1.9951  -12.0121  -28.2016 H       1  UNL1        0.0286
     34 H           3.4331  -11.9971  -29.1463 H       1  UNL1        0.0286
     35 H           2.9499  -13.2368  -26.4939 H       1  UNL1        0.0266
     36 H           4.4569  -12.7187  -27.1651 H       1  UNL1        0.0266
     37 H           3.4238  -15.3942  -27.0684 H       1  UNL1        0.0266
     38 H           4.9228  -14.8993  -27.7754 H       1  UNL1        0.0266
     39 H           2.7779  -15.8958  -29.2216 H       1  UNL1        0.0286
     40 H           4.0203  -14.9381  -29.9316 H       1  UNL1        0.0286
     41 H           4.7436   -9.9240  -32.5920 H       1  UNL1        0.0615
@<TRIPOS>BOND
     1     1     2    1
     2     2     3    1
     3     3     4    1
     4     4     5    1
     5     5     6    1
     6     6     7   am
     7     7     8    2
     8     7     9    1
     9     9    10   ar
    10    10    11   ar
    11    11    12   ar
    12    12    13   ar
    13     9    13   ar
    14    12    14    1
    15    14    15    1
    16    15    16    1
    17    16    17    1
    18    17    18    1
    19    14    18    1
    20     4    19    2
    21    19    20    1
    22     2    20    2
    23    20    21    1
    24    21    22   ar
    25    21    23   ar
    26     1    24    1
    27     1    25    1
    28     1    26    1
    29     5    27    1
    30     5    28    1
    31     6    29    1
    32    10    30    1
    33    11    31    1
    34    14    32    1
    35    15    33    1
    36    15    34    1
    37    16    35    1
    38    16    36    1
    39    17    37    1
    40    17    38    1
    41    18    39    1
    42    18    40    1
    43    19    41    1
@<TRIPOS>SUBSTRUCTURE
     1 UNL1        1 TEMP              0 ****  ****    0 ROOT


