##########                                Name: HTS1710-00300528-01
##########                    Molecular_Weight:             343.767
##########                DOCK_Rotatable_Bonds:                   5
##########                       Formal_Charge:                  -2
##########                     HBond_Acceptors:                   9
##########                        HBond_Donors:                   1
##########                         Heavy_Atoms:                  22
##########                          Grid_Score:          -74.955109
##########                     Grid_vdw_energy:          -37.009060
##########                      Grid_es_energy:          -37.946053
##########           Internal_energy_repulsive:            5.106033

@<TRIPOS>MOLECULE
HTS1710-00300528-01
 34 35 1 0 0
SMALL
USER_CHARGES


@<TRIPOS>ATOM
      1 S           3.0947  -12.7617  -28.8721 S.O2    1  UNL1        0.0589
      2 C           3.4703   -8.1583  -31.2692 C.2     1  UNL1        0.0092
      3 C           3.8592   -9.4164  -30.9030 C.2     1  UNL1       -0.0773
      4 O           5.2042   -9.5466  -30.7736 O.co2   1  UNL1       -0.7132
      5 N           5.7539   -8.2565  -31.0597 N.2     1  UNL1       -0.3078
      6 N           3.7586  -11.7300  -30.0567 N.3     1  UNL1       -0.1839
      7 C           2.9647  -10.6019  -30.5832 C.3     1  UNL1        0.0396
      8 C           4.7233   -7.4635  -31.3413 C.2     1  UNL1        0.0367
      9 C           2.0977   -7.6294  -31.5254 C.2     1  UNL1        0.0726
     10 C           4.4395  -13.7763  -28.2247 C.ar    1  UNL1        0.1053
     11 O           2.5849  -11.8447  -27.8477 O.2     1  UNL1       -0.1530
     12 O           2.2064  -13.6218  -29.6607 O.2     1  UNL1       -0.1530
     13 O           1.3048   -7.6203  -30.6005 O.co2   1  UNL1       -0.5446
     14 C           5.6261  -13.1726  -27.7661 C.ar    1  UNL1       -0.0340
     15 C           4.2962  -15.1745  -28.1552 C.ar    1  UNL1       -0.0340
     16 O           1.8317   -7.2273  -32.6431 O.co2   1  UNL1       -0.5446
     17 C           6.5011  -15.3535  -27.1445 C.ar    1  UNL1        0.0411
     18 C           6.6541  -13.9604  -27.2245 C.ar    1  UNL1       -0.0415
     19 C           5.3255  -15.9616  -27.6144 C.ar    1  UNL1       -0.0415
     20 CL          7.7750  -16.3336  -26.4496 Cl      1  UNL1       -0.0835
     21 C           2.2062  -11.0761  -31.8400 C.3     1  UNL1       -0.0450
     22 C           4.8424   -6.0012  -31.6948 C.3     1  UNL1       -0.0225
     23 H           4.0018  -12.3166  -30.8549 H       1  UNL1        0.1486
     24 H           2.2621  -10.2798  -29.8433 H       1  UNL1        0.0513
     25 H           5.7403  -12.1487  -27.8283 H       1  UNL1        0.0637
     26 H           3.4335  -15.6220  -28.5022 H       1  UNL1        0.0637
     27 H           7.5215  -13.5157  -26.8854 H       1  UNL1        0.0633
     28 H           5.2183  -16.9867  -27.5623 H       1  UNL1        0.0633
     29 H           2.9086  -11.3983  -32.5800 H       1  UNL1        0.0248
     30 H           1.6223  -10.2687  -32.2300 H       1  UNL1        0.0248
     31 H           1.5616  -11.8901  -31.5816 H       1  UNL1        0.0248
     32 H           3.8681   -5.5974  -31.8751 H       1  UNL1        0.0292
     33 H           5.4412   -5.8946  -32.5751 H       1  UNL1        0.0292
     34 H           5.3024   -5.4748  -30.8847 H       1  UNL1        0.0292
@<TRIPOS>BOND
     1     2     3    2
     2     3     7    1
     3     3     4    1
     4     4     5    1
     5     1     6    1
     6     6     7    1
     7     2     8    1
     8     2     9    1
     9     1    10    1
    10     1    11    2
    11     1    12    2
    12     9    13   ar
    13    10    14   ar
    14    10    15   ar
    15     9    16   ar
    16    17    18   ar
    17    14    18   ar
    18    15    19   ar
    19    17    20    1
    20     7    21    1
    21     8    22    1
    22    17    19   ar
    23     5     8    2
    24     6    23    1
    25     7    24    1
    26    14    25    1
    27    15    26    1
    28    18    27    1
    29    19    28    1
    30    21    29    1
    31    21    30    1
    32    21    31    1
    33    22    32    1
    34    22    33    1
    35    22    34    1
@<TRIPOS>SUBSTRUCTURE
     1 UNL1        1 TEMP              0 ****  ****    0 ROOT


