##########                                Name: HTS1710-04731128-01
##########                    Molecular_Weight:             310.286
##########                DOCK_Rotatable_Bonds:                   7
##########                       Formal_Charge:                  -2
##########                     HBond_Acceptors:                   6
##########                        HBond_Donors:                   0
##########                         Heavy_Atoms:                  23
##########                          Grid_Score:          -74.872108
##########                     Grid_vdw_energy:          -35.645966
##########                      Grid_es_energy:          -39.226143
##########           Internal_energy_repulsive:            9.966342

@<TRIPOS>MOLECULE
HTS1710-04731128-01
 35 36 1 0 0
SMALL
USER_CHARGES


@<TRIPOS>ATOM
      1 C           1.8202   -9.4791  -36.5608 C.3     1  UNL1       -0.0524
      2 C           2.8946   -9.7539  -35.5378 C.2     1  UNL1       -0.1102
      3 O           4.1508   -9.2563  -35.7596 O.co2   1  UNL1       -0.7876
      4 C           4.8077   -9.7015  -34.6483 C.2     1  UNL1       -0.1334
      5 C           4.0323  -10.4351  -33.7901 C.2     1  UNL1       -0.0657
      6 C           2.7355  -10.4982  -34.3842 C.2     1  UNL1        0.0110
      7 C           1.4727  -11.1296  -33.8807 C.2     1  UNL1        0.2024
      8 O           0.3919  -10.7860  -34.3293 O.2     1  UNL1       -0.2859
      9 C           1.5109  -12.1987  -32.8101 C.2     1  UNL1        0.0995
     10 C           2.0664  -11.9787  -31.5743 C.2     1  UNL1       -0.0300
     11 C           2.2693  -12.7949  -30.3079 C.ar    1  UNL1        0.0180
     12 C           1.9275  -14.1669  -30.1875 C.ar    1  UNL1       -0.0511
     13 C           2.1328  -14.8728  -28.9935 C.ar    1  UNL1       -0.0610
     14 C           2.6835  -14.2350  -27.8819 C.ar    1  UNL1       -0.0583
     15 C           3.0309  -12.8830  -27.9627 C.ar    1  UNL1       -0.0193
     16 C           2.8291  -12.1581  -29.1600 C.ar    1  UNL1        0.1282
     17 O           3.1832  -10.8193  -29.2275 O.3     1  UNL1       -0.4856
     18 C           4.4933  -10.3514  -29.6180 C.3     1  UNL1        0.1287
     19 C           4.4593   -8.8865  -30.0793 C.2     1  UNL1        0.0789
     20 O           3.4201   -8.2623  -29.9491 O.co2   1  UNL1       -0.5463
     21 O           5.4924   -8.4442  -30.5495 O.co2   1  UNL1       -0.5463
     22 C           0.8581  -13.4482  -33.0526 C.1     1  UNL1        0.1030
     23 N           0.2966  -14.4343  -33.2863 N.1     1  UNL1       -0.1907
     24 H           2.2234   -8.8776  -37.3486 H       1  UNL1        0.0266
     25 H           1.0088   -8.9598  -36.0951 H       1  UNL1        0.0266
     26 H           1.4666  -10.4048  -36.9642 H       1  UNL1        0.0266
     27 H           5.8044   -9.5019  -34.4701 H       1  UNL1        0.0455
     28 H           4.3260  -10.8568  -32.8952 H       1  UNL1        0.0613
     29 H           2.4391  -11.0208  -31.4819 H       1  UNL1        0.0639
     30 H           1.5181  -14.6569  -30.9983 H       1  UNL1        0.0625
     31 H           1.8748  -15.8705  -28.9366 H       1  UNL1        0.0618
     32 H           2.8337  -14.7579  -27.0050 H       1  UNL1        0.0619
     33 H           3.4384  -12.4099  -27.1410 H       1  UNL1        0.0654
     34 H           4.8535  -10.9596  -30.4212 H       1  UNL1        0.0760
     35 H           5.1386  -10.4182  -28.7671 H       1  UNL1        0.0760
@<TRIPOS>BOND
     1     1     2    1
     2     2     3    1
     3     3     4    1
     4     4     5    2
     5     5     6    1
     6     2     6    2
     7     6     7    1
     8     7     8    2
     9     7     9    1
    10     9    10    2
    11    10    11    1
    12    11    12   ar
    13    12    13   ar
    14    13    14   ar
    15    14    15   ar
    16    15    16   ar
    17    11    16   ar
    18    16    17    1
    19    17    18    1
    20    18    19    1
    21    19    20   ar
    22    19    21   ar
    23     9    22    1
    24    22    23    3
    25     1    24    1
    26     1    25    1
    27     1    26    1
    28     4    27    1
    29     5    28    1
    30    10    29    1
    31    12    30    1
    32    13    31    1
    33    14    32    1
    34    15    33    1
    35    18    34    1
    36    18    35    1
@<TRIPOS>SUBSTRUCTURE
     1 UNL1        1 TEMP              0 ****  ****    0 ROOT


