##########                                Name: HTS1710-00176608-01
##########                    Molecular_Weight:             380.357
##########                DOCK_Rotatable_Bonds:                   3
##########                       Formal_Charge:                  -3
##########                     HBond_Acceptors:                  13
##########                        HBond_Donors:                   2
##########                         Heavy_Atoms:                  23
##########                          Grid_Score:          -84.425621
##########                     Grid_vdw_energy:          -32.949425
##########                      Grid_es_energy:          -51.476196
##########           Internal_energy_repulsive:           12.214830

@<TRIPOS>MOLECULE
HTS1710-00176608-01
 29 30 1 0 0
SMALL
USER_CHARGES


@<TRIPOS>ATOM
      1 C           1.5827   -8.4996  -32.9359 C.ar    1  UNL1        0.0268
      2 C           1.1545   -8.5844  -34.2953 C.ar    1  UNL1       -0.0108
      3 C           2.9188   -8.9613  -32.6257 C.ar    1  UNL1        0.0878
      4 C           0.6312   -7.9624  -32.0021 C.ar    1  UNL1        0.0359
      5 C           1.9848   -9.1082  -35.2960 C.ar    1  UNL1       -0.0299
      6 C          -0.1208   -8.1492  -34.6971 C.ar    1  UNL1       -0.0299
      7 C           3.7215   -9.4849  -33.6696 C.ar    1  UNL1       -0.0133
      8 S           3.7090   -8.9424  -30.9653 S.3     1  UNL1       -0.0505
      9 C          -0.6387   -7.5344  -32.4302 C.ar    1  UNL1       -0.0165
     10 N           0.8441   -7.8207  -30.6544 N.pl3   1  UNL1       -0.3574
     11 C           3.2688   -9.5574  -34.9911 C.ar    1  UNL1        0.0790
     12 C          -1.0246   -7.6243  -33.7703 C.ar    1  UNL1        0.0789
     13 O           5.0610   -9.4368  -31.2431 O.co2   1  UNL1       -0.7201
     14 O           2.8583   -9.8454  -30.1835 O.2     1  UNL1       -0.1803
     15 O           3.6601   -7.5449  -30.5243 O.2     1  UNL1       -0.1803
     16 S           4.3166  -10.2691  -36.2820 S.3     1  UNL1       -0.0511
     17 S          -2.6477   -7.0353  -34.3011 S.3     1  UNL1       -0.0511
     18 O           3.5156  -11.3800  -36.8040 O.2     1  UNL1       -0.1803
     19 O           5.5369  -10.6549  -35.5660 O.2     1  UNL1       -0.1803
     20 O           4.4738   -9.1386  -37.2012 O.co2   1  UNL1       -0.7202
     21 O          -2.4322   -6.6367  -35.6960 O.2     1  UNL1       -0.1803
     22 O          -2.9405   -5.9407  -33.3703 O.2     1  UNL1       -0.1803
     23 O          -3.4770   -8.2323  -34.1240 O.co2   1  UNL1       -0.7202
     24 H           1.6422   -9.1617  -36.2680 H       1  UNL1        0.0642
     25 H          -0.3927   -8.2186  -35.6902 H       1  UNL1        0.0642
     26 H           4.6708   -9.8237  -33.4477 H       1  UNL1        0.0655
     27 H          -1.2997   -7.1455  -31.7397 H       1  UNL1        0.0655
     28 H           1.7043   -8.0933  -30.2606 H       1  UNL1        0.1423
     29 H           0.1368   -7.4464  -30.0810 H       1  UNL1        0.1423
@<TRIPOS>BOND
     1     1     2   ar
     2     1     3   ar
     3     1     4   ar
     4     2     5   ar
     5     2     6   ar
     6     3     7   ar
     7     3     8    1
     8     4     9   ar
     9     4    10    1
    10     5    11   ar
    11     6    12   ar
    12     8    13    1
    13     8    14    2
    14     8    15    2
    15    11    16    1
    16    12    17    1
    17    16    18    2
    18    16    19    2
    19    16    20    1
    20    17    21    2
    21    17    22    2
    22    17    23    1
    23     7    11   ar
    24     9    12   ar
    25     5    24    1
    26     6    25    1
    27     7    26    1
    28     9    27    1
    29    10    28    1
    30    10    29    1
@<TRIPOS>SUBSTRUCTURE
     1 UNL1        1 TEMP              0 ****  ****    0 ROOT


