##########                                Name: HTS1710-01226888-01
##########                    Molecular_Weight:             413.365
##########                DOCK_Rotatable_Bonds:                   6
##########                       Formal_Charge:                  -3
##########                     HBond_Acceptors:                  13
##########                        HBond_Donors:                   3
##########                         Heavy_Atoms:                  27
##########                          Grid_Score:          -81.748238
##########                     Grid_vdw_energy:          -36.406895
##########                      Grid_es_energy:          -45.341343
##########           Internal_energy_repulsive:            7.481572

@<TRIPOS>MOLECULE
HTS1710-01226888-01
 36 37 1 0 0
SMALL
USER_CHARGES


@<TRIPOS>ATOM
      1 S          -1.2567   -4.1607  -37.4666 S.3     1  UNL1       -0.0511
      2 S           3.4043   -9.4651  -29.8072 S.3     1  UNL1       -0.0511
      3 C          -1.5469   -4.7322  -35.7768 C.ar    1  UNL1        0.0790
      4 C           2.4583   -9.9803  -31.2567 C.ar    1  UNL1        0.0791
      5 C           0.1900   -8.4374  -33.9490 C.2     1  UNL1        0.2484
      6 C           0.9727   -9.4390  -33.1301 C.ar    1  UNL1        0.0405
      7 C          -2.6945   -4.5019  -33.6275 C.ar    1  UNL1        0.0008
      8 C          -3.7057   -3.8022  -32.7459 C.2     1  UNL1        0.0718
      9 N          -0.2520   -7.2659  -33.3360 N.am    1  UNL1       -0.2814
     10 C          -0.9822   -6.2364  -33.9308 C.ar    1  UNL1        0.0361
     11 C          -0.7824   -5.7927  -35.2562 C.ar    1  UNL1       -0.0165
     12 C           1.7374   -9.0352  -32.0135 C.ar    1  UNL1       -0.0256
     13 C          -2.4989   -4.0911  -34.9621 C.ar    1  UNL1       -0.0289
     14 C           2.4081  -11.3396  -31.6102 C.ar    1  UNL1       -0.0171
     15 O          -2.6235   -4.0188  -37.9778 O.co2   1  UNL1       -0.7202
     16 O           4.7769   -9.7783  -30.2146 O.co2   1  UNL1       -0.7202
     17 O           2.8727  -10.3030  -28.7278 O.2     1  UNL1       -0.1803
     18 O           3.1075   -8.0330  -29.6988 O.2     1  UNL1       -0.1803
     19 O          -0.5362   -2.8974  -37.2812 O.2     1  UNL1       -0.1803
     20 O          -0.4789   -5.2454  -38.0752 O.2     1  UNL1       -0.1803
     21 C          -1.9243   -5.5722  -33.1257 C.ar    1  UNL1       -0.0315
     22 C           1.6532  -11.7513  -32.7186 C.ar    1  UNL1        0.0270
     23 C           0.9408  -10.8058  -33.4751 C.ar    1  UNL1       -0.0288
     24 O          -4.3217   -2.8667  -33.2266 O.co2   1  UNL1       -0.5446
     25 O          -0.0925   -8.6711  -35.1119 O.2     1  UNL1       -0.2699
     26 O          -3.8421   -4.2161  -31.6064 O.co2   1  UNL1       -0.5446
     27 N           1.6036  -13.0827  -33.0592 N.pl3   1  UNL1       -0.3579
     28 H          -0.0254   -7.1534  -32.3846 H       1  UNL1        0.1551
     29 H          -0.0705   -6.2495  -35.8476 H       1  UNL1        0.0655
     30 H           1.7685   -8.0381  -31.7492 H       1  UNL1        0.0644
     31 H          -3.0588   -3.3133  -35.3450 H       1  UNL1        0.0643
     32 H           2.9276  -12.0361  -31.0534 H       1  UNL1        0.0655
     33 H          -2.0551   -5.8737  -32.1475 H       1  UNL1        0.0642
     34 H           0.3890  -11.1145  -34.2908 H       1  UNL1        0.0643
     35 H           2.1028  -13.7453  -32.5291 H       1  UNL1        0.1423
     36 H           1.0689  -13.3733  -33.8331 H       1  UNL1        0.1423
@<TRIPOS>BOND
     1     2     4    1
     2     1     3    1
     3     4    12   ar
     4     5     9   am
     5     5     6    1
     6     7    13   ar
     7     7     8    1
     8     9    10    1
     9    10    11   ar
    10     3    11   ar
    11     6    12   ar
    12     3    13   ar
    13    14    22   ar
    14     1    15    1
    15     2    16    1
    16     2    17    2
    17     2    18    2
    18     1    19    2
    19     1    20    2
    20     7    21   ar
    21    22    23   ar
    22     6    23   ar
    23     8    24   ar
    24     5    25    2
    25     8    26   ar
    26    22    27    1
    27    10    21   ar
    28     4    14   ar
    29     9    28    1
    30    11    29    1
    31    12    30    1
    32    13    31    1
    33    14    32    1
    34    21    33    1
    35    23    34    1
    36    27    35    1
    37    27    36    1
@<TRIPOS>SUBSTRUCTURE
     1 UNL1        1 TEMP              0 ****  ****    0 ROOT


