HTS1710-04282216-01
 OpenBabel03232612353D

 49 51  0  0  1  0  0  0  0  0999 V2000
    2.0295  -10.5991  -34.5548 C   0  0  0  0  0  0  0  0  0  0  0  0
    3.0891   -9.9812  -35.4195 C   0  0  0  0  0  0  0  0  0  0  0  0
    6.4409  -16.6094  -26.2070 C   0  0  0  0  0  0  0  0  0  0  0  0
    2.3447  -11.6531  -33.6678 N   0  0  0  0  0  0  0  0  0  0  0  0
    6.1027  -15.5834  -27.2086 C   0  0  0  0  0  0  0  0  0  0  0  0
    3.3072  -12.7059  -30.2575 C   0  0  0  0  0  0  0  0  0  0  0  0
    4.7630  -15.3852  -27.5082 N   0  0  0  0  0  0  0  0  0  0  0  0
    2.5278  -12.9121  -29.1530 O   0  0  0  0  0  0  0  0  0  0  0  0
    4.2537   -9.4644  -34.9004 C   0  0  0  0  0  0  0  0  0  0  0  0
    7.6791  -16.8857  -25.6841 C   0  0  0  0  0  0  0  0  0  0  0  0
    3.2395   -9.7799  -36.8270 C   0  0  0  0  0  0  0  0  0  0  0  0
    5.5649  -17.5212  -25.5670 C   0  0  0  0  0  0  0  0  0  0  0  0
    2.9058  -13.6093  -31.4418 C   0  0  1  0  0  0  0  0  0  0  0  0
    5.1219   -8.9338  -35.8163 O   0  0  0  0  0  0  0  0  0  0  0  0
    7.6876  -17.8995  -24.7610 O   0  0  0  0  0  0  0  0  0  0  0  0
    0.8863  -10.1795  -34.6428 O   0  0  0  0  0  0  0  0  0  0  0  0
    3.7086  -12.2324  -33.5100 C   0  0  0  0  0  0  0  0  0  0  0  0
    1.3036  -12.0015  -32.6516 C   0  0  0  0  0  0  0  0  0  0  0  0
    4.2263  -11.9063  -30.3160 O   0  0  0  0  0  0  0  0  0  0  0  0
    6.9562  -14.9113  -27.7633 O   0  0  0  0  0  0  0  0  0  0  0  0
    6.3636  -18.2533  -24.7283 C   0  0  0  0  0  0  0  0  0  0  0  0
    4.4472   -9.1540  -36.9821 C   0  0  0  0  0  0  0  0  0  0  0  0
    1.4706  -13.3535  -31.9275 C   0  0  0  0  0  0  0  0  0  0  0  0
    3.8516  -13.5213  -32.6558 C   0  0  0  0  0  0  0  0  0  0  0  0
    4.3049  -14.3908  -28.4899 C   0  0  0  0  0  0  0  0  0  0  0  0
    2.8898  -13.8705  -28.1378 C   0  0  2  0  0  0  0  0  0  0  0  0
    1.8305  -15.0040  -28.0784 C   0  0  0  0  0  0  0  0  0  0  0  0
    4.0901  -15.9337  -27.0439 H   0  0  0  0  0  0  0  0  0  0  0  0
    4.4590   -9.4759  -33.8890 H   0  0  0  0  0  0  0  0  0  0  0  0
    8.5313  -16.3741  -25.9619 H   0  0  0  0  0  0  0  0  0  0  0  0
    2.5766  -10.0499  -37.5704 H   0  0  0  0  0  0  0  0  0  0  0  0
    4.5461  -17.6138  -25.7031 H   0  0  0  0  0  0  0  0  0  0  0  0
    2.9791  -14.5952  -31.0324 H   0  0  0  0  0  0  0  0  0  0  0  0
    4.3246  -11.4816  -33.0608 H   0  0  0  0  0  0  0  0  0  0  0  0
    3.9915  -12.5302  -34.4980 H   0  0  0  0  0  0  0  0  0  0  0  0
    0.3562  -12.0143  -33.1488 H   0  0  0  0  0  0  0  0  0  0  0  0
    1.3955  -11.2586  -31.8871 H   0  0  0  0  0  0  0  0  0  0  0  0
    5.9997  -19.0065  -24.1238 H   0  0  0  0  0  0  0  0  0  0  0  0
    4.8165   -8.8722  -37.9037 H   0  0  0  0  0  0  0  0  0  0  0  0
    0.8176  -13.3678  -31.0800 H   0  0  0  0  0  0  0  0  0  0  0  0
    1.2327  -14.1223  -32.6326 H   0  0  0  0  0  0  0  0  0  0  0  0
    4.8581  -13.5707  -32.2961 H   0  0  0  0  0  0  0  0  0  0  0  0
    3.5884  -14.3355  -33.2983 H   0  0  0  0  0  0  0  0  0  0  0  0
    4.2798  -14.8428  -29.4595 H   0  0  0  0  0  0  0  0  0  0  0  0
    4.9838  -13.5638  -28.4779 H   0  0  0  0  0  0  0  0  0  0  0  0
    2.9108  -13.4317  -27.1621 H   0  0  0  0  0  0  0  0  0  0  0  0
    1.7656  -15.4819  -29.0334 H   0  0  0  0  0  0  0  0  0  0  0  0
    0.8782  -14.5891  -27.8218 H   0  0  0  0  0  0  0  0  0  0  0  0
    2.1177  -15.7221  -27.3389 H   0  0  0  0  0  0  0  0  0  0  0  0
  1  2  1  0  0  0  0
  1  4  1  0  0  0  0
  1 16  2  0  0  0  0
  2  9  2  0  0  0  0
  2 11  1  0  0  0  0
  3  5  1  0  0  0  0
  3 10  2  0  0  0  0
  3 12  1  0  0  0  0
  4 17  1  0  0  0  0
  4 18  1  0  0  0  0
  5  7  1  0  0  0  0
  5 20  2  0  0  0  0
  6 13  1  0  0  0  0
  6  8  1  0  0  0  0
  6 19  2  0  0  0  0
  7 25  1  0  0  0  0
  7 28  1  0  0  0  0
  8 26  1  0  0  0  0
  9 14  1  0  0  0  0
  9 29  1  0  0  0  0
 10 15  1  0  0  0  0
 10 30  1  0  0  0  0
 11 22  2  0  0  0  0
 11 31  1  0  0  0  0
 12 21  2  0  0  0  0
 12 32  1  0  0  0  0
 13 23  1  0  0  0  0
 13 24  1  0  0  0  0
 13 33  1  1  0  0  0
 14 22  1  0  0  0  0
 15 21  1  0  0  0  0
 17 24  1  0  0  0  0
 17 34  1  0  0  0  0
 17 35  1  0  0  0  0
 18 23  1  0  0  0  0
 18 36  1  0  0  0  0
 18 37  1  0  0  0  0
 21 38  1  0  0  0  0
 22 39  1  0  0  0  0
 23 40  1  0  0  0  0
 23 41  1  0  0  0  0
 24 42  1  0  0  0  0
 24 43  1  0  0  0  0
 25 26  1  0  0  0  0
 25 44  1  0  0  0  0
 25 45  1  0  0  0  0
 26 27  1  0  0  0  0
 26 46  1  1  0  0  0
 27 47  1  0  0  0  0
 27 48  1  0  0  0  0
 27 49  1  0  0  0  0
M  END
$$$$
