##########                                Name: HTS1710-01991442-01
##########                    Molecular_Weight:             334.329
##########                DOCK_Rotatable_Bonds:                   8
##########                       Formal_Charge:                  -2
##########                     HBond_Acceptors:                   8
##########                        HBond_Donors:                   1
##########                         Heavy_Atoms:                  24
##########                          Grid_Score:          -76.137131
##########                     Grid_vdw_energy:          -40.444233
##########                      Grid_es_energy:          -35.692902
##########           Internal_energy_repulsive:           14.146509

@<TRIPOS>MOLECULE
HTS1710-01991442-01
 42 43 1 0 0
SMALL
USER_CHARGES


@<TRIPOS>ATOM
      1 C           2.8987  -10.3311  -30.7533 C.ar    1  UNL1        0.0201
      2 C           2.8284  -11.7451  -30.7185 C.ar    1  UNL1        0.0389
      3 C           3.6407   -9.5460  -29.7043 C.2     1  UNL1        0.0735
      4 N           3.4039  -12.4741  -29.6758 N.pl3   1  UNL1       -0.3250
      5 C           2.2712   -9.6292  -31.8011 C.ar    1  UNL1       -0.0299
      6 C           2.1312  -12.4214  -31.7375 C.ar    1  UNL1       -0.0383
      7 C           0.2611   -8.3848  -33.6297 C.2     1  UNL1        0.2172
      8 N           0.9983   -9.5473  -33.8327 N.am    1  UNL1       -0.2855
      9 C          -3.5531   -6.7525  -35.1840 C.2     1  UNL1        0.0418
     10 C           1.6005  -10.3076  -32.8328 C.ar    1  UNL1        0.0341
     11 O           4.8390   -9.3996  -29.8698 O.co2   1  UNL1       -0.5446
     12 O           0.0588   -7.9686  -32.4998 O.2     1  UNL1       -0.2755
     13 O          -3.5061   -7.8978  -34.7712 O.co2   1  UNL1       -0.5498
     14 O           4.6057  -13.9245  -27.5862 O.3     1  UNL1       -0.3767
     15 C           1.5200  -11.7146  -32.7810 C.ar    1  UNL1       -0.0387
     16 O           2.9983   -9.1224  -28.7574 O.co2   1  UNL1       -0.5446
     17 O          -4.5659   -6.0889  -35.3206 O.co2   1  UNL1       -0.5498
     18 C           3.2276  -12.0514  -28.2695 C.3     1  UNL1        0.0357
     19 C           4.6068  -13.2964  -29.9270 C.3     1  UNL1        0.0357
     20 C          -0.3228   -7.6918  -34.8716 C.3     1  UNL1        0.0246
     21 C          -2.2284   -6.1013  -35.5954 C.3     1  UNL1       -0.0128
     22 C          -1.1090   -6.3897  -34.5627 C.3     1  UNL1       -0.0397
     23 C           4.6882  -14.4671  -28.9191 C.3     1  UNL1        0.0634
     24 C           3.3530  -13.2640  -27.3163 C.3     1  UNL1        0.0634
     25 H           2.3048   -8.5978  -31.8112 H       1  UNL1        0.0643
     26 H           2.0696  -13.4513  -31.7154 H       1  UNL1        0.0637
     27 H           1.1031   -9.8586  -34.7607 H       1  UNL1        0.1548
     28 H           1.0078  -12.2265  -33.5162 H       1  UNL1        0.0637
     29 H           2.2593  -11.6114  -28.1533 H       1  UNL1        0.0486
     30 H           3.9890  -11.3405  -28.0251 H       1  UNL1        0.0486
     31 H           5.4785  -12.6841  -29.8255 H       1  UNL1        0.0486
     32 H           4.5488  -13.6978  -30.9171 H       1  UNL1        0.0486
     33 H          -0.9856   -8.3768  -35.3576 H       1  UNL1        0.0358
     34 H           0.5071   -7.4115  -35.4860 H       1  UNL1        0.0358
     35 H          -2.3693   -5.0432  -35.6691 H       1  UNL1        0.0325
     36 H          -1.9303   -6.5124  -36.5373 H       1  UNL1        0.0325
     37 H          -0.4232   -5.5683  -34.5643 H       1  UNL1        0.0273
     38 H          -1.5771   -6.5160  -33.6089 H       1  UNL1        0.0273
     39 H           3.8764  -15.1441  -29.0848 H       1  UNL1        0.0575
     40 H           5.6090  -14.9976  -29.0445 H       1  UNL1        0.0575
     41 H           3.3321  -12.9292  -26.3002 H       1  UNL1        0.0575
     42 H           2.5386  -13.9406  -27.4713 H       1  UNL1        0.0575
@<TRIPOS>BOND
     1     1     2   ar
     2     1     3    1
     3     1     5   ar
     4     2     4    1
     5     2     6   ar
     6     3    11   ar
     7     3    16   ar
     8     4    18    1
     9     4    19    1
    10     5    10   ar
    11     6    15   ar
    12     7     8   am
    13     7    12    2
    14     7    20    1
    15     8    10    1
    16     9    13   ar
    17     9    17   ar
    18     9    21    1
    19    10    15   ar
    20    14    23    1
    21    14    24    1
    22    18    24    1
    23    19    23    1
    24    20    22    1
    25    21    22    1
    26     5    25    1
    27     6    26    1
    28     8    27    1
    29    15    28    1
    30    18    29    1
    31    18    30    1
    32    19    31    1
    33    19    32    1
    34    20    33    1
    35    20    34    1
    36    21    35    1
    37    21    36    1
    38    22    37    1
    39    22    38    1
    40    23    39    1
    41    23    40    1
    42    24    41    1
    43    24    42    1
@<TRIPOS>SUBSTRUCTURE
     1 UNL1        1 TEMP              0 ****  ****    0 ROOT


