##########                                Name: HTS1710-02656637-01
##########                    Molecular_Weight:             366.414
##########                DOCK_Rotatable_Bonds:                   9
##########                       Formal_Charge:                  -2
##########                     HBond_Acceptors:                   8
##########                        HBond_Donors:                   2
##########                         Heavy_Atoms:                  26
##########                          Grid_Score:          -77.051666
##########                     Grid_vdw_energy:          -38.797581
##########                      Grid_es_energy:          -38.254086
##########           Internal_energy_repulsive:           17.996422

@<TRIPOS>MOLECULE
HTS1710-02656637-01
 52 53 1 0 0
SMALL
USER_CHARGES


@<TRIPOS>ATOM
      1 C          -0.9674   -6.3190  -34.7143 C.3     1  UNL1        0.0434
      2 C           3.2707  -11.8709  -30.7267 C.3     1  UNL1        0.0434
      3 C          -2.4695   -6.0113  -34.4085 C.3     1  UNL1        0.0096
      4 C           2.9765  -11.0540  -29.4263 C.3     1  UNL1        0.0096
      5 C          -0.5302   -7.6481  -34.0700 C.2     1  UNL1        0.2168
      6 C           3.3003  -10.9595  -31.9690 C.2     1  UNL1        0.2168
      7 C          -3.3904   -7.2251  -34.6687 C.2     1  UNL1        0.0455
      8 C           3.8573   -9.7897  -29.2996 C.2     1  UNL1        0.0455
      9 O          -0.7647   -7.9186  -32.9019 O.2     1  UNL1       -0.2755
     10 O           4.3429  -10.5985  -32.4912 O.2     1  UNL1       -0.2755
     11 O          -4.0444   -7.2083  -35.6974 O.co2   1  UNL1       -0.5495
     12 O           3.4575   -8.9158  -28.5507 O.co2   1  UNL1       -0.5495
     13 N           0.1443   -8.5640  -34.8665 N.am    1  UNL1       -0.3136
     14 N           2.0847  -10.5639  -32.5128 N.am    1  UNL1       -0.3136
     15 O           4.8914   -9.7408  -29.9423 O.co2   1  UNL1       -0.5495
     16 O          -3.4086   -8.1219  -33.8443 O.co2   1  UNL1       -0.5495
     17 C           4.5448  -12.7589  -30.6089 C.3     1  UNL1       -0.0413
     18 C          -0.6341   -6.2532  -36.2336 C.3     1  UNL1       -0.0413
     19 C          -2.9705   -4.7262  -35.1312 C.3     1  UNL1       -0.0444
     20 C           3.0353  -11.9389  -28.1470 C.3     1  UNL1       -0.0444
     21 C           0.6078   -9.8600  -34.3619 C.3     1  UNL1        0.0271
     22 C           1.9914   -9.6981  -33.6933 C.3     1  UNL1        0.0271
     23 C          -1.0931   -4.9222  -36.8695 C.3     1  UNL1       -0.0523
     24 C          -2.5973   -4.6624  -36.6335 C.3     1  UNL1       -0.0524
     25 C           4.2914  -12.8429  -28.0620 C.3     1  UNL1       -0.0524
     26 C           4.5094  -13.6605  -29.3545 C.3     1  UNL1       -0.0523
     27 H          -0.3895   -5.5401  -34.2623 H       1  UNL1        0.0400
     28 H           2.4562  -12.5531  -30.8537 H       1  UNL1        0.0400
     29 H          -2.5243   -5.8124  -33.3585 H       1  UNL1        0.0368
     30 H           1.9682  -10.7078  -29.5176 H       1  UNL1        0.0368
     31 H           0.3182   -8.3337  -35.8078 H       1  UNL1        0.1487
     32 H           1.2530  -10.8771  -32.0891 H       1  UNL1        0.1487
     33 H           5.4043  -12.1239  -30.5536 H       1  UNL1        0.0273
     34 H           4.5860  -13.3928  -31.4699 H       1  UNL1        0.0273
     35 H          -1.1277   -7.0619  -36.7309 H       1  UNL1        0.0273
     36 H           0.4281   -6.3226  -36.3423 H       1  UNL1        0.0273
     37 H          -2.5426   -3.8764  -34.6417 H       1  UNL1        0.0272
     38 H          -4.0391   -4.7375  -35.0778 H       1  UNL1        0.0272
     39 H           2.1682  -12.5656  -28.1315 H       1  UNL1        0.0272
     40 H           3.0773  -11.2720  -27.3114 H       1  UNL1        0.0272
     41 H           0.6853  -10.5507  -35.1755 H       1  UNL1        0.0477
     42 H          -0.0916  -10.2285  -33.6408 H       1  UNL1        0.0477
     43 H           2.7558   -9.9681  -34.3917 H       1  UNL1        0.0477
     44 H           2.1177   -8.6793  -33.3916 H       1  UNL1        0.0477
     45 H          -0.9092   -4.9601  -37.9229 H       1  UNL1        0.0265
     46 H          -0.5424   -4.1274  -36.4113 H       1  UNL1        0.0265
     47 H          -2.8429   -3.6911  -37.0092 H       1  UNL1        0.0265
     48 H          -3.1477   -5.4257  -37.1428 H       1  UNL1        0.0265
     49 H           4.1742  -13.5198  -27.2416 H       1  UNL1        0.0265
     50 H           5.1434  -12.2102  -27.9254 H       1  UNL1        0.0265
     51 H           5.4392  -14.1848  -29.2792 H       1  UNL1        0.0265
     52 H           3.6898  -14.3403  -29.4584 H       1  UNL1        0.0265
@<TRIPOS>BOND
     1     1     3    1
     2     1     5    1
     3     1    18    1
     4     2     4    1
     5     2     6    1
     6     2    17    1
     7     3     7    1
     8     3    19    1
     9     4     8    1
    10     4    20    1
    11     5     9    2
    12     5    13   am
    13     6    10    2
    14     6    14   am
    15     7    11   ar
    16     7    16   ar
    17     8    12   ar
    18     8    15   ar
    19    13    21    1
    20    14    22    1
    21    17    26    1
    22    18    23    1
    23    19    24    1
    24    20    25    1
    25    21    22    1
    26    23    24    1
    27    25    26    1
    28     1    27    1
    29     2    28    1
    30     3    29    1
    31     4    30    1
    32    13    31    1
    33    14    32    1
    34    17    33    1
    35    17    34    1
    36    18    35    1
    37    18    36    1
    38    19    37    1
    39    19    38    1
    40    20    39    1
    41    20    40    1
    42    21    41    1
    43    21    42    1
    44    22    43    1
    45    22    44    1
    46    23    45    1
    47    23    46    1
    48    24    47    1
    49    24    48    1
    50    25    49    1
    51    25    50    1
    52    26    51    1
    53    26    52    1
@<TRIPOS>SUBSTRUCTURE
     1 UNL1        1 TEMP              0 ****  ****    0 ROOT


