HTS1710-00110453-01
 OpenBabel03232612343D

 20 20  0  0  0  0  0  0  0  0999 V2000
    5.7560   -7.8267  -31.0968 O   0  5  0  0  0  0  0  0  0  0  0  0
    5.1087   -8.8586  -31.1642 C   0  0  0  0  0  0  0  0  0  0  0  0
    4.1561   -9.0026  -32.3188 C   0  0  0  0  0  0  0  0  0  0  0  0
    4.6719   -9.4002  -33.5665 C   0  0  0  0  0  0  0  0  0  0  0  0
    3.8345   -9.5820  -34.6833 C   0  0  0  0  0  0  0  0  0  0  0  0
    4.4599   -9.9900  -35.9914 C   0  0  0  0  0  0  0  0  0  0  0  0
    4.8383  -11.1447  -36.0976 O   0  5  0  0  0  0  0  0  0  0  0  0
    4.5219   -9.1402  -36.8629 O   0  0  0  0  0  0  0  0  0  0  0  0
    2.4421   -9.3667  -34.5446 C   0  0  0  0  0  0  0  0  0  0  0  0
    1.4816   -9.5763  -35.6819 C   0  0  0  0  0  0  0  0  0  0  0  0
    0.7622  -10.5600  -35.6336 O   0  5  0  0  0  0  0  0  0  0  0  0
    1.4721   -8.7321  -36.5619 O   0  0  0  0  0  0  0  0  0  0  0  0
    1.9279   -8.9596  -33.2998 C   0  0  0  0  0  0  0  0  0  0  0  0
    2.7660   -8.7702  -32.1850 C   0  0  0  0  0  0  0  0  0  0  0  0
    2.1468   -8.3154  -30.8900 C   0  0  0  0  0  0  0  0  0  0  0  0
    2.9010   -8.0440  -29.9704 O   0  5  0  0  0  0  0  0  0  0  0  0
    0.9319   -8.2252  -30.8591 O   0  0  0  0  0  0  0  0  0  0  0  0
    5.1462   -9.7738  -30.3597 O   0  0  0  0  0  0  0  0  0  0  0  0
    5.6864   -9.5621  -33.6649 H   0  0  0  0  0  0  0  0  0  0  0  0
    0.9137   -8.7963  -33.2020 H   0  0  0  0  0  0  0  0  0  0  0  0
  1  2  1  0  0  0  0
  2  3  1  0  0  0  0
  2 18  2  0  0  0  0
  3  4  2  0  0  0  0
  3 14  1  0  0  0  0
  4  5  1  0  0  0  0
  4 19  1  0  0  0  0
  5  6  1  0  0  0  0
  5  9  2  0  0  0  0
  6  7  1  0  0  0  0
  6  8  2  0  0  0  0
  9 10  1  0  0  0  0
  9 13  1  0  0  0  0
 10 11  1  0  0  0  0
 10 12  2  0  0  0  0
 13 14  2  0  0  0  0
 13 20  1  0  0  0  0
 14 15  1  0  0  0  0
 15 16  1  0  0  0  0
 15 17  2  0  0  0  0
M  CHG  4   1  -1   7  -1  11  -1  16  -1
M  END
$$$$
