##########                                Name: HTS1710-00383337-01
##########                    Molecular_Weight:             305.334
##########                DOCK_Rotatable_Bonds:                   5
##########                       Formal_Charge:                  -2
##########                     HBond_Acceptors:                   7
##########                        HBond_Donors:                   1
##########                         Heavy_Atoms:                  21
##########                          Grid_Score:          -75.657928
##########                     Grid_vdw_energy:          -37.599838
##########                      Grid_es_energy:          -38.058094
##########           Internal_energy_repulsive:           17.675400

@<TRIPOS>MOLECULE
HTS1710-00383337-01
 34 36 1 0 0
SMALL
USER_CHARGES


@<TRIPOS>ATOM
      1 O           4.9997   -9.0882  -36.1819 O.co2   1  UNL1       -0.5476
      2 C           3.9247   -9.4408  -36.6391 C.2     1  UNL1        0.0651
      3 O           3.5777   -9.2876  -37.7981 O.co2   1  UNL1       -0.5476
      4 C           2.9325  -10.1180  -35.6564 C.3     1  UNL1        0.0742
      5 C           1.4246   -9.8263  -35.9136 C.3     1  UNL1       -0.0263
      6 C           0.6538  -11.0298  -35.3358 C.3     1  UNL1       -0.0507
      7 C           1.6516  -12.2076  -35.2879 C.3     1  UNL1       -0.0507
      8 C           3.0093  -11.6583  -35.7761 C.3     1  UNL1       -0.0263
      9 N           3.2666   -9.7730  -34.2572 N.am    1  UNL1       -0.2994
     10 C           4.4636  -10.0974  -33.6221 C.2     1  UNL1        0.2625
     11 O           5.2997  -10.7275  -34.2395 O.2     1  UNL1       -0.2685
     12 C           4.6096   -9.6594  -32.2049 C.2     1  UNL1        0.1185
     13 N           4.2289  -10.4791  -31.1860 N.2     1  UNL1       -0.2654
     14 C           4.5475   -9.8141  -30.0941 C.2     1  UNL1       -0.0363
     15 O           5.1286   -8.5833  -30.2713 O.co2   1  UNL1       -0.7706
     16 C           5.1303   -8.5072  -31.6403 C.2     1  UNL1       -0.0482
     17 C           5.5866   -7.2839  -32.2851 C.ar    1  UNL1        0.0077
     18 C           6.4788   -7.3982  -33.3289 C.ar    1  UNL1       -0.0480
     19 C           6.8899   -6.1413  -33.8558 C.ar    1  UNL1       -0.0542
     20 C           6.3284   -5.0664  -33.2157 C.ar    1  UNL1       -0.0238
     21 S           5.2636   -5.5896  -31.9180 S.2     1  UNL1       -0.0977
     22 H           1.2375   -9.7342  -36.9631 H       1  UNL1        0.0289
     23 H           1.1193   -8.9089  -35.4551 H       1  UNL1        0.0289
     24 H          -0.1762  -11.2739  -35.9654 H       1  UNL1        0.0266
     25 H           0.2672  -10.8104  -34.3625 H       1  UNL1        0.0266
     26 H           1.3209  -12.9974  -35.9296 H       1  UNL1        0.0266
     27 H           1.7306  -12.6053  -34.2977 H       1  UNL1        0.0266
     28 H           3.1774  -11.9414  -36.7941 H       1  UNL1        0.0289
     29 H           3.8162  -12.0507  -35.1931 H       1  UNL1        0.0289
     30 H           2.5937   -9.2777  -33.7364 H       1  UNL1        0.1500
     31 H           4.3692  -10.1992  -29.1534 H       1  UNL1        0.0668
     32 H           6.8151   -8.3038  -33.6921 H       1  UNL1        0.0629
     33 H           7.5484   -6.0478  -34.6450 H       1  UNL1        0.0623
     34 H           6.5072   -4.0805  -33.4629 H       1  UNL1        0.0693
@<TRIPOS>BOND
     1     1     2   ar
     2     2     3   ar
     3     2     4    1
     4     4     5    1
     5     5     6    1
     6     6     7    1
     7     7     8    1
     8     4     8    1
     9     4     9    1
    10     9    10   am
    11    10    11    2
    12    10    12    1
    13    12    13    1
    14    13    14    2
    15    14    15    1
    16    15    16    1
    17    12    16    2
    18    16    17    1
    19    17    18   ar
    20    18    19   ar
    21    19    20   ar
    22    20    21   ar
    23    17    21   ar
    24     5    22    1
    25     5    23    1
    26     6    24    1
    27     6    25    1
    28     7    26    1
    29     7    27    1
    30     8    28    1
    31     8    29    1
    32     9    30    1
    33    14    31    1
    34    18    32    1
    35    19    33    1
    36    20    34    1
@<TRIPOS>SUBSTRUCTURE
     1 UNL1        1 TEMP              0 ****  ****    0 ROOT


