##########                                Name: HTS1710-00529021-01
##########                    Molecular_Weight:             364.173
##########                DOCK_Rotatable_Bonds:                   7
##########                       Formal_Charge:                  -2
##########                     HBond_Acceptors:                   8
##########                        HBond_Donors:                   1
##########                         Heavy_Atoms:                  20
##########                          Grid_Score:          -74.795494
##########                     Grid_vdw_energy:          -36.908455
##########                      Grid_es_energy:          -37.887039
##########           Internal_energy_repulsive:            5.757559

@<TRIPOS>MOLECULE
HTS1710-00529021-01
 30 30 1 0 0
SMALL
USER_CHARGES


@<TRIPOS>ATOM
      1 C           1.7774  -12.8307  -31.6311 C.ar    1  UNL1        0.1059
      2 C           2.4295  -11.9308  -30.7677 C.ar    1  UNL1       -0.0254
      3 S           1.3461  -12.3312  -33.3095 S.O2    1  UNL1        0.0584
      4 C           1.4708  -14.1266  -31.1837 C.ar    1  UNL1       -0.0343
      5 C           2.7645  -12.3124  -29.4552 C.ar    1  UNL1        0.0131
      6 N           2.8118  -12.4031  -34.1662 N.3     1  UNL1       -0.1899
      7 O           1.0352  -10.8984  -33.3009 O.2     1  UNL1       -0.1531
      8 O           0.4801  -13.3296  -33.9471 O.2     1  UNL1       -0.1531
      9 C           1.8207  -14.5215  -29.8842 C.ar    1  UNL1       -0.0453
     10 C           2.4645  -13.6226  -29.0189 C.ar    1  UNL1        0.0268
     11 C           3.4249  -11.3110  -28.5508 C.2     1  UNL1        0.0728
     12 C           2.8456  -11.7891  -35.5045 C.3     1  UNL1        0.0178
     13 BR          2.9465  -14.2322  -27.2672 Br      1  UNL1       -0.0496
     14 O           4.5265  -10.9091  -28.8804 O.co2   1  UNL1       -0.5446
     15 O           2.8054  -10.9563  -27.5629 O.co2   1  UNL1       -0.5446
     16 C           4.2533  -11.9140  -36.1330 C.3     1  UNL1       -0.0337
     17 C           5.3356  -11.0937  -35.3837 C.3     1  UNL1       -0.0120
     18 C           5.0494   -9.5874  -35.4086 C.2     1  UNL1        0.0418
     19 O           4.4983   -9.1406  -36.3999 O.co2   1  UNL1       -0.5498
     20 O           5.4027   -8.9370  -34.4413 O.co2   1  UNL1       -0.5498
     21 H           2.6641  -10.9823  -31.1000 H       1  UNL1        0.0644
     22 H           0.9878  -14.7882  -31.8113 H       1  UNL1        0.0637
     23 H           3.0544  -13.3878  -34.2753 H       1  UNL1        0.1480
     24 H           1.6039  -15.4777  -29.5624 H       1  UNL1        0.0629
     25 H           2.5896  -10.7534  -35.4215 H       1  UNL1        0.0441
     26 H           2.1443  -12.2980  -36.1322 H       1  UNL1        0.0441
     27 H           4.2053  -11.5685  -37.1446 H       1  UNL1        0.0281
     28 H           4.5373  -12.9438  -36.0713 H       1  UNL1        0.0281
     29 H           6.2835  -11.2710  -35.8474 H       1  UNL1        0.0325
     30 H           5.3341  -11.4090  -34.3612 H       1  UNL1        0.0325
@<TRIPOS>BOND
     1     1     2   ar
     2     1     3    1
     3     1     4   ar
     4     2     5   ar
     5     3     6    1
     6     3     7    2
     7     3     8    2
     8     4     9   ar
     9     5    10   ar
    10     5    11    1
    11     6    12    1
    12    10    13    1
    13    11    14   ar
    14    11    15   ar
    15    12    16    1
    16    16    17    1
    17    17    18    1
    18    18    19   ar
    19    18    20   ar
    20     9    10   ar
    21     2    21    1
    22     4    22    1
    23     6    23    1
    24     9    24    1
    25    12    25    1
    26    12    26    1
    27    16    27    1
    28    16    28    1
    29    17    29    1
    30    17    30    1
@<TRIPOS>SUBSTRUCTURE
     1 UNL1        1 TEMP              0 ****  ****    0 ROOT


