##########                                Name: HTS1710-05167271-01
##########                    Molecular_Weight:             331.305
##########                DOCK_Rotatable_Bonds:                   5
##########                       Formal_Charge:                  -2
##########                     HBond_Acceptors:                   8
##########                        HBond_Donors:                   0
##########                         Heavy_Atoms:                  24
##########                          Grid_Score:          -78.791321
##########                     Grid_vdw_energy:          -37.424080
##########                      Grid_es_energy:          -41.367245
##########           Internal_energy_repulsive:           11.637033

@<TRIPOS>MOLECULE
HTS1710-05167271-01
 39 41 1 0 0
SMALL
USER_CHARGES


@<TRIPOS>ATOM
      1 CB          4.3526  -11.5934  -35.2463 C.3     1  UNL1       -0.0411
      2 CA          4.3709  -10.1003  -34.8292 C.3     1  UNL1        0.0626
      3 N           3.0570   -9.6536  -34.2862 N.am    1  UNL1       -0.2914
      4 C           1.9300   -9.8566  -35.2221 C.3     1  UNL1        0.0042
      5 C           2.9383   -9.0334  -33.0253 C.2     1  UNL1        0.2646
      6 O           1.8613   -8.6421  -32.6064 O.2     1  UNL1       -0.2683
      7 CA          4.1988   -8.8369  -32.2398 C.2     1  UNL1        0.1182
      8 N           5.1726   -7.9352  -32.5482 N.2     1  UNL1       -0.2654
      9 C           5.9690   -7.9405  -31.4917 C.2     1  UNL1       -0.0363
     10 O           5.6196   -8.7718  -30.4500 O.co2   1  UNL1       -0.7709
     11 C           4.5010   -9.3351  -30.9963 C.2     1  UNL1       -0.0549
     12 C           3.8598  -10.4896  -30.3338 C.ar    1  UNL1       -0.0259
     13 C           3.7380  -10.4786  -28.9269 C.ar    1  UNL1       -0.0514
     14 C           3.1748  -11.5662  -28.2396 C.ar    1  UNL1       -0.0157
     15 C           2.7513  -12.6957  -28.9503 C.ar    1  UNL1        0.1621
     16 O           2.2272  -13.7798  -28.2799 O.3     1  UNL1       -0.4849
     17 C           2.1363  -15.0484  -28.9615 C.3     1  UNL1        0.1237
     18 C           1.6084  -14.8028  -30.3944 C.3     1  UNL1        0.1237
     19 O           2.4731  -13.8493  -31.0456 O.3     1  UNL1       -0.4849
     20 C           2.8844  -12.7329  -30.3493 C.ar    1  UNL1        0.1626
     21 C           3.4533  -11.6478  -31.0353 C.ar    1  UNL1       -0.0096
     22 C           4.8794   -9.1349  -35.9225 C.2     1  UNL1        0.0619
     23 O           4.3607   -9.2371  -37.0208 O.co2   1  UNL1       -0.5479
     24 OXT         5.7393   -8.3239  -35.6241 O.co2   1  UNL1       -0.5479
     25 H           3.9887  -12.1865  -34.4334 H       1  UNL1        0.0251
     26 H           5.3444  -11.9053  -35.4993 H       1  UNL1        0.0251
     27 H           3.7119  -11.7191  -36.0941 H       1  UNL1        0.0251
     28 H           5.0951  -10.0511  -34.0431 H       1  UNL1        0.0559
     29 H           2.2833  -10.3478  -36.1046 H       1  UNL1        0.0429
     30 H           1.5100   -8.9085  -35.4857 H       1  UNL1        0.0429
     31 H           1.1814  -10.4604  -34.7533 H       1  UNL1        0.0429
     32 H           6.8135   -7.3488  -31.4498 H       1  UNL1        0.0668
     33 H           4.0681   -9.6580  -28.3951 H       1  UNL1        0.0624
     34 H           3.0734  -11.5329  -27.2132 H       1  UNL1        0.0655
     35 H           1.4637  -15.6929  -28.4351 H       1  UNL1        0.0731
     36 H           3.1002  -15.5113  -29.0017 H       1  UNL1        0.0731
     37 H           0.6122  -14.4148  -30.3501 H       1  UNL1        0.0731
     38 H           1.5981  -15.7215  -30.9430 H       1  UNL1        0.0731
     39 H           3.5756  -11.6961  -32.0590 H       1  UNL1        0.0661
@<TRIPOS>BOND
     1     1     2    1
     2     2     3    1
     3     3     4    1
     4     3     5   am
     5     5     6    2
     6     5     7    1
     7     7     8    1
     8     8     9    2
     9     9    10    1
    10    10    11    1
    11     7    11    2
    12    11    12    1
    13    12    13   ar
    14    13    14   ar
    15    14    15   ar
    16    15    16    1
    17    16    17    1
    18    17    18    1
    19    18    19    1
    20    19    20    1
    21    15    20   ar
    22    20    21   ar
    23    12    21   ar
    24     2    22    1
    25    22    23   ar
    26    22    24   ar
    27     1    25    1
    28     1    26    1
    29     1    27    1
    30     2    28    1
    31     4    29    1
    32     4    30    1
    33     4    31    1
    34     9    32    1
    35    13    33    1
    36    14    34    1
    37    17    35    1
    38    17    36    1
    39    18    37    1
    40    18    38    1
    41    21    39    1
@<TRIPOS>SUBSTRUCTURE
     1 UNL1        1 TEMP              0 ****  ****    0 ROOT


