##########                                Name: HTS1710-01831959-01
##########                    Molecular_Weight:             453.433
##########                DOCK_Rotatable_Bonds:                   9
##########                       Formal_Charge:                  -1
##########                     HBond_Acceptors:                  14
##########                        HBond_Donors:                   2
##########                         Heavy_Atoms:                  31
##########                          Grid_Score:          -75.129753
##########                     Grid_vdw_energy:          -50.752167
##########                      Grid_es_energy:          -24.377588
##########           Internal_energy_repulsive:           13.220790

@<TRIPOS>MOLECULE
HTS1710-01831959-01
 50 52 1 0 0
SMALL
USER_CHARGES


@<TRIPOS>ATOM
      1 N           3.7559  -11.5601  -31.1135 N.am    1  UNL1       -0.2533
      2 C           3.8771  -10.5483  -32.0489 C.2     1  UNL1        0.2438
      3 C           4.0110  -12.6395  -32.0754 C.3     1  UNL1        0.1041
      4 CA          4.1493  -11.5548  -33.1996 C.3     1  UNL1        0.1283
      5 C           0.0098   -8.3419  -33.1413 C.ar    1  UNL1        0.2455
      6 CA          3.4608  -11.8272  -29.7125 C.2     1  UNL1        0.0631
      7 N           0.0647   -7.6733  -31.8583 N.pl3   1  UNL1       -0.1586
      8 C          -0.5348   -7.8748  -34.3802 C.ar    1  UNL1        0.1303
      9 N          -0.4014   -8.7685  -35.3430 N.ar    1  UNL1       -0.1697
     10 S           2.5093  -13.6932  -31.9767 S.3     1  UNL1       -0.1310
     11 C           0.4957   -9.5933  -33.4018 C.ar    1  UNL1        0.0965
     12 C           3.0638  -13.0942  -29.3435 C.2     1  UNL1        0.0004
     13 N           0.2279   -9.8264  -34.7416 N.ar    1  UNL1       -0.2642
     14 N           3.0344  -11.5714  -34.1525 N.am    1  UNL1       -0.3017
     15 C           3.6086  -10.6656  -28.7328 C.2     1  UNL1        0.0860
     16 C           3.0906  -10.8905  -35.3588 C.2     1  UNL1        0.2154
     17 C           2.9649  -14.2853  -30.3043 C.3     1  UNL1        0.0219
     18 O           3.7365   -9.3497  -31.8839 O.2     1  UNL1       -0.2731
     19 O           0.7122   -8.2190  -30.9714 O.co2   1  UNL1       -0.6334
     20 C           1.8788  -10.9643  -36.2916 C.3     1  UNL1        0.0435
     21 O          -0.5672   -6.6346  -31.7037 O.2     1  UNL1       -0.0291
     22 C           2.6971  -13.5346  -27.9277 C.3     1  UNL1        0.1164
     23 C           5.1051  -13.8374  -27.4055 C.2     1  UNL1        0.3043
     24 C           0.5445  -11.0409  -35.5089 C.3     1  UNL1        0.0500
     25 O           4.5220   -9.8729  -28.8718 O.co2   1  UNL1       -0.5433
     26 O           3.8563  -13.3638  -27.0818 O.3     1  UNL1       -0.4603
     27 O           4.0917  -10.2605  -35.6570 O.2     1  UNL1       -0.2757
     28 O           6.0900  -13.1204  -27.4137 O.2     1  UNL1       -0.2512
     29 OXT         2.7797  -10.5664  -27.8468 O.co2   1  UNL1       -0.5433
     30 C          -1.1668   -6.5152  -34.5529 C.3     1  UNL1       -0.0142
     31 C           5.1779  -15.3370  -27.7426 C.3     1  UNL1        0.0332
     32 H           4.7885  -13.3745  -32.0686 H       1  UNL1        0.0644
     33 H           4.9883  -11.5099  -33.8620 H       1  UNL1        0.0622
     34 H          -0.1041   -8.6372  -31.7513 H       1  UNL1        0.4510
     35 H           0.9640  -10.2310  -32.7393 H       1  UNL1        0.0893
     36 H           2.2223  -12.0810  -33.9288 H       1  UNL1        0.1495
     37 H           3.9098  -14.7855  -30.3492 H       1  UNL1        0.0424
     38 H           2.2159  -14.9634  -29.9521 H       1  UNL1        0.0424
     39 H           1.9690  -11.8357  -36.9060 H       1  UNL1        0.0376
     40 H           1.8632  -10.0724  -36.8826 H       1  UNL1        0.0376
     41 H           2.4029  -14.5634  -27.9341 H       1  UNL1        0.0746
     42 H           1.8831  -12.9459  -27.5590 H       1  UNL1        0.0746
     43 H          -0.2465  -11.2118  -36.2090 H       1  UNL1        0.0513
     44 H           0.6477  -11.8357  -34.8001 H       1  UNL1        0.0513
     45 H          -1.1480   -5.9920  -33.6197 H       1  UNL1        0.0295
     46 H          -2.1801   -6.6314  -34.8764 H       1  UNL1        0.0295
     47 H          -0.6203   -5.9583  -35.2851 H       1  UNL1        0.0295
     48 H           4.2002  -15.7661  -27.6732 H       1  UNL1        0.0342
     49 H           5.8321  -15.8265  -27.0517 H       1  UNL1        0.0342
     50 H           5.5522  -15.4613  -28.7373 H       1  UNL1        0.0342
@<TRIPOS>BOND
     1     1     2   am
     2     1     3    1
     3     1     6    1
     4     2     4    1
     5     2    18    2
     6     3     4    1
     7     3    10    1
     8     4    14    1
     9     5     7    1
    10     5     8   ar
    11     5    11   ar
    12     6    12    2
    13     6    15    1
    14     7    19    1
    15     7    21    2
    16     8     9   ar
    17     8    30    1
    18     9    13   ar
    19    10    17    1
    20    11    13   ar
    21    12    17    1
    22    12    22    1
    23    13    24    1
    24    14    16   am
    25    15    25   ar
    26    15    29   ar
    27    16    20    1
    28    16    27    2
    29    20    24    1
    30    22    26    1
    31    23    26    1
    32    23    28    2
    33    23    31    1
    34     3    32    1
    35     4    33    1
    36     7    34    1
    37    11    35    1
    38    14    36    1
    39    17    37    1
    40    17    38    1
    41    20    39    1
    42    20    40    1
    43    22    41    1
    44    22    42    1
    45    24    43    1
    46    24    44    1
    47    30    45    1
    48    30    46    1
    49    30    47    1
    50    31    48    1
    51    31    49    1
    52    31    50    1
@<TRIPOS>SUBSTRUCTURE
     1 UNL1        1 TEMP              0 ****  ****    0 ROOT


