HTS1710-04760589-01
 OpenBabel03232612363D

 48 50  0  0  1  0  0  0  0  0999 V2000
    3.3985  -12.5592  -29.1229 C   0  0  0  0  0  0  0  0  0  0  0  0
    2.7812  -12.9553  -30.4049 N   0  0  0  0  0  0  0  0  0  0  0  0
    3.2843  -12.2154  -31.5929 C   0  0  1  0  0  0  0  0  0  0  0  0
    2.8556  -12.8412  -32.9540 C   0  0  1  0  0  0  0  0  0  0  0  0
    1.3949  -13.3387  -32.9050 C   0  0  0  0  0  0  0  0  0  0  0  0
    1.2372  -14.3790  -31.7859 C   0  0  0  0  0  0  0  0  0  0  0  0
    1.7271  -13.8794  -30.4187 C   0  0  0  0  0  0  0  0  0  0  0  0
    1.2186  -14.2952  -29.3909 O   0  0  0  0  0  0  0  0  0  0  0  0
    3.1170  -11.8863  -34.1333 C   0  0  0  0  0  0  0  0  0  0  0  0
    2.2138  -11.4517  -34.8315 O   0  0  0  0  0  0  0  0  0  0  0  0
    4.4297  -11.5230  -34.4031 N   0  0  0  0  0  0  0  0  0  0  0  0
    4.7885  -10.6190  -35.5032 C   0  0  0  0  0  0  0  0  0  0  0  0
    5.3332   -9.3311  -34.9436 C   0  0  0  0  0  0  0  0  0  0  0  0
    5.3949   -9.0366  -33.6073 C   0  0  0  0  0  0  0  0  0  0  0  0
    6.0140   -7.7617  -33.5428 C   0  0  0  0  0  0  0  0  0  0  0  0
    6.3406   -7.0134  -32.3046 C   0  0  0  0  0  0  0  0  0  0  0  0
    6.3497   -5.7960  -32.3464 O   0  5  0  0  0  0  0  0  0  0  0  0
    6.5879   -7.6712  -31.3089 O   0  0  0  0  0  0  0  0  0  0  0  0
    6.2429   -7.4386  -34.8662 C   0  0  0  0  0  0  0  0  0  0  0  0
    6.9156   -6.1834  -35.3582 C   0  0  0  0  0  0  0  0  0  0  0  0
    5.8400   -8.3769  -35.7823 O   0  0  0  0  0  0  0  0  0  0  0  0
    2.9163  -10.7510  -31.4861 C   0  0  0  0  0  0  0  0  0  0  0  0
    3.6487   -9.8301  -30.7041 C   0  0  0  0  0  0  0  0  0  0  0  0
    3.0646   -8.6456  -30.7581 N   0  0  0  0  0  0  0  0  0  0  0  0
    1.9759   -8.8172  -31.5881 N   0  0  0  0  0  0  0  0  0  0  0  0
    1.0944   -7.6884  -31.9025 C   0  0  0  0  0  0  0  0  0  0  0  0
    1.8478  -10.1203  -32.0389 C   0  0  0  0  0  0  0  0  0  0  0  0
    4.1801  -11.8520  -29.3069 H   0  0  0  0  0  0  0  0  0  0  0  0
    3.8057  -13.4235  -28.6410 H   0  0  0  0  0  0  0  0  0  0  0  0
    2.6570  -12.1152  -28.4920 H   0  0  0  0  0  0  0  0  0  0  0  0
    4.3509  -12.3005  -31.5877 H   0  0  0  0  0  0  0  0  0  0  0  0
    3.4708  -13.6997  -33.1250 H   0  0  0  0  0  0  0  0  0  0  0  0
    1.1400  -13.7850  -33.8434 H   0  0  0  0  0  0  0  0  0  0  0  0
    0.7457  -12.5104  -32.7117 H   0  0  0  0  0  0  0  0  0  0  0  0
    1.7993  -15.2502  -32.0505 H   0  0  0  0  0  0  0  0  0  0  0  0
    0.1919  -14.5868  -31.6915 H   0  0  0  0  0  0  0  0  0  0  0  0
    5.1474  -11.8853  -33.8349 H   0  0  0  0  0  0  0  0  0  0  0  0
    3.9191  -10.4118  -36.0915 H   0  0  0  0  0  0  0  0  0  0  0  0
    5.5335  -11.0831  -36.1151 H   0  0  0  0  0  0  0  0  0  0  0  0
    5.0637   -9.6155  -32.8197 H   0  0  0  0  0  0  0  0  0  0  0  0
    7.1649   -5.5617  -34.5237 H   0  0  0  0  0  0  0  0  0  0  0  0
    6.2521   -5.6554  -36.0107 H   0  0  0  0  0  0  0  0  0  0  0  0
    7.8077   -6.4418  -35.8895 H   0  0  0  0  0  0  0  0  0  0  0  0
    4.5063  -10.0484  -30.1731 H   0  0  0  0  0  0  0  0  0  0  0  0
    1.4503   -6.8093  -31.4070 H   0  0  0  0  0  0  0  0  0  0  0  0
    0.1014   -7.9079  -31.5700 H   0  0  0  0  0  0  0  0  0  0  0  0
    1.0885   -7.5242  -32.9598 H   0  0  0  0  0  0  0  0  0  0  0  0
    1.1158  -10.5172  -32.6488 H   0  0  0  0  0  0  0  0  0  0  0  0
  1  2  1  0  0  0  0
  1 28  1  0  0  0  0
  1 29  1  0  0  0  0
  1 30  1  0  0  0  0
  2  3  1  0  0  0  0
  2  7  1  0  0  0  0
  3  4  1  0  0  0  0
  3 22  1  0  0  0  0
  3 31  1  1  0  0  0
  4  5  1  0  0  0  0
  4  9  1  0  0  0  0
  4 32  1  6  0  0  0
  5  6  1  0  0  0  0
  5 33  1  0  0  0  0
  5 34  1  0  0  0  0
  6  7  1  0  0  0  0
  6 35  1  0  0  0  0
  6 36  1  0  0  0  0
  7  8  2  0  0  0  0
  9 10  2  0  0  0  0
  9 11  1  0  0  0  0
 11 12  1  0  0  0  0
 11 37  1  0  0  0  0
 12 13  1  0  0  0  0
 12 38  1  0  0  0  0
 12 39  1  0  0  0  0
 13 14  2  0  0  0  0
 13 21  1  0  0  0  0
 14 15  1  0  0  0  0
 14 40  1  0  0  0  0
 15 16  1  0  0  0  0
 15 19  2  0  0  0  0
 16 17  1  0  0  0  0
 16 18  2  0  0  0  0
 19 20  1  0  0  0  0
 19 21  1  0  0  0  0
 20 41  1  0  0  0  0
 20 42  1  0  0  0  0
 20 43  1  0  0  0  0
 22 23  1  0  0  0  0
 22 27  2  0  0  0  0
 23 24  2  0  0  0  0
 23 44  1  0  0  0  0
 24 25  1  0  0  0  0
 25 26  1  0  0  0  0
 25 27  1  0  0  0  0
 26 45  1  0  0  0  0
 26 46  1  0  0  0  0
 26 47  1  0  0  0  0
 27 48  1  0  0  0  0
M  CHG  1  17  -1
M  END
$$$$
