HTS1710-02794540-01
 OpenBabel03232612353D

 40 42  0  0  0  0  0  0  0  0999 V2000
    7.5592  -18.3802  -24.7966 C   0  0  0  0  0  0  0  0  0  0  0  0
    8.6564  -18.7975  -24.0629 C   0  0  0  0  0  0  0  0  0  0  0  0
    7.3917  -17.2289  -25.7476 C   0  0  0  0  0  0  0  0  0  0  0  0
    5.7458  -15.7772  -26.9395 C   0  0  0  0  0  3  0  0  0  0  0  0
    6.5768  -14.7708  -27.3153 N   0  0  0  0  0  0  0  0  0  0  0  0
    6.1016  -16.8165  -26.0821 N   0  0  0  0  0  0  0  0  0  0  0  0
    6.5533  -19.2968  -24.4500 N   0  0  0  0  0  0  0  0  0  0  0  0
    6.9897  -20.2380  -23.5562 N   0  0  0  0  0  0  0  0  0  0  0  0
    4.5137  -15.7438  -27.3995 N   0  0  0  0  0  0  0  0  0  0  0  0
    8.2505  -19.9404  -23.3237 C   0  0  0  0  0  0  0  0  0  0  0  0
    4.5670  -14.5996  -28.1626 N   0  0  0  0  0  0  0  0  0  0  0  0
   10.0489  -18.2705  -23.9657 C   0  0  0  0  0  0  0  0  0  0  0  0
    5.8335  -14.0236  -28.0895 C   0  0  0  0  0  0  0  0  0  0  0  0
    3.7931   -9.1297  -29.6917 C   0  0  0  0  0  0  0  0  0  0  0  0
    3.8663  -10.5487  -30.2119 C   0  0  0  0  0  0  0  0  0  0  0  0
    8.3349  -16.6488  -26.2521 O   0  0  0  0  0  0  0  0  0  0  0  0
    3.6109  -11.6444  -29.3578 C   0  0  0  0  0  0  0  0  0  0  0  0
   10.5692  -18.3076  -22.8643 O   0  5  0  0  0  0  0  0  0  0  0  0
    3.3884  -14.1366  -28.9089 C   0  0  0  0  0  0  0  0  0  0  0  0
    4.3953   -8.2700  -30.3122 O   0  5  0  0  0  0  0  0  0  0  0  0
    3.6718  -12.9653  -29.8414 C   0  0  0  0  0  0  0  0  0  0  0  0
   10.6028  -17.8373  -24.9567 O   0  0  0  0  0  0  0  0  0  0  0  0
    3.1380   -8.9319  -28.6830 O   0  0  0  0  0  0  0  0  0  0  0  0
    5.1465  -19.3572  -24.8825 C   0  0  0  0  0  0  0  0  0  0  0  0
    4.1908  -10.8028  -31.5614 C   0  0  0  0  0  0  0  0  0  0  0  0
    4.2515  -12.1178  -32.0456 C   0  0  0  0  0  0  0  0  0  0  0  0
    3.9909  -13.1973  -31.1892 C   0  0  0  0  0  0  0  0  0  0  0  0
    5.3610  -17.3146  -25.6667 H   0  0  0  0  0  0  0  0  0  0  0  0
    3.7646  -16.3629  -27.2422 H   0  0  0  0  0  0  0  0  0  0  0  0
    8.8654  -20.4697  -22.6860 H   0  0  0  0  0  0  0  0  0  0  0  0
    6.1330  -13.1575  -28.5641 H   0  0  0  0  0  0  0  0  0  0  0  0
    3.3769  -11.4746  -28.3671 H   0  0  0  0  0  0  0  0  0  0  0  0
    2.6410  -13.8346  -28.2053 H   0  0  0  0  0  0  0  0  0  0  0  0
    3.0677  -14.9527  -29.5223 H   0  0  0  0  0  0  0  0  0  0  0  0
    4.9521  -18.5655  -25.5755 H   0  0  0  0  0  0  0  0  0  0  0  0
    4.5068  -19.2513  -24.0313 H   0  0  0  0  0  0  0  0  0  0  0  0
    4.9587  -20.2988  -25.3548 H   0  0  0  0  0  0  0  0  0  0  0  0
    4.3852  -10.0140  -32.1979 H   0  0  0  0  0  0  0  0  0  0  0  0
    4.4886  -12.2914  -33.0349 H   0  0  0  0  0  0  0  0  0  0  0  0
    4.0337  -14.1633  -31.5498 H   0  0  0  0  0  0  0  0  0  0  0  0
  1  2  2  0  0  0  0
  1  3  1  0  0  0  0
  1  7  1  0  0  0  0
  2 10  1  0  0  0  0
  2 12  1  0  0  0  0
  3  6  1  0  0  0  0
  3 16  2  0  0  0  0
  4  5  1  0  0  0  0
  4  6  1  0  0  0  0
  4  9  1  0  0  0  0
  5 13  2  0  0  0  0
  6 28  1  0  0  0  0
  7  8  1  0  0  0  0
  7 24  1  0  0  0  0
  8 10  2  0  0  0  0
  9 11  1  0  0  0  0
  9 29  1  0  0  0  0
 10 30  1  0  0  0  0
 11 13  1  0  0  0  0
 11 19  1  0  0  0  0
 12 18  1  0  0  0  0
 12 22  2  0  0  0  0
 13 31  1  0  0  0  0
 14 15  1  0  0  0  0
 14 20  1  0  0  0  0
 14 23  2  0  0  0  0
 15 17  2  0  0  0  0
 15 25  1  0  0  0  0
 17 21  1  0  0  0  0
 17 32  1  0  0  0  0
 19 21  1  0  0  0  0
 19 33  1  0  0  0  0
 19 34  1  0  0  0  0
 21 27  2  0  0  0  0
 24 35  1  0  0  0  0
 24 36  1  0  0  0  0
 24 37  1  0  0  0  0
 25 26  2  0  0  0  0
 25 38  1  0  0  0  0
 26 27  1  0  0  0  0
 26 39  1  0  0  0  0
 27 40  1  0  0  0  0
M  CHG  2  18  -1  20  -1
M  END
$$$$
