HTS1710-00207045-01
 OpenBabel03232612343D

 24 25  0  0  0  0  0  0  0  0999 V2000
    4.1892   -9.2350  -30.8193 C   0  0  0  0  0  0  0  0  0  0  0  0
    4.1023  -10.3634  -31.5731 N   0  0  0  0  0  0  0  0  0  0  0  0
    4.5877   -9.9586  -32.7314 C   0  0  0  0  0  0  0  0  0  0  0  0
    4.7236   -8.2276  -31.5846 C   0  0  0  0  0  0  0  0  0  0  0  0
    5.0062   -8.6537  -32.8569 O   0  0  0  0  0  0  0  0  0  0  0  0
    3.7584   -9.1513  -29.3979 C   0  0  0  0  0  0  0  0  0  0  0  0
    4.6424  -10.9079  -33.8082 C   0  0  0  0  0  0  0  0  0  0  0  0
    4.7932  -10.5421  -35.5221 S   0  0  0  0  0  0  0  0  0  0  0  0
    4.5818  -12.2543  -33.5540 C   0  0  0  0  0  0  0  0  0  0  0  0
    4.7765  -12.2671  -35.8898 C   0  0  0  0  0  0  0  0  0  0  0  0
    3.0675   -8.2075  -29.0558 O   0  5  0  0  0  0  0  0  0  0  0  0
    4.6593  -13.0271  -34.7488 C   0  0  0  0  0  0  0  0  0  0  0  0
    4.9443   -6.9475  -31.1526 O   0  0  0  0  0  0  0  0  0  0  0  0
    4.1262  -10.0409  -28.6503 O   0  0  0  0  0  0  0  0  0  0  0  0
    5.5083   -5.9843  -32.0590 C   0  0  0  0  0  0  0  0  0  0  0  0
    5.6087   -4.6328  -31.3281 C   0  0  0  0  0  0  0  0  0  0  0  0
    4.4907  -12.6597  -32.6093 H   0  0  0  0  0  0  0  0  0  0  0  0
    4.8460  -12.6578  -36.8424 H   0  0  0  0  0  0  0  0  0  0  0  0
    4.6303  -14.0586  -34.7575 H   0  0  0  0  0  0  0  0  0  0  0  0
    4.8789   -5.8848  -32.9186 H   0  0  0  0  0  0  0  0  0  0  0  0
    6.4783   -6.3033  -32.3788 H   0  0  0  0  0  0  0  0  0  0  0  0
    4.6338   -4.3243  -31.0132 H   0  0  0  0  0  0  0  0  0  0  0  0
    6.0187   -3.8989  -31.9901 H   0  0  0  0  0  0  0  0  0  0  0  0
    6.2436   -4.7361  -30.4730 H   0  0  0  0  0  0  0  0  0  0  0  0
  1  2  1  0  0  0  0
  1  4  2  0  0  0  0
  1  6  1  0  0  0  0
  2  3  2  0  0  0  0
  3  7  1  0  0  0  0
  3  5  1  0  0  0  0
  4  5  1  0  0  0  0
  4 13  1  0  0  0  0
  6 11  1  0  0  0  0
  6 14  2  0  0  0  0
  7  8  1  0  0  0  0
  7  9  2  0  0  0  0
  8 10  1  0  0  0  0
  9 12  1  0  0  0  0
  9 17  1  0  0  0  0
 10 12  2  0  0  0  0
 10 18  1  0  0  0  0
 12 19  1  0  0  0  0
 13 15  1  0  0  0  0
 15 16  1  0  0  0  0
 15 20  1  0  0  0  0
 15 21  1  0  0  0  0
 16 22  1  0  0  0  0
 16 23  1  0  0  0  0
 16 24  1  0  0  0  0
M  CHG  1  11  -1
M  END
$$$$
