##########                                Name: HTS1710-00481174-01
##########                    Molecular_Weight:             349.388
##########                DOCK_Rotatable_Bonds:                   7
##########                       Formal_Charge:                  -2
##########                     HBond_Acceptors:                   8
##########                        HBond_Donors:                   0
##########                         Heavy_Atoms:                  23
##########                          Grid_Score:          -74.896088
##########                     Grid_vdw_energy:          -37.611637
##########                      Grid_es_energy:          -37.284454
##########           Internal_energy_repulsive:           14.343646

@<TRIPOS>MOLECULE
HTS1710-00481174-01
 34 35 1 0 0
SMALL
USER_CHARGES


@<TRIPOS>ATOM
      1 N           2.9981  -11.4835  -32.9356 N.am    1  UNL1       -0.2466
      2 C           3.8324  -10.4685  -33.6391 C.3     1  UNL1        0.0718
      3 C           3.4512  -12.1473  -31.7974 C.2     1  UNL1        0.2589
      4 C           1.7025  -11.8220  -33.3112 C.2     1  UNL1        0.1211
      5 C           5.0734  -11.1032  -34.3376 C.3     1  UNL1       -0.0235
      6 C           4.1626   -9.2937  -32.6891 C.2     1  UNL1        0.0626
      7 C           2.4075  -13.0714  -31.2940 C.2     1  UNL1        0.0772
      8 O           4.5500  -11.9807  -31.2925 O.2     1  UNL1       -0.2690
      9 S           0.9465  -13.0522  -32.2579 S.3     1  UNL1       -0.0610
     10 S           0.8250  -11.1235  -34.5578 S.2     1  UNL1       -0.0272
     11 C           5.0758  -10.8876  -35.8721 C.3     1  UNL1       -0.0112
     12 O           3.2177   -8.7406  -32.1517 O.co2   1  UNL1       -0.5479
     13 O           5.3328   -8.9866  -32.5332 O.co2   1  UNL1       -0.5479
     14 C           2.6127  -13.8390  -30.1651 C.2     1  UNL1       -0.0357
     15 C           4.9135   -9.4099  -36.2475 C.2     1  UNL1        0.0418
     16 C           3.7268  -14.0413  -29.1864 C.ar    1  UNL1       -0.0238
     17 O           5.5458   -8.5964  -35.5946 O.co2   1  UNL1       -0.5498
     18 O           4.1791   -9.1484  -37.1839 O.co2   1  UNL1       -0.5498
     19 C           4.0780  -15.3637  -28.8432 C.ar    1  UNL1       -0.0546
     20 C           4.4419  -12.9802  -28.5860 C.ar    1  UNL1       -0.0546
     21 C           5.1138  -15.6234  -27.9329 C.ar    1  UNL1       -0.0612
     22 C           5.4773  -13.2417  -27.6745 C.ar    1  UNL1       -0.0612
     23 C           5.8157  -14.5621  -27.3475 C.ar    1  UNL1       -0.0617
     24 H           3.2643  -10.0536  -34.4453 H       1  UNL1        0.0566
     25 H           5.0758  -12.1550  -34.1404 H       1  UNL1        0.0290
     26 H           5.9447  -10.6230  -33.9439 H       1  UNL1        0.0290
     27 H           4.2674  -11.4429  -36.2998 H       1  UNL1        0.0325
     28 H           6.0194  -11.2216  -36.2502 H       1  UNL1        0.0325
     29 H           1.7903  -14.4200  -29.9389 H       1  UNL1        0.0636
     30 H           3.5653  -16.1522  -29.2681 H       1  UNL1        0.0623
     31 H           4.2008  -12.0044  -28.8198 H       1  UNL1        0.0623
     32 H           5.3587  -16.5972  -27.6946 H       1  UNL1        0.0618
     33 H           5.9918  -12.4579  -27.2430 H       1  UNL1        0.0618
     34 H           6.5784  -14.7513  -26.6785 H       1  UNL1        0.0618
@<TRIPOS>BOND
     1     1     2    1
     2     1     3   am
     3     1     4    1
     4     2     5    1
     5     2     6    1
     6     3     7    1
     7     3     8    2
     8     4     9    1
     9     4    10    2
    10     5    11    1
    11     6    12   ar
    12     6    13   ar
    13     7    14    2
    14    11    15    1
    15    14    16    1
    16    15    17   ar
    17    15    18   ar
    18    16    19   ar
    19    16    20   ar
    20    19    21   ar
    21    20    22   ar
    22    21    23   ar
    23     7     9    1
    24    22    23   ar
    25     2    24    1
    26     5    25    1
    27     5    26    1
    28    11    27    1
    29    11    28    1
    30    14    29    1
    31    19    30    1
    32    20    31    1
    33    21    32    1
    34    22    33    1
    35    23    34    1
@<TRIPOS>SUBSTRUCTURE
     1 UNL1        1 TEMP              0 ****  ****    0 ROOT


