##########                                Name: HTS1710-05435998-01
##########                    Molecular_Weight:             337.332
##########                DOCK_Rotatable_Bonds:                   1
##########                       Formal_Charge:                  -2
##########                     HBond_Acceptors:                   6
##########                        HBond_Donors:                   0
##########                         Heavy_Atoms:                  25
##########                          Grid_Score:          -75.505569
##########                     Grid_vdw_energy:          -38.131466
##########                      Grid_es_energy:          -37.374100
##########           Internal_energy_repulsive:           15.696388

@<TRIPOS>MOLECULE
HTS1710-05435998-01
 40 43 1 0 0
SMALL
USER_CHARGES


@<TRIPOS>ATOM
      1 C           2.9079   -9.5812  -32.8023 C.ar    1  UNL1        0.0388
      2 C           1.7509  -10.2371  -33.4540 C.ar    1  UNL1        0.2561
      3 C           2.9089  -10.1280  -30.3252 C.2     1  UNL1       -0.0061
      4 C           4.1442   -9.4402  -33.4024 C.ar    1  UNL1        0.0212
      5 C           2.7352   -9.0517  -31.3909 C.3     1  UNL1        0.0230
      6 N           2.0072  -10.7015  -34.7499 N.ar    1  UNL1       -0.3154
      7 C           3.7540  -11.2947  -30.6444 C.2     1  UNL1        0.1882
      8 C           4.3329   -9.9488  -34.7287 C.ar    1  UNL1       -0.0281
      9 C           3.2616  -10.5503  -35.3631 C.ar    1  UNL1        0.0197
     10 C           2.2761  -10.0062  -29.1028 C.2     1  UNL1       -0.1262
     11 O           5.2187   -8.8759  -32.7630 O.co2   1  UNL1       -0.5818
     12 C           3.8758  -12.2894  -29.5329 C.ar    1  UNL1        0.0152
     13 C           5.1389   -8.2156  -31.5657 C.2     1  UNL1        0.0335
     14 O           2.4027  -10.9540  -28.1171 O.co2   1  UNL1       -0.7845
     15 C           3.7020   -7.8705  -31.1546 C.3     1  UNL1       -0.0028
     16 C           3.1919  -12.0701  -28.3193 C.ar    1  UNL1       -0.0834
     17 O           0.6695  -10.3646  -32.9006 O.2     1  UNL1       -0.2673
     18 O           4.3111  -11.4538  -31.7177 O.2     1  UNL1       -0.2870
     19 O           6.1155   -7.9216  -30.9011 O.2     1  UNL1       -0.5506
     20 C           0.9174  -11.3731  -35.5019 C.3     1  UNL1        0.0149
     21 C           3.4905  -11.0652  -36.7729 C.3     1  UNL1       -0.0241
     22 C           4.6697  -13.4449  -29.6835 C.ar    1  UNL1       -0.0515
     23 C           3.3056  -13.0018  -27.2726 C.ar    1  UNL1       -0.0678
     24 C           4.7807  -14.3700  -28.6343 C.ar    1  UNL1       -0.0611
     25 C           4.0985  -14.1487  -27.4284 C.ar    1  UNL1       -0.0623
     26 H           1.7259   -8.7087  -31.2984 H       1  UNL1        0.0404
     27 H           5.2476   -9.8681  -35.1997 H       1  UNL1        0.0646
     28 H           1.6894   -9.1761  -28.9249 H       1  UNL1        0.0459
     29 H           3.3698   -7.0315  -31.7296 H       1  UNL1        0.0334
     30 H           3.7015   -7.6462  -30.1084 H       1  UNL1        0.0334
     31 H           0.0351  -11.4067  -34.8975 H       1  UNL1        0.0457
     32 H           1.2174  -12.3696  -35.7508 H       1  UNL1        0.0457
     33 H           0.7143  -10.8271  -36.3994 H       1  UNL1        0.0457
     34 H           4.4986  -10.8610  -37.0678 H       1  UNL1        0.0292
     35 H           2.8163  -10.5765  -37.4448 H       1  UNL1        0.0292
     36 H           3.3180  -12.1208  -36.7994 H       1  UNL1        0.0292
     37 H           5.1716  -13.6111  -30.5698 H       1  UNL1        0.0624
     38 H           2.8035  -12.8414  -26.3854 H       1  UNL1        0.0612
     39 H           5.3643  -15.2133  -28.7496 H       1  UNL1        0.0618
     40 H           4.1799  -14.8290  -26.6567 H       1  UNL1        0.0617
@<TRIPOS>BOND
     1     1     2   ar
     2     3     5    1
     3     1     4   ar
     4     1     5    1
     5     2     6   ar
     6     3     7    1
     7     4     8   ar
     8     8     9   ar
     9     3    10    2
    10     4    11    1
    11     7    12    1
    12    13    15    1
    13    10    14    1
    14     5    15    1
    15    14    16    1
    16     2    17    2
    17     7    18    2
    18    13    19    2
    19     6    20    1
    20     9    21    1
    21    12    22   ar
    22    16    23   ar
    23    22    24   ar
    24    23    25   ar
    25    11    13    1
    26     6     9   ar
    27    12    16   ar
    28    24    25   ar
    29     5    26    1
    30     8    27    1
    31    10    28    1
    32    15    29    1
    33    15    30    1
    34    20    31    1
    35    20    32    1
    36    20    33    1
    37    21    34    1
    38    21    35    1
    39    21    36    1
    40    22    37    1
    41    23    38    1
    42    24    39    1
    43    25    40    1
@<TRIPOS>SUBSTRUCTURE
     1 UNL1        1 TEMP              0 ****  ****    0 ROOT


