##########                                Name: HTS1710-01829045-01
##########                    Molecular_Weight:             426.428
##########                DOCK_Rotatable_Bonds:                   9
##########                       Formal_Charge:                  -2
##########                     HBond_Acceptors:                  12
##########                        HBond_Donors:                   2
##########                         Heavy_Atoms:                  28
##########                          Grid_Score:          -78.449097
##########                     Grid_vdw_energy:          -45.974281
##########                      Grid_es_energy:          -32.474819
##########           Internal_energy_repulsive:            8.445125

@<TRIPOS>MOLECULE
HTS1710-01829045-01
 42 43 1 0 0
SMALL
USER_CHARGES


@<TRIPOS>ATOM
      1 S           0.7123   -9.0601  -33.9223 S.O2    1  UNL1        0.0584
      2 S           4.6661  -11.6974  -35.2915 S.O2    1  UNL1        0.0584
      3 C          -0.3800   -7.8407  -34.6774 C.ar    1  UNL1        0.1053
      4 C           4.5183  -11.2192  -33.5609 C.ar    1  UNL1        0.1053
      5 C          -2.9864   -4.8896  -36.5155 C.2     1  UNL1        0.0717
      6 C           4.1845  -10.0621  -29.3864 C.2     1  UNL1        0.0717
      7 O           2.0883   -8.8737  -34.3953 O.2     1  UNL1       -0.1530
      8 O           0.3627   -9.1618  -32.5026 O.2     1  UNL1       -0.1530
      9 O           4.5615  -13.1563  -35.3886 O.2     1  UNL1       -0.1530
     10 O           5.7323  -10.9204  -35.9343 O.2     1  UNL1       -0.1530
     11 N           0.2108  -10.5672  -34.5411 N.3     1  UNL1       -0.1887
     12 N           3.2113  -11.1412  -35.9683 N.3     1  UNL1       -0.1887
     13 C          -2.0786   -5.9189  -35.8762 C.ar    1  UNL1       -0.0026
     14 C           4.3016  -10.4661  -30.8396 C.ar    1  UNL1       -0.0026
     15 O          -2.5594   -4.2868  -37.4858 O.co2   1  UNL1       -0.5446
     16 O           4.3411  -10.9305  -28.5453 O.co2   1  UNL1       -0.5446
     17 C          -1.5884   -7.4807  -34.0568 C.ar    1  UNL1       -0.0347
     18 C          -0.0215   -7.2425  -35.8964 C.ar    1  UNL1       -0.0347
     19 C           5.1378  -10.0444  -33.1001 C.ar    1  UNL1       -0.0347
     20 C           3.7976  -12.0207  -32.6609 C.ar    1  UNL1       -0.0347
     21 C          -0.8631   -6.2890  -36.4906 C.ar    1  UNL1       -0.0511
     22 C          -2.4305   -6.5280  -34.6514 C.ar    1  UNL1       -0.0511
     23 C           3.6879  -11.6462  -31.3116 C.ar    1  UNL1       -0.0511
     24 C           5.0302   -9.6707  -31.7509 C.ar    1  UNL1       -0.0511
     25 C           0.7295  -11.0460  -35.8393 C.3     1  UNL1        0.0316
     26 C           1.9969  -11.9222  -35.6870 C.3     1  UNL1        0.0316
     27 O          -4.0888   -4.7254  -36.0217 O.co2   1  UNL1       -0.5446
     28 O           3.9387   -8.8926  -29.1455 O.co2   1  UNL1       -0.5446
     29 H          -0.8047  -10.5260  -34.6277 H       1  UNL1        0.1480
     30 H           3.3333  -11.1175  -36.9806 H       1  UNL1        0.1480
     31 H          -1.8574   -7.9179  -33.1615 H       1  UNL1        0.0637
     32 H           0.8640   -7.5048  -36.3570 H       1  UNL1        0.0637
     33 H           5.6736   -9.4545  -33.7559 H       1  UNL1        0.0637
     34 H           3.3468  -12.8881  -32.9919 H       1  UNL1        0.0637
     35 H          -0.5902   -5.8542  -37.3859 H       1  UNL1        0.0625
     36 H          -3.3161   -6.2698  -34.1888 H       1  UNL1        0.0625
     37 H           3.1530  -12.2399  -30.6587 H       1  UNL1        0.0625
     38 H           5.4880   -8.8062  -31.4221 H       1  UNL1        0.0625
     39 H           0.9697  -10.1982  -36.4462 H       1  UNL1        0.0454
     40 H          -0.0304  -11.6505  -36.2890 H       1  UNL1        0.0454
     41 H           2.0455  -12.2971  -34.6860 H       1  UNL1        0.0454
     42 H           1.9402  -12.7302  -36.3861 H       1  UNL1        0.0454
@<TRIPOS>BOND
     1     1     3    1
     2     1     7    2
     3     1     8    2
     4     1    11    1
     5     2     4    1
     6     2     9    2
     7     2    10    2
     8     2    12    1
     9     3    17   ar
    10     3    18   ar
    11     4    19   ar
    12     4    20   ar
    13     5    13    1
    14     5    15   ar
    15     5    27   ar
    16     6    14    1
    17     6    16   ar
    18     6    28   ar
    19    11    25    1
    20    12    26    1
    21    13    21   ar
    22    13    22   ar
    23    14    23   ar
    24    14    24   ar
    25    17    22   ar
    26    18    21   ar
    27    19    24   ar
    28    20    23   ar
    29    25    26    1
    30    11    29    1
    31    12    30    1
    32    17    31    1
    33    18    32    1
    34    19    33    1
    35    20    34    1
    36    21    35    1
    37    22    36    1
    38    23    37    1
    39    24    38    1
    40    25    39    1
    41    25    40    1
    42    26    41    1
    43    26    42    1
@<TRIPOS>SUBSTRUCTURE
     1 UNL1        1 TEMP              0 ****  ****    0 ROOT


