##########                                Name: HTS1710-04762103-01
##########                    Molecular_Weight:             356.358
##########                DOCK_Rotatable_Bonds:                   6
##########                       Formal_Charge:                  -2
##########                     HBond_Acceptors:                   8
##########                        HBond_Donors:                   1
##########                         Heavy_Atoms:                  26
##########                          Grid_Score:          -80.986778
##########                     Grid_vdw_energy:          -42.156506
##########                      Grid_es_energy:          -38.830273
##########           Internal_energy_repulsive:           16.693523

@<TRIPOS>MOLECULE
HTS1710-04762103-01
 44 46 1 0 0
SMALL
USER_CHARGES


@<TRIPOS>ATOM
      1 C           3.0907   -9.9044  -36.9795 C.3     1  UNL1        0.0038
      2 N           3.2183  -10.5152  -35.6384 N.am    1  UNL1       -0.2974
      3 C           4.6009  -10.7819  -35.1938 C.3     1  UNL1        0.0269
      4 C           5.1775   -9.6001  -34.4625 C.2     1  UNL1       -0.0998
      5 C           5.1508   -9.4510  -33.1020 C.2     1  UNL1       -0.0630
      6 C           5.7495   -8.1875  -32.8606 C.2     1  UNL1       -0.0144
      7 C           5.9511   -7.5560  -31.5342 C.2     1  UNL1        0.0708
      8 O           6.1958   -6.3636  -31.4869 O.co2   1  UNL1       -0.5447
      9 O           5.8579   -8.2804  -30.5577 O.co2   1  UNL1       -0.5447
     10 C           6.0683   -7.7267  -34.1237 C.2     1  UNL1       -0.1120
     11 C           6.7200   -6.4044  -34.4390 C.3     1  UNL1       -0.0524
     12 O           5.7349   -8.5642  -35.1588 O.co2   1  UNL1       -0.7845
     13 C           2.1250  -10.8031  -34.8129 C.2     1  UNL1        0.2466
     14 O           0.9724  -10.6069  -35.1610 O.2     1  UNL1       -0.2700
     15 C           2.4157  -11.3923  -33.4614 C.ar    1  UNL1        0.0370
     16 C           2.2788  -10.6006  -32.3094 C.ar    1  UNL1       -0.0479
     17 C           2.5288  -11.1469  -31.0397 C.ar    1  UNL1       -0.0395
     18 C           2.9138  -12.4953  -30.9060 C.ar    1  UNL1        0.0378
     19 C           3.0251  -13.2928  -32.0614 C.ar    1  UNL1       -0.0395
     20 C           2.7733  -12.7465  -33.3293 C.ar    1  UNL1       -0.0479
     21 N           3.1613  -13.0465  -29.6135 N.am    1  UNL1       -0.2541
     22 C           2.8503  -14.4422  -29.2797 C.3     1  UNL1        0.0368
     23 C           3.4263  -14.6723  -27.8568 C.3     1  UNL1        0.0293
     24 N           3.9859  -13.3614  -27.5304 N.am    1  UNL1       -0.2975
     25 C           3.8275  -12.4624  -28.5576 C.2     1  UNL1        0.3066
     26 O           4.2269  -11.3129  -28.4996 O.2     1  UNL1       -0.2523
     27 H           4.0626   -9.7841  -37.4106 H       1  UNL1        0.0429
     28 H           2.6183   -8.9483  -36.8926 H       1  UNL1        0.0429
     29 H           2.4989  -10.5390  -37.6056 H       1  UNL1        0.0429
     30 H           5.2078  -10.9922  -36.0496 H       1  UNL1        0.0502
     31 H           4.5857  -11.6178  -34.5259 H       1  UNL1        0.0502
     32 H           4.7769  -10.1130  -32.4043 H       1  UNL1        0.0615
     33 H           6.9138   -5.8762  -33.5289 H       1  UNL1        0.0266
     34 H           6.0674   -5.8234  -35.0566 H       1  UNL1        0.0266
     35 H           7.6415   -6.5752  -34.9555 H       1  UNL1        0.0266
     36 H           1.9931   -9.6127  -32.3961 H       1  UNL1        0.0626
     37 H           2.4299  -10.5564  -30.1992 H       1  UNL1        0.0636
     38 H           3.2935  -14.2855  -31.9751 H       1  UNL1        0.0636
     39 H           2.8508  -13.3413  -34.1691 H       1  UNL1        0.0626
     40 H           3.3124  -15.1053  -29.9809 H       1  UNL1        0.0484
     41 H           1.7979  -14.6316  -29.3150 H       1  UNL1        0.0484
     42 H           4.1851  -15.4266  -27.8634 H       1  UNL1        0.0478
     43 H           2.6990  -15.0151  -27.1508 H       1  UNL1        0.0478
     44 H           4.4246  -13.1480  -26.6752 H       1  UNL1        0.1503
@<TRIPOS>BOND
     1     1     2    1
     2     2     3    1
     3     3     4    1
     4     4     5    2
     5     5     6    1
     6     6     7    1
     7     7     8   ar
     8     7     9   ar
     9     6    10    2
    10    10    11    1
    11    10    12    1
    12     4    12    1
    13     2    13   am
    14    13    14    2
    15    13    15    1
    16    15    16   ar
    17    16    17   ar
    18    17    18   ar
    19    18    19   ar
    20    19    20   ar
    21    15    20   ar
    22    18    21    1
    23    21    22    1
    24    22    23    1
    25    23    24    1
    26    24    25   am
    27    21    25   am
    28    25    26    2
    29     1    27    1
    30     1    28    1
    31     1    29    1
    32     3    30    1
    33     3    31    1
    34     5    32    1
    35    11    33    1
    36    11    34    1
    37    11    35    1
    38    16    36    1
    39    17    37    1
    40    19    38    1
    41    20    39    1
    42    22    40    1
    43    22    41    1
    44    23    42    1
    45    23    43    1
    46    24    44    1
@<TRIPOS>SUBSTRUCTURE
     1 UNL1        1 TEMP              0 ****  ****    0 ROOT


