##########                                Name: HTS1710-00526357-01
##########                    Molecular_Weight:             315.156
##########                DOCK_Rotatable_Bonds:                  10
##########                       Formal_Charge:                  -2
##########                     HBond_Acceptors:                   9
##########                        HBond_Donors:                   1
##########                         Heavy_Atoms:                  19
##########                          Grid_Score:          -76.526344
##########                     Grid_vdw_energy:          -35.765095
##########                      Grid_es_energy:          -40.761250
##########           Internal_energy_repulsive:           12.267914

@<TRIPOS>MOLECULE
HTS1710-00526357-01
 34 33 1 0 0
SMALL
USER_CHARGES


@<TRIPOS>ATOM
      1 N           2.8307  -10.9690  -31.4540 N.4     1  UNL1        0.2454
      2 C           4.2063  -10.7328  -31.9588 C.3     1  UNL1        0.0217
      3 C           2.8256  -11.9114  -30.3218 C.3     1  UNL1        0.0217
      4 C           1.8680  -11.4125  -32.4849 C.3     1  UNL1       -0.0310
      5 P           4.7966   -8.9772  -31.8487 P.3     1  UNL1        0.1538
      6 P           3.0717  -10.9565  -28.7772 P.3     1  UNL1        0.1538
      7 C           1.4699  -10.2446  -33.4148 C.3     1  UNL1       -0.0125
      8 O           3.6206   -8.0692  -31.8899 O.co2   1  UNL1       -0.3540
      9 O           5.6952   -8.7594  -33.0115 O.co2   1  UNL1       -0.3540
     10 O           5.5335   -8.8482  -30.5638 O.2     1  UNL1       -0.4553
     11 O           2.4558  -11.7398  -27.6744 O.co2   1  UNL1       -0.3540
     12 O           2.3891   -9.6504  -28.9771 O.co2   1  UNL1       -0.3540
     13 O           4.5357  -10.7864  -28.5890 O.2     1  UNL1       -0.4553
     14 C           1.3800  -10.7129  -34.8865 C.3     1  UNL1       -0.0479
     15 C           2.7420  -11.1452  -35.4874 C.3     1  UNL1       -0.0478
     16 C           3.6833   -9.9566  -35.8127 C.3     1  UNL1       -0.0132
     17 C           3.3270   -9.2862  -37.1468 C.2     1  UNL1        0.0417
     18 O           2.1481   -9.2368  -37.4492 O.co2   1  UNL1       -0.5498
     19 O           4.2469   -8.8436  -37.8139 O.co2   1  UNL1       -0.5498
     20 H           2.5112  -10.0531  -31.1386 H       1  UNL1        0.2043
     21 H           4.2372  -11.0287  -32.9866 H       1  UNL1        0.0894
     22 H           4.8561  -11.3049  -31.3299 H       1  UNL1        0.0894
     23 H           3.6177  -12.6212  -30.4384 H       1  UNL1        0.0894
     24 H           1.8952  -12.4384  -30.2851 H       1  UNL1        0.0894
     25 H           0.9903  -11.7905  -32.0036 H       1  UNL1        0.0815
     26 H           2.3311  -12.1746  -33.0762 H       1  UNL1        0.0815
     27 H           2.2046   -9.4705  -33.3384 H       1  UNL1        0.0317
     28 H           0.5096   -9.8814  -33.1136 H       1  UNL1        0.0317
     29 H           0.9920   -9.9073  -35.4742 H       1  UNL1        0.0267
     30 H           0.7439  -11.5732  -34.9025 H       1  UNL1        0.0267
     31 H           2.5561  -11.6866  -36.3914 H       1  UNL1        0.0269
     32 H           3.2349  -11.7425  -34.7490 H       1  UNL1        0.0269
     33 H           4.6891  -10.3176  -35.8657 H       1  UNL1        0.0325
     34 H           3.5729   -9.2273  -35.0376 H       1  UNL1        0.0325
@<TRIPOS>BOND
     1     1     2    1
     2     1     3    1
     3     1     4    1
     4     2     5    1
     5     3     6    1
     6     4     7    1
     7     5     8    1
     8     5     9    1
     9     5    10    2
    10     6    11    1
    11     6    12    1
    12     6    13    2
    13     7    14    1
    14    14    15    1
    15    15    16    1
    16    16    17    1
    17    17    18   ar
    18    17    19   ar
    19     1    20    1
    20     2    21    1
    21     2    22    1
    22     3    23    1
    23     3    24    1
    24     4    25    1
    25     4    26    1
    26     7    27    1
    27     7    28    1
    28    14    29    1
    29    14    30    1
    30    15    31    1
    31    15    32    1
    32    16    33    1
    33    16    34    1
@<TRIPOS>SUBSTRUCTURE
     1 UNL1        1 TEMP              0 ****  ****    0 ROOT


