##########                                Name: HTS1710-05464515-01
##########                    Molecular_Weight:             324.337
##########                DOCK_Rotatable_Bonds:                   6
##########                       Formal_Charge:                  -2
##########                     HBond_Acceptors:                   9
##########                        HBond_Donors:                   1
##########                         Heavy_Atoms:                  22
##########                          Grid_Score:          -75.736771
##########                     Grid_vdw_energy:          -39.321007
##########                      Grid_es_energy:          -36.415768
##########           Internal_energy_repulsive:            7.110174

@<TRIPOS>MOLECULE
HTS1710-05464515-01
 36 37 1 0 0
SMALL
USER_CHARGES


@<TRIPOS>ATOM
      1 C           6.3667   -7.2886  -33.6775 C.3     1  UNL1       -0.0524
      2 C           5.5856   -8.5800  -33.6351 C.2     1  UNL1       -0.1101
      3 O           5.4630   -9.2950  -34.7892 O.co2   1  UNL1       -0.7844
      4 C           4.7304  -10.3559  -34.3449 C.2     1  UNL1       -0.0934
      5 C           4.3616  -11.4283  -35.3369 C.3     1  UNL1       -0.0512
      6 C           4.3881  -10.3499  -33.0064 C.2     1  UNL1        0.1023
      7 C           4.9787   -9.1289  -32.5224 C.2     1  UNL1        0.0118
      8 C           4.9586   -8.5789  -31.1336 C.2     1  UNL1        0.0727
      9 O           6.0165   -8.2524  -30.6266 O.co2   1  UNL1       -0.5446
     10 O           3.8860   -8.4836  -30.5684 O.co2   1  UNL1       -0.5446
     11 S           3.4493  -11.6288  -32.1366 S.O2    1  UNL1        0.0582
     12 O           3.7513  -12.9749  -32.6332 O.2     1  UNL1       -0.1531
     13 O           2.0748  -11.1453  -31.9853 O.2     1  UNL1       -0.1531
     14 N           4.0600  -11.5729  -30.5541 N.3     1  UNL1       -0.1896
     15 C           4.7097  -12.7892  -30.0434 C.3     1  UNL1        0.0229
     16 C           4.4917  -12.9114  -28.5190 C.3     1  UNL1        0.0053
     17 C           5.3483  -14.0111  -27.8956 C.ar    1  UNL1        0.0606
     18 C           4.7862  -15.2353  -27.4801 C.ar    1  UNL1        0.0489
     19 N           5.5326  -16.2149  -26.9297 N.ar    1  UNL1       -0.2600
     20 C           6.8491  -15.9579  -26.7941 C.ar    1  UNL1        0.0457
     21 C           7.4142  -14.7385  -27.2100 C.ar    1  UNL1        0.0460
     22 N           6.6703  -13.7613  -27.7671 N.ar    1  UNL1       -0.2568
     23 H           6.7189   -7.1174  -34.6733 H       1  UNL1        0.0266
     24 H           7.2007   -7.3541  -33.0104 H       1  UNL1        0.0266
     25 H           5.7338   -6.4791  -33.3790 H       1  UNL1        0.0266
     26 H           4.7572  -11.1759  -36.2985 H       1  UNL1        0.0267
     27 H           3.2961  -11.5058  -35.3987 H       1  UNL1        0.0267
     28 H           4.7695  -12.3647  -35.0181 H       1  UNL1        0.0267
     29 H           3.2814  -11.3560  -29.9318 H       1  UNL1        0.1480
     30 H           5.7589  -12.7416  -30.2476 H       1  UNL1        0.0445
     31 H           4.2815  -13.6425  -30.5266 H       1  UNL1        0.0445
     32 H           3.4611  -13.1331  -28.3358 H       1  UNL1        0.0342
     33 H           4.7777  -11.9820  -28.0727 H       1  UNL1        0.0342
     34 H           3.7725  -15.3867  -27.6007 H       1  UNL1        0.0848
     35 H           7.4595  -16.6759  -26.3734 H       1  UNL1        0.0845
     36 H           8.4275  -14.5875  -27.0852 H       1  UNL1        0.0845
@<TRIPOS>BOND
     1     1     2    1
     2     2     3    1
     3     3     4    1
     4     4     5    1
     5     4     6    2
     6     6     7    1
     7     2     7    2
     8     7     8    1
     9     8     9   ar
    10     8    10   ar
    11     6    11    1
    12    11    12    2
    13    11    13    2
    14    11    14    1
    15    14    15    1
    16    15    16    1
    17    16    17    1
    18    17    18   ar
    19    18    19   ar
    20    19    20   ar
    21    20    21   ar
    22    21    22   ar
    23    17    22   ar
    24     1    23    1
    25     1    24    1
    26     1    25    1
    27     5    26    1
    28     5    27    1
    29     5    28    1
    30    14    29    1
    31    15    30    1
    32    15    31    1
    33    16    32    1
    34    16    33    1
    35    18    34    1
    36    20    35    1
    37    21    36    1
@<TRIPOS>SUBSTRUCTURE
     1 UNL1        1 TEMP              0 ****  ****    0 ROOT


