##########                                Name: HTS1710-04760611-01
##########                    Molecular_Weight:             331.305
##########                DOCK_Rotatable_Bonds:                   6
##########                       Formal_Charge:                  -2
##########                     HBond_Acceptors:                   8
##########                        HBond_Donors:                   1
##########                         Heavy_Atoms:                  24
##########                          Grid_Score:          -76.329033
##########                     Grid_vdw_energy:          -41.026375
##########                      Grid_es_energy:          -35.302658
##########           Internal_energy_repulsive:           13.407823

@<TRIPOS>MOLECULE
HTS1710-04760611-01
 39 41 1 0 0
SMALL
USER_CHARGES


@<TRIPOS>ATOM
      1 C           0.4698   -9.7352  -34.2207 C.3     1  UNL1       -0.0633
      2 C           1.1639  -10.7705  -35.1348 C.3     1  UNL1       -0.0321
      3 CA          2.6154  -10.3619  -35.5069 C.3     1  UNL1        0.0627
      4 N           3.2541   -9.6856  -34.3673 N.am    1  UNL1       -0.3022
      5 C           4.6195   -9.7456  -34.1203 C.2     1  UNL1        0.2623
      6 O           5.3210  -10.4260  -34.8499 O.2     1  UNL1       -0.2685
      7 CA          5.1341   -9.0152  -32.9326 C.2     1  UNL1        0.1180
      8 N           5.7405   -7.8017  -33.0240 N.2     1  UNL1       -0.2654
      9 C           5.8924   -7.4256  -31.7633 C.2     1  UNL1       -0.0363
     10 O           5.4295   -8.2886  -30.7914 O.co2   1  UNL1       -0.7709
     11 C           4.9952   -9.3018  -31.5979 C.2     1  UNL1       -0.0549
     12 C           4.5851  -10.5909  -31.0068 C.ar    1  UNL1       -0.0259
     13 C           4.5284  -11.7300  -31.8388 C.ar    1  UNL1       -0.0514
     14 C           4.1249  -12.9762  -31.3333 C.ar    1  UNL1       -0.0157
     15 C           3.7440  -13.0925  -29.9901 C.ar    1  UNL1        0.1621
     16 O           3.3640  -14.3149  -29.4797 O.3     1  UNL1       -0.4849
     17 C           3.2710  -14.4767  -28.0485 C.3     1  UNL1        0.1237
     18 C           2.5584  -13.2367  -27.4602 C.3     1  UNL1        0.1237
     19 O           3.2808  -12.0557  -27.8663 O.3     1  UNL1       -0.4849
     20 C           3.7247  -11.9538  -29.1673 C.ar    1  UNL1        0.1626
     21 C           4.1397  -10.7116  -29.6708 C.ar    1  UNL1       -0.0096
     22 C           2.6629   -9.4367  -36.7351 C.2     1  UNL1        0.0619
     23 O           1.6663   -8.7836  -36.9950 O.co2   1  UNL1       -0.5479
     24 OXT         3.7024   -9.4201  -37.3718 O.co2   1  UNL1       -0.5479
     25 H          -0.5229  -10.0659  -33.9968 H       1  UNL1        0.0230
     26 H           0.4267   -8.7901  -34.7207 H       1  UNL1        0.0230
     27 H           1.0251   -9.6328  -33.3119 H       1  UNL1        0.0230
     28 H           0.5943  -10.8689  -36.0352 H       1  UNL1        0.0284
     29 H           1.2154  -11.6941  -34.5970 H       1  UNL1        0.0284
     30 H           3.1439  -11.2601  -35.7499 H       1  UNL1        0.0560
     31 H           2.6877   -9.1666  -33.7515 H       1  UNL1        0.1497
     32 H           6.3373   -6.5271  -31.5188 H       1  UNL1        0.0668
     33 H           4.7875  -11.6453  -32.8341 H       1  UNL1        0.0624
     34 H           4.1090  -13.8040  -31.9493 H       1  UNL1        0.0655
     35 H           4.2523  -14.5615  -27.6304 H       1  UNL1        0.0731
     36 H           2.7184  -15.3627  -27.8147 H       1  UNL1        0.0731
     37 H           2.5446  -13.3017  -26.3923 H       1  UNL1        0.0731
     38 H           1.5508  -13.1901  -27.8173 H       1  UNL1        0.0731
     39 H           4.1195   -9.8795  -29.0608 H       1  UNL1        0.0661
@<TRIPOS>BOND
     1     1     2    1
     2     2     3    1
     3     3     4    1
     4     4     5   am
     5     5     6    2
     6     5     7    1
     7     7     8    1
     8     8     9    2
     9     9    10    1
    10    10    11    1
    11     7    11    2
    12    11    12    1
    13    12    13   ar
    14    13    14   ar
    15    14    15   ar
    16    15    16    1
    17    16    17    1
    18    17    18    1
    19    18    19    1
    20    19    20    1
    21    15    20   ar
    22    20    21   ar
    23    12    21   ar
    24     3    22    1
    25    22    23   ar
    26    22    24   ar
    27     1    25    1
    28     1    26    1
    29     1    27    1
    30     2    28    1
    31     2    29    1
    32     3    30    1
    33     4    31    1
    34     9    32    1
    35    13    33    1
    36    14    34    1
    37    17    35    1
    38    17    36    1
    39    18    37    1
    40    18    38    1
    41    21    39    1
@<TRIPOS>SUBSTRUCTURE
     1 UNL1        1 TEMP              0 ****  ****    0 ROOT


