HTS1710-02512674-01
 OpenBabel03232612343D

 44 46  0  0  0  0  0  0  0  0999 V2000
   -0.4149   -6.6643  -32.0476 C   0  0  0  0  0  0  0  0  0  0  0  0
    2.2928   -7.2086  -31.4576 C   0  0  0  0  0  0  0  0  0  0  0  0
    1.5290   -6.4043  -30.5797 C   0  0  0  0  0  0  0  0  0  0  0  0
    0.3530   -7.4500  -32.9307 C   0  0  0  0  0  0  0  0  0  0  0  0
   -2.1732   -6.2677  -32.4299 S   0  0  2  0  0  0  0  0  0  0  0  0
    4.0634   -7.5747  -31.1077 S   0  0  1  0  0  0  0  0  0  0  0  0
   -2.4752   -5.2802  -35.0804 C   0  0  0  0  0  0  0  0  0  0  0  0
    3.7040  -10.3870  -30.8970 C   0  0  0  0  0  0  0  0  0  0  0  0
    4.1213   -9.3136  -31.7153 C   0  0  0  0  0  0  0  0  0  0  0  0
   -1.8448   -5.1168  -33.8227 C   0  0  0  0  0  0  0  0  0  0  0  0
    1.7019   -7.7053  -32.6350 C   0  0  0  0  0  0  0  0  0  0  0  0
    0.1807   -6.1411  -30.8854 C   0  0  0  0  0  0  0  0  0  0  0  0
    2.1232   -5.7771  -29.3465 C   0  0  0  0  0  0  0  0  0  0  0  0
   -0.2225   -8.0097  -34.1959 C   0  0  0  0  0  0  0  0  0  0  0  0
   -3.5103   -6.3445  -35.3305 C   0  0  0  0  0  0  0  0  0  0  0  0
    3.1862  -10.1636  -29.5102 C   0  0  0  0  0  0  0  0  0  0  0  0
   -2.7460   -5.4487  -31.2935 O   0  0  0  0  0  0  0  0  0  0  0  0
    4.8998   -6.7143  -32.0314 O   0  0  0  0  0  0  0  0  0  0  0  0
    0.2289   -7.5904  -35.2470 O   0  5  0  0  0  0  0  0  0  0  0  0
    2.1506   -6.4424  -28.3261 O   0  5  0  0  0  0  0  0  0  0  0  0
   -4.5076   -6.0246  -35.9539 O   0  5  0  0  0  0  0  0  0  0  0  0
    3.5908   -9.1791  -28.9185 O   0  5  0  0  0  0  0  0  0  0  0  0
    2.5222   -4.6308  -29.4541 O   0  0  0  0  0  0  0  0  0  0  0  0
   -1.1154   -8.8309  -34.0794 O   0  0  0  0  0  0  0  0  0  0  0  0
    2.3792  -10.9725  -29.0866 O   0  0  0  0  0  0  0  0  0  0  0  0
   -3.2625   -7.4653  -34.9200 O   0  0  0  0  0  0  0  0  0  0  0  0
    3.7735  -11.7038  -31.3873 C   0  0  0  0  0  0  0  0  0  0  0  0
   -2.1336   -4.4103  -36.1352 C   0  0  0  0  0  0  0  0  0  0  0  0
   -0.9207   -4.0729  -33.6316 C   0  0  0  0  0  0  0  0  0  0  0  0
    4.6080   -9.5762  -33.0112 C   0  0  0  0  0  0  0  0  0  0  0  0
   -1.2010   -3.3807  -35.9403 C   0  0  0  0  0  0  0  0  0  0  0  0
    4.2507  -11.9564  -32.6823 C   0  0  0  0  0  0  0  0  0  0  0  0
    4.6672  -10.8923  -33.4941 C   0  0  0  0  0  0  0  0  0  0  0  0
   -0.6002   -3.2062  -34.6867 C   0  0  0  0  0  0  0  0  0  0  0  0
    2.2687   -8.2655  -33.2907 H   0  0  0  0  0  0  0  0  0  0  0  0
   -0.3798   -5.5553  -30.2470 H   0  0  0  0  0  0  0  0  0  0  0  0
    3.4713  -12.4895  -30.7903 H   0  0  0  0  0  0  0  0  0  0  0  0
   -2.5741   -4.5320  -37.0605 H   0  0  0  0  0  0  0  0  0  0  0  0
   -0.4761   -3.9441  -32.7092 H   0  0  0  0  0  0  0  0  0  0  0  0
    4.9228   -8.7959  -33.6087 H   0  0  0  0  0  0  0  0  0  0  0  0
   -0.9572   -2.7513  -36.7209 H   0  0  0  0  0  0  0  0  0  0  0  0
    4.2950  -12.9247  -33.0367 H   0  0  0  0  0  0  0  0  0  0  0  0
    5.0175  -11.0768  -34.4471 H   0  0  0  0  0  0  0  0  0  0  0  0
    0.0768   -2.4414  -34.5400 H   0  0  0  0  0  0  0  0  0  0  0  0
  1  4  2  0  0  0  0
  1  5  1  0  0  0  0
  1 12  1  0  0  0  0
  2  3  1  0  0  0  0
  2  6  1  0  0  0  0
  2 11  2  0  0  0  0
  3 12  2  0  0  0  0
  3 13  1  0  0  0  0
  4 11  1  0  0  0  0
  4 14  1  0  0  0  0
  5 10  1  0  0  0  0
  5 17  2  1  0  0  0
  6  9  1  0  0  0  0
  6 18  2  6  0  0  0
  7 10  2  0  0  0  0
  7 15  1  0  0  0  0
  7 28  1  0  0  0  0
  8  9  2  0  0  0  0
  8 16  1  0  0  0  0
  8 27  1  0  0  0  0
  9 30  1  0  0  0  0
 10 29  1  0  0  0  0
 11 35  1  0  0  0  0
 12 36  1  0  0  0  0
 13 20  1  0  0  0  0
 13 23  2  0  0  0  0
 14 19  1  0  0  0  0
 14 24  2  0  0  0  0
 15 21  1  0  0  0  0
 15 26  2  0  0  0  0
 16 22  1  0  0  0  0
 16 25  2  0  0  0  0
 27 32  2  0  0  0  0
 27 37  1  0  0  0  0
 28 31  2  0  0  0  0
 28 38  1  0  0  0  0
 29 34  2  0  0  0  0
 29 39  1  0  0  0  0
 30 33  2  0  0  0  0
 30 40  1  0  0  0  0
 31 34  1  0  0  0  0
 31 41  1  0  0  0  0
 32 33  1  0  0  0  0
 32 42  1  0  0  0  0
 33 43  1  0  0  0  0
 34 44  1  0  0  0  0
M  CHG  4  19  -1  20  -1  21  -1  22  -1
M  END
$$$$
