##########                                Name: HTS1710-00688560-01
##########                    Molecular_Weight:             248.192
##########                DOCK_Rotatable_Bonds:                   4
##########                       Formal_Charge:                  -3
##########                     HBond_Acceptors:                   6
##########                        HBond_Donors:                   0
##########                         Heavy_Atoms:                  18
##########                          Grid_Score:          -77.219322
##########                     Grid_vdw_energy:          -29.605064
##########                      Grid_es_energy:          -47.614258
##########           Internal_energy_repulsive:            6.984840

@<TRIPOS>MOLECULE
HTS1710-00688560-01
 26 27 1 0 0
SMALL
USER_CHARGES


@<TRIPOS>ATOM
      1 C           5.1244   -9.7506  -33.5394 C.ar    1  UNL1       -0.0203
      2 C           5.6044   -8.4887  -32.9968 C.2     1  UNL1       -0.0069
      3 C           5.3254   -9.7360  -34.9032 C.ar    1  UNL1       -0.0861
      4 C           4.5449  -10.8635  -32.9067 C.ar    1  UNL1       -0.0127
      5 C           6.0553   -7.8618  -34.1563 C.2     1  UNL1       -0.1113
      6 C           5.6097   -8.0051  -31.5911 C.2     1  UNL1        0.0714
      7 O           5.9044   -8.5730  -35.3268 O.co2   1  UNL1       -0.7823
      8 C           4.9634  -10.8112  -35.7184 C.ar    1  UNL1       -0.0645
      9 C           4.1732  -11.9725  -33.7084 C.ar    1  UNL1        0.1216
     10 C           6.6831   -6.4930  -34.2193 C.3     1  UNL1       -0.0524
     11 O           5.5852   -6.8028  -31.3956 O.co2   1  UNL1       -0.5446
     12 O           5.6353   -8.8403  -30.7049 O.co2   1  UNL1       -0.5446
     13 C           4.3804  -11.9370  -35.1073 C.ar    1  UNL1       -0.0204
     14 O           3.6003  -13.1119  -33.1733 O.3     1  UNL1       -0.4862
     15 C           2.6907  -13.1098  -32.0490 C.3     1  UNL1        0.1286
     16 C           1.2334  -12.8381  -32.4642 C.2     1  UNL1        0.0789
     17 O           0.9356  -11.6736  -32.6580 O.co2   1  UNL1       -0.5463
     18 O           0.4706  -13.7850  -32.5641 O.co2   1  UNL1       -0.5463
     19 H           4.3939  -10.8735  -31.8858 H       1  UNL1        0.0660
     20 H           5.1188  -10.7809  -36.7382 H       1  UNL1        0.0613
     21 H           6.7283   -6.0757  -33.2350 H       1  UNL1        0.0266
     22 H           6.0941   -5.8591  -34.8487 H       1  UNL1        0.0266
     23 H           7.6725   -6.5725  -34.6188 H       1  UNL1        0.0266
     24 H           4.1013  -12.7448  -35.6856 H       1  UNL1        0.0654
     25 H           2.9980  -12.3497  -31.3614 H       1  UNL1        0.0760
     26 H           2.7240  -14.0825  -31.6045 H       1  UNL1        0.0760
@<TRIPOS>BOND
     1     1     2    1
     2     1     3   ar
     3     1     4   ar
     4     2     5    2
     5     2     6    1
     6     3     7    1
     7     3     8   ar
     8     4     9   ar
     9     5    10    1
    10     6    11   ar
    11     6    12   ar
    12     8    13   ar
    13     9    14    1
    14    14    15    1
    15    15    16    1
    16    16    17   ar
    17    16    18   ar
    18     5     7    1
    19     9    13   ar
    20     4    19    1
    21     8    20    1
    22    10    21    1
    23    10    22    1
    24    10    23    1
    25    13    24    1
    26    15    25    1
    27    15    26    1
@<TRIPOS>SUBSTRUCTURE
     1 UNL1        1 TEMP              0 ****  ****    0 ROOT


