##########                                Name: HTS1710-03215314-01
##########                    Molecular_Weight:             416.476
##########                DOCK_Rotatable_Bonds:                   7
##########                       Formal_Charge:                  -2
##########                     HBond_Acceptors:                  11
##########                        HBond_Donors:                   0
##########                         Heavy_Atoms:                  27
##########                          Grid_Score:          -76.228622
##########                     Grid_vdw_energy:          -42.611008
##########                      Grid_es_energy:          -33.617615
##########           Internal_energy_repulsive:           15.410262

@<TRIPOS>MOLECULE
HTS1710-03215314-01
 47 48 1 0 0
SMALL
USER_CHARGES


@<TRIPOS>ATOM
      1 C           3.0659   -8.8662  -32.4195 C.ar    1  UNL1        0.1523
      2 S           3.6131  -10.5376  -32.8384 S.O2    1  UNL1        0.0679
      3 C           3.7773   -7.7498  -31.9750 C.ar    1  UNL1        0.0344
      4 C           2.8714   -6.6310  -31.7333 C.ar    1  UNL1       -0.0238
      5 S           1.3536   -8.5343  -32.5941 S.2     1  UNL1       -0.0664
      6 C           1.5448   -6.8762  -32.0676 C.ar    1  UNL1        0.0399
      7 N           3.3811  -11.4209  -31.3975 N.3     1  UNL1       -0.1731
      8 N           3.5944  -12.9286  -28.8952 N.am    1  UNL1       -0.2989
      9 C           3.4962  -13.6366  -27.6887 C.2     1  UNL1        0.2159
     10 C           5.2773   -7.7071  -31.7929 C.2     1  UNL1        0.0743
     11 C           0.3592   -5.9669  -32.0507 C.2     1  UNL1        0.0786
     12 O           5.0525  -10.5183  -33.1207 O.2     1  UNL1       -0.1523
     13 O           2.6530  -11.0551  -33.8190 O.2     1  UNL1       -0.1523
     14 C           3.7133  -10.7156  -30.1470 C.3     1  UNL1        0.0364
     15 C           3.9311  -12.7855  -31.4101 C.3     1  UNL1        0.0364
     16 C           3.2241  -11.4905  -28.9019 C.3     1  UNL1        0.0291
     17 C           3.4353  -13.6141  -30.2059 C.3     1  UNL1        0.0291
     18 C           3.8861  -15.1291  -27.7060 C.3     1  UNL1        0.0265
     19 O           3.2030  -13.0924  -26.6371 O.2     1  UNL1       -0.2756
     20 O           5.9641   -7.1767  -32.6467 O.co2   1  UNL1       -0.5445
     21 O          -0.7624   -6.4329  -31.9785 O.co2   1  UNL1       -0.5441
     22 C           3.3788   -5.3231  -31.1369 C.3     1  UNL1       -0.0379
     23 O           5.7612   -8.2220  -30.8044 O.co2   1  UNL1       -0.5445
     24 O           0.5890   -4.7700  -32.0965 O.co2   1  UNL1       -0.5441
     25 C           5.4086  -15.3661  -27.9337 C.3     1  UNL1       -0.0385
     26 C           5.8031  -16.8066  -27.5272 C.3     1  UNL1       -0.0622
     27 C           6.2656  -14.3278  -27.1666 C.3     1  UNL1       -0.0622
     28 H           3.2489   -9.7518  -30.1594 H       1  UNL1        0.0459
     29 H           4.7782  -10.6294  -30.0873 H       1  UNL1        0.0459
     30 H           4.9990  -12.7289  -31.3754 H       1  UNL1        0.0459
     31 H           3.6005  -13.2692  -32.3055 H       1  UNL1        0.0459
     32 H           3.6474  -11.0310  -28.0331 H       1  UNL1        0.0478
     33 H           2.1551  -11.4484  -28.9141 H       1  UNL1        0.0478
     34 H           2.3970  -13.8292  -30.3497 H       1  UNL1        0.0478
     35 H           4.0369  -14.4983  -30.1688 H       1  UNL1        0.0478
     36 H           3.3459  -15.6121  -28.4933 H       1  UNL1        0.0361
     37 H           3.6433  -15.5310  -26.7446 H       1  UNL1        0.0361
     38 H           4.4339   -5.3915  -30.9728 H       1  UNL1        0.0278
     39 H           2.8842   -5.1400  -30.2059 H       1  UNL1        0.0278
     40 H           3.1744   -4.5197  -31.8134 H       1  UNL1        0.0278
     41 H           5.6045  -15.2409  -28.9781 H       1  UNL1        0.0300
     42 H           5.6128  -16.9475  -26.4836 H       1  UNL1        0.0232
     43 H           6.8436  -16.9604  -27.7239 H       1  UNL1        0.0232
     44 H           5.2257  -17.5076  -28.0929 H       1  UNL1        0.0232
     45 H           6.0913  -14.4280  -26.1157 H       1  UNL1        0.0232
     46 H           5.9957  -13.3411  -27.4804 H       1  UNL1        0.0232
     47 H           7.3015  -14.4974  -27.3742 H       1  UNL1        0.0232
@<TRIPOS>BOND
     1     1     2    1
     2     1     3   ar
     3     1     5   ar
     4     2     7    1
     5     2    12    2
     6     2    13    2
     7     3     4   ar
     8     3    10    1
     9     4     6   ar
    10     4    22    1
    11     5     6   ar
    12     6    11    1
    13     7    14    1
    14     7    15    1
    15     8     9   am
    16     8    16    1
    17     8    17    1
    18     9    18    1
    19     9    19    2
    20    10    20   ar
    21    10    23   ar
    22    11    21   ar
    23    11    24   ar
    24    14    16    1
    25    15    17    1
    26    18    25    1
    27    25    26    1
    28    25    27    1
    29    14    28    1
    30    14    29    1
    31    15    30    1
    32    15    31    1
    33    16    32    1
    34    16    33    1
    35    17    34    1
    36    17    35    1
    37    18    36    1
    38    18    37    1
    39    22    38    1
    40    22    39    1
    41    22    40    1
    42    25    41    1
    43    26    42    1
    44    26    43    1
    45    26    44    1
    46    27    45    1
    47    27    46    1
    48    27    47    1
@<TRIPOS>SUBSTRUCTURE
     1 UNL1        1 TEMP              0 ****  ****    0 ROOT


