HTS1710-01275590-01
 OpenBabel03232612343D

 60 61  0  0  1  0  0  0  0  0999 V2000
    1.6610  -11.1311  -34.4387 S   0  0  0  0  0  0  0  0  0  0  0  0
    2.3414  -10.9210  -32.8894 N   0  0  0  0  0  0  0  0  0  0  0  0
    3.1709  -11.7150  -30.6693 C   0  0  0  0  0  0  0  0  0  0  0  0
    2.8075  -12.0946  -32.1233 C   0  0  2  0  0  0  0  0  0  0  0  0
    2.9286  -12.6770  -29.6768 N   0  0  0  0  0  0  0  0  0  0  0  0
    1.6825  -15.5084  -26.5279 C   0  0  0  0  0  0  0  0  0  0  0  0
    2.3216  -16.1754  -25.4865 N   0  0  0  0  0  0  0  0  0  0  0  0
    0.7956   -9.5963  -34.8394 C   0  0  0  0  0  0  0  0  0  0  0  0
    0.8787  -16.1101  -23.4575 C   0  0  0  0  0  0  0  0  0  0  0  0
    1.6450  -16.9964  -24.4633 C   0  0  2  0  0  0  0  0  0  0  0  0
    2.8101  -11.2871  -35.3353 O   0  0  0  0  0  0  0  0  0  0  0  0
    0.6664  -12.1873  -34.2219 O   0  0  0  0  0  0  0  0  0  0  0  0
    2.8592  -19.9188  -22.1105 C   0  0  0  0  0  0  0  0  0  0  0  0
    2.5612  -14.6987  -27.4995 C   0  0  1  0  0  0  0  0  0  0  0  0
    3.5543  -10.5872  -30.3981 O   0  0  0  0  0  0  0  0  0  0  0  0
    3.2674  -12.3417  -28.2690 C   0  0  0  0  0  0  0  0  0  0  0  0
    2.9504  -14.1357  -29.9740 C   0  0  0  0  0  0  0  0  0  0  0  0
    0.4697  -15.5679  -26.6513 O   0  0  0  0  0  0  0  0  0  0  0  0
    1.4763  -15.7928  -22.4437 O   0  5  0  0  0  0  0  0  0  0  0  0
    4.0371  -19.6118  -22.0497 O   0  5  0  0  0  0  0  0  0  0  0  0
    2.1504  -14.9839  -28.9618 C   0  0  0  0  0  0  0  0  0  0  0  0
    2.4960  -13.1758  -27.2225 C   0  0  0  0  0  0  0  0  0  0  0  0
    2.6035  -18.0376  -23.8122 C   0  0  0  0  0  0  0  0  0  0  0  0
   -0.2542   -9.1496  -34.0186 C   0  0  0  0  0  0  0  0  0  0  0  0
    1.1611   -8.8436  -35.9705 C   0  0  0  0  0  0  0  0  0  0  0  0
    1.8988  -18.9015  -22.7381 C   0  0  0  0  0  0  0  0  0  0  0  0
   -0.2605  -15.7734  -23.7339 O   0  0  0  0  0  0  0  0  0  0  0  0
    2.3842  -20.9763  -21.7335 O   0  0  0  0  0  0  0  0  0  0  0  0
   -0.9223   -7.9500  -34.3159 C   0  0  0  0  0  0  0  0  0  0  0  0
    0.4810   -7.6540  -36.2744 C   0  0  0  0  0  0  0  0  0  0  0  0
   -0.5582   -7.1960  -35.4446 C   0  0  0  0  0  0  0  0  0  0  0  0
    4.0226  -12.7200  -32.8431 C   0  0  0  0  0  0  0  0  0  0  0  0
   -1.2740   -5.8878  -35.7546 C   0  0  0  0  0  0  0  0  0  0  0  0
    1.6350  -10.4576  -32.3178 H   0  0  0  0  0  0  0  0  0  0  0  0
    2.0129  -12.8094  -32.0734 H   0  0  0  0  0  0  0  0  0  0  0  0
    3.3008  -16.0930  -25.4279 H   0  0  0  0  0  0  0  0  0  0  0  0
    0.9003  -17.5922  -24.9485 H   0  0  0  0  0  0  0  0  0  0  0  0
    3.5721  -15.0125  -27.3423 H   0  0  0  0  0  0  0  0  0  0  0  0
    3.0446  -11.3079  -28.1062 H   0  0  0  0  0  0  0  0  0  0  0  0
    4.3058  -12.5644  -28.1386 H   0  0  0  0  0  0  0  0  0  0  0  0
    3.9675  -14.4678  -29.9647 H   0  0  0  0  0  0  0  0  0  0  0  0
    2.4882  -14.2685  -30.9299 H   0  0  0  0  0  0  0  0  0  0  0  0
    1.1095  -14.7634  -29.0756 H   0  0  0  0  0  0  0  0  0  0  0  0
    2.3573  -16.0141  -29.1639 H   0  0  0  0  0  0  0  0  0  0  0  0
    1.4704  -12.8707  -27.2313 H   0  0  0  0  0  0  0  0  0  0  0  0
    2.9546  -13.0021  -26.2716 H   0  0  0  0  0  0  0  0  0  0  0  0
    3.4167  -17.5153  -23.3531 H   0  0  0  0  0  0  0  0  0  0  0  0
    2.9440  -18.6941  -24.5854 H   0  0  0  0  0  0  0  0  0  0  0  0
   -0.5351   -9.7044  -33.1950 H   0  0  0  0  0  0  0  0  0  0  0  0
    1.9305   -9.1668  -36.5776 H   0  0  0  0  0  0  0  0  0  0  0  0
    1.5219  -18.2599  -21.9692 H   0  0  0  0  0  0  0  0  0  0  0  0
    1.1043  -19.4399  -23.2111 H   0  0  0  0  0  0  0  0  0  0  0  0
   -1.6842   -7.6208  -33.7024 H   0  0  0  0  0  0  0  0  0  0  0  0
    0.7451   -7.1120  -37.1120 H   0  0  0  0  0  0  0  0  0  0  0  0
    4.8158  -12.0036  -32.8918 H   0  0  0  0  0  0  0  0  0  0  0  0
    3.7406  -13.0078  -33.8343 H   0  0  0  0  0  0  0  0  0  0  0  0
    4.3530  -13.5818  -32.3018 H   0  0  0  0  0  0  0  0  0  0  0  0
   -0.8637   -5.4591  -36.6450 H   0  0  0  0  0  0  0  0  0  0  0  0
   -1.1437   -5.2080  -34.9386 H   0  0  0  0  0  0  0  0  0  0  0  0
   -2.3173   -6.0773  -35.8979 H   0  0  0  0  0  0  0  0  0  0  0  0
  1  2  1  0  0  0  0
  1  8  1  0  0  0  0
  1 11  2  0  0  0  0
  1 12  2  0  0  0  0
  2  4  1  0  0  0  0
  2 34  1  0  0  0  0
  3  4  1  0  0  0  0
  3  5  1  0  0  0  0
  3 15  2  0  0  0  0
  4 32  1  0  0  0  0
  4 35  1  1  0  0  0
  5 16  1  0  0  0  0
  5 17  1  0  0  0  0
  6 14  1  0  0  0  0
  6  7  1  0  0  0  0
  6 18  2  0  0  0  0
  7 10  1  0  0  0  0
  7 36  1  0  0  0  0
  8 24  2  0  0  0  0
  8 25  1  0  0  0  0
  9 10  1  0  0  0  0
  9 19  1  0  0  0  0
  9 27  2  0  0  0  0
 10 23  1  0  0  0  0
 10 37  1  6  0  0  0
 13 26  1  0  0  0  0
 13 20  1  0  0  0  0
 13 28  2  0  0  0  0
 14 21  1  0  0  0  0
 14 22  1  0  0  0  0
 14 38  1  1  0  0  0
 16 22  1  0  0  0  0
 16 39  1  0  0  0  0
 16 40  1  0  0  0  0
 17 21  1  0  0  0  0
 17 41  1  0  0  0  0
 17 42  1  0  0  0  0
 21 43  1  0  0  0  0
 21 44  1  0  0  0  0
 22 45  1  0  0  0  0
 22 46  1  0  0  0  0
 23 26  1  0  0  0  0
 23 47  1  0  0  0  0
 23 48  1  0  0  0  0
 24 29  1  0  0  0  0
 24 49  1  0  0  0  0
 25 30  2  0  0  0  0
 25 50  1  0  0  0  0
 26 51  1  0  0  0  0
 26 52  1  0  0  0  0
 29 31  2  0  0  0  0
 29 53  1  0  0  0  0
 30 31  1  0  0  0  0
 30 54  1  0  0  0  0
 31 33  1  0  0  0  0
 32 55  1  0  0  0  0
 32 56  1  0  0  0  0
 32 57  1  0  0  0  0
 33 58  1  0  0  0  0
 33 59  1  0  0  0  0
 33 60  1  0  0  0  0
M  CHG  2  19  -1  20  -1
M  END
$$$$
