##########                                Name: HTS1710-05334053-01
##########                    Molecular_Weight:             281.288
##########                DOCK_Rotatable_Bonds:                   7
##########                       Formal_Charge:                  -2
##########                     HBond_Acceptors:                   7
##########                        HBond_Donors:                   1
##########                         Heavy_Atoms:                  20
##########                          Grid_Score:          -74.894485
##########                     Grid_vdw_energy:          -36.400082
##########                      Grid_es_energy:          -38.494408
##########           Internal_energy_repulsive:            6.596093

@<TRIPOS>MOLECULE
HTS1710-05334053-01
 37 38 1 0 0
SMALL
USER_CHARGES


@<TRIPOS>ATOM
      1 O           2.7559  -10.3554  -27.9215 O.co2   1  UNL1       -0.5474
      2 C           3.1313  -11.4979  -28.1158 C.2     1  UNL1        0.0673
      3 O           2.9971  -12.4253  -27.3347 O.co2   1  UNL1       -0.5474
      4 C           3.8242  -11.7703  -29.4596 C.3     1  UNL1        0.0872
      5 O           4.5509  -10.6123  -29.9267 O.3     1  UNL1       -0.3705
      6 C           4.6438  -10.4728  -31.3601 C.3     1  UNL1        0.0625
      7 C           5.2114   -9.1223  -31.7507 C.2     1  UNL1       -0.0600
      8 O           5.5608   -8.1885  -30.8142 O.co2   1  UNL1       -0.7726
      9 C           5.9808   -7.1722  -31.6459 C.2     1  UNL1       -0.0365
     10 N           5.9068   -7.3942  -32.9472 N.2     1  UNL1       -0.2657
     11 C           5.4062   -8.6543  -33.0207 C.2     1  UNL1        0.1156
     12 C           5.1230   -9.3662  -34.2907 C.2     1  UNL1        0.2618
     13 O           5.7665   -9.1869  -35.3113 O.2     1  UNL1       -0.2686
     14 N           4.0753  -10.2792  -34.2984 N.am    1  UNL1       -0.3073
     15 C           3.6896  -11.0516  -35.4908 C.3     1  UNL1        0.0235
     16 C           2.7353  -12.2009  -35.0729 C.3     1  UNL1       -0.0345
     17 C           1.3456  -11.6883  -34.6175 C.3     1  UNL1       -0.0514
     18 C           0.6981  -10.7602  -35.6733 C.3     1  UNL1       -0.0529
     19 C           1.6393   -9.6008  -36.0797 C.3     1  UNL1       -0.0514
     20 C           3.0277  -10.1151  -36.5374 C.3     1  UNL1       -0.0345
     21 H           3.0832  -12.0317  -30.1859 H       1  UNL1        0.0622
     22 H           4.5216  -12.5700  -29.3209 H       1  UNL1        0.0622
     23 H           3.6666  -10.5750  -31.7836 H       1  UNL1        0.0599
     24 H           5.3003  -11.2327  -31.7297 H       1  UNL1        0.0599
     25 H           6.3367   -6.2794  -31.2700 H       1  UNL1        0.0668
     26 H           3.5666  -10.4159  -33.4667 H       1  UNL1        0.1493
     27 H           4.5585  -11.4829  -35.9424 H       1  UNL1        0.0498
     28 H           3.1828  -12.7406  -34.2647 H       1  UNL1        0.0283
     29 H           2.5851  -12.8240  -35.9297 H       1  UNL1        0.0283
     30 H           1.4601  -11.1448  -33.7030 H       1  UNL1        0.0266
     31 H           0.7066  -12.5363  -34.4851 H       1  UNL1        0.0266
     32 H          -0.2017  -10.3485  -35.2662 H       1  UNL1        0.0265
     33 H           0.4954  -11.3437  -36.5470 H       1  UNL1        0.0265
     34 H           1.7709   -8.9518  -35.2393 H       1  UNL1        0.0266
     35 H           1.1907   -9.0828  -36.9014 H       1  UNL1        0.0266
     36 H           3.6689   -9.2740  -36.6993 H       1  UNL1        0.0283
     37 H           2.8854  -10.6799  -37.4350 H       1  UNL1        0.0283
@<TRIPOS>BOND
     1     1     2   ar
     2     2     3   ar
     3     2     4    1
     4     4     5    1
     5     5     6    1
     6     6     7    1
     7     7     8    1
     8     8     9    1
     9     9    10    2
    10    10    11    1
    11     7    11    2
    12    11    12    1
    13    12    13    2
    14    12    14   am
    15    14    15    1
    16    15    16    1
    17    16    17    1
    18    17    18    1
    19    18    19    1
    20    19    20    1
    21    15    20    1
    22     4    21    1
    23     4    22    1
    24     6    23    1
    25     6    24    1
    26     9    25    1
    27    14    26    1
    28    15    27    1
    29    16    28    1
    30    16    29    1
    31    17    30    1
    32    17    31    1
    33    18    32    1
    34    18    33    1
    35    19    34    1
    36    19    35    1
    37    20    36    1
    38    20    37    1
@<TRIPOS>SUBSTRUCTURE
     1 UNL1        1 TEMP              0 ****  ****    0 ROOT


