##########                                Name: HTS1710-01968295-01
##########                    Molecular_Weight:             364.469
##########                DOCK_Rotatable_Bonds:                   8
##########                       Formal_Charge:                  -2
##########                     HBond_Acceptors:                  13
##########                        HBond_Donors:                   0
##########                         Heavy_Atoms:                  19
##########                          Grid_Score:          -76.603455
##########                     Grid_vdw_energy:          -38.215313
##########                      Grid_es_energy:          -38.388138
##########           Internal_energy_repulsive:            7.106363

@<TRIPOS>MOLECULE
HTS1710-01968295-01
 27 27 1 0 0
SMALL
USER_CHARGES


@<TRIPOS>ATOM
      1 S           4.5217  -10.0555  -35.8142 S.3     1  UNL1       -0.0798
      2 S           4.0403  -10.3882  -29.5225 S.3     1  UNL1       -0.0798
      3 S           2.1742  -12.5460  -33.1455 S.2     1  UNL1       -0.0331
      4 C           1.4663  -13.7677  -32.1252 C.ar    1  UNL1        0.1593
      5 C           0.8809  -12.9521  -34.2366 C.ar    1  UNL1        0.1593
      6 N           0.4094  -14.3986  -32.6022 N.ar    1  UNL1       -0.1339
      7 N           0.0673  -13.9226  -33.8550 N.ar    1  UNL1       -0.1339
      8 C           2.7726  -11.6659  -29.7358 C.3     1  UNL1        0.0640
      9 C           3.2926  -11.3777  -35.9950 C.3     1  UNL1        0.0640
     10 O           4.2111   -9.1504  -36.9081 O.co2   1  UNL1       -0.7245
     11 O           4.8630  -10.9166  -28.4473 O.co2   1  UNL1       -0.7245
     12 O           4.2439   -9.5254  -34.4902 O.2     1  UNL1       -0.1853
     13 O           3.2754   -9.2029  -29.1738 O.2     1  UNL1       -0.1853
     14 O           4.6964  -10.3340  -30.8180 O.2     1  UNL1       -0.1853
     15 O           5.7929  -10.7478  -35.9364 O.2     1  UNL1       -0.1853
     16 S           2.0423  -14.2412  -30.5320 S.3     1  UNL1       -0.0954
     17 S           0.6494  -12.2515  -35.8344 S.3     1  UNL1       -0.0954
     18 C           3.3715  -13.0015  -30.2294 C.3     1  UNL1        0.0187
     19 C           1.8517  -10.8533  -35.8243 C.3     1  UNL1        0.0187
     20 H           2.0550  -11.3239  -30.4520 H       1  UNL1        0.0498
     21 H           2.3173  -11.8408  -28.7834 H       1  UNL1        0.0498
     22 H           3.4783  -12.1261  -35.2530 H       1  UNL1        0.0498
     23 H           3.3832  -11.7811  -36.9818 H       1  UNL1        0.0498
     24 H           4.0427  -13.3807  -29.4874 H       1  UNL1        0.0396
     25 H           3.8925  -12.8258  -31.1474 H       1  UNL1        0.0396
     26 H           1.7754  -10.3301  -34.8940 H       1  UNL1        0.0396
     27 H           1.6243  -10.1958  -36.6373 H       1  UNL1        0.0396
@<TRIPOS>BOND
     1     2     8    1
     2     3     5   ar
     3     3     4   ar
     4     5    17    1
     5     6     7   ar
     6     5     7   ar
     7     8    18    1
     8     1     9    1
     9     1    10    1
    10     2    11    1
    11     1    12    2
    12     2    13    2
    13     2    14    2
    14     1    15    2
    15     4    16    1
    16    17    19    1
    17    16    18    1
    18     9    19    1
    19     4     6   ar
    20     8    20    1
    21     8    21    1
    22     9    22    1
    23     9    23    1
    24    18    24    1
    25    18    25    1
    26    19    26    1
    27    19    27    1
@<TRIPOS>SUBSTRUCTURE
     1 UNL1        1 TEMP              0 ****  ****    0 ROOT


