##########                                Name: HTS1710-04762798-01
##########                    Molecular_Weight:             321.334
##########                DOCK_Rotatable_Bonds:                   5
##########                       Formal_Charge:                  -2
##########                     HBond_Acceptors:                   8
##########                        HBond_Donors:                   0
##########                         Heavy_Atoms:                  22
##########                          Grid_Score:          -75.257675
##########                     Grid_vdw_energy:          -34.424698
##########                      Grid_es_energy:          -40.832973
##########           Internal_energy_repulsive:            6.077101

@<TRIPOS>MOLECULE
HTS1710-04762798-01
 35 37 1 0 0
SMALL
USER_CHARGES


@<TRIPOS>ATOM
      1 O           3.3571   -9.1284  -37.7008 O.co2   1  UNL1       -0.5497
      2 C           4.1881   -9.5015  -36.8905 C.2     1  UNL1        0.0442
      3 O           5.1356   -8.8454  -36.4950 O.co2   1  UNL1       -0.5497
      4 C           4.0466  -10.9269  -36.3447 C.3     1  UNL1        0.0146
      5 C           3.0312  -10.9925  -35.1803 C.3     1  UNL1        0.0795
      6 C           3.1643   -9.7898  -34.2122 C.3     1  UNL1        0.0417
      7 N           2.0691   -9.7153  -33.2017 N.am    1  UNL1       -0.2916
      8 C           0.7174  -10.0045  -33.7434 C.3     1  UNL1        0.0386
      9 C           0.6888  -11.1861  -34.7422 C.3     1  UNL1        0.0638
     10 O           1.7041  -10.9703  -35.7343 O.3     1  UNL1       -0.3731
     11 C           2.1754   -8.8993  -32.0667 C.2     1  UNL1        0.2645
     12 O           1.1957   -8.3724  -31.5635 O.2     1  UNL1       -0.2683
     13 C           3.5454   -8.6260  -31.5450 C.2     1  UNL1        0.1186
     14 N           4.1044   -7.3904  -31.6343 N.2     1  UNL1       -0.2654
     15 C           5.3255   -7.5572  -31.1589 C.2     1  UNL1       -0.0363
     16 O           5.6559   -8.8200  -30.7217 O.co2   1  UNL1       -0.7706
     17 C           4.4619   -9.4541  -30.9339 C.2     1  UNL1       -0.0482
     18 C           4.2060  -10.7596  -30.3587 C.ar    1  UNL1        0.0077
     19 C           4.4950  -11.8794  -31.0994 C.ar    1  UNL1       -0.0480
     20 C           4.2506  -13.0886  -30.3870 C.ar    1  UNL1       -0.0542
     21 C           3.8072  -12.8890  -29.1026 C.ar    1  UNL1       -0.0238
     22 S           3.7083  -11.1741  -28.7189 S.2     1  UNL1       -0.0977
     23 H           5.0005  -11.2602  -35.9927 H       1  UNL1        0.0350
     24 H           3.6905  -11.5540  -37.1350 H       1  UNL1        0.0350
     25 H           3.2247  -11.8886  -34.6285 H       1  UNL1        0.0615
     26 H           3.1551   -8.8884  -34.7886 H       1  UNL1        0.0490
     27 H           4.0805   -9.9182  -33.6746 H       1  UNL1        0.0490
     28 H           0.3597   -9.1295  -34.2445 H       1  UNL1        0.0487
     29 H           0.1000  -10.2803  -32.9141 H       1  UNL1        0.0487
     30 H          -0.2706  -11.2372  -35.2132 H       1  UNL1        0.0575
     31 H           0.8705  -12.1059  -34.2266 H       1  UNL1        0.0575
     32 H           6.0002   -6.7774  -31.1172 H       1  UNL1        0.0668
     33 H           4.8508  -11.8483  -32.0676 H       1  UNL1        0.0629
     34 H           4.3931  -14.0250  -30.7969 H       1  UNL1        0.0623
     35 H           3.5633  -13.6473  -28.4466 H       1  UNL1        0.0693
@<TRIPOS>BOND
     1     1     2   ar
     2     2     3   ar
     3     2     4    1
     4     4     5    1
     5     5     6    1
     6     6     7    1
     7     7     8    1
     8     8     9    1
     9     9    10    1
    10     5    10    1
    11     7    11   am
    12    11    12    2
    13    11    13    1
    14    13    14    1
    15    14    15    2
    16    15    16    1
    17    16    17    1
    18    13    17    2
    19    17    18    1
    20    18    19   ar
    21    19    20   ar
    22    20    21   ar
    23    21    22   ar
    24    18    22   ar
    25     4    23    1
    26     4    24    1
    27     5    25    1
    28     6    26    1
    29     6    27    1
    30     8    28    1
    31     8    29    1
    32     9    30    1
    33     9    31    1
    34    15    32    1
    35    19    33    1
    36    20    34    1
    37    21    35    1
@<TRIPOS>SUBSTRUCTURE
     1 UNL1        1 TEMP              0 ****  ****    0 ROOT


