HTS1710-04784863-01
 OpenBabel03232612363D

 35 35  0  0  0  0  0  0  0  0999 V2000
    6.4640  -16.0913  -27.1604 C   0  0  0  0  0  0  0  0  0  0  0  0
    5.3490  -15.4497  -28.0177 C   0  0  0  0  0  0  0  0  0  0  0  0
    4.9033  -14.2263  -27.3907 O   0  0  0  0  0  0  0  0  0  0  0  0
    3.7029  -13.6512  -27.7361 C   0  0  0  0  0  0  0  0  0  0  0  0
    2.9831  -13.0884  -26.9291 O   0  0  0  0  0  0  0  0  0  0  0  0
    3.3895  -13.7867  -29.2153 C   0  0  0  0  0  0  0  0  0  0  0  0
    4.1879  -13.1027  -29.9918 N   0  0  0  0  0  0  0  0  0  0  0  0
    4.1485  -13.0322  -31.3520 N   0  0  0  0  0  0  0  0  0  0  0  0
    4.3941  -11.8554  -32.0478 C   0  0  0  0  0  0  0  0  0  0  0  0
    4.4915  -11.8201  -33.4543 C   0  0  0  0  0  0  0  0  0  0  0  0
    4.7368  -10.6064  -34.1277 C   0  0  0  0  0  0  0  0  0  0  0  0
    4.8912   -9.4236  -33.3714 C   0  0  0  0  0  0  0  0  0  0  0  0
    4.7993   -9.4413  -31.9626 C   0  0  0  0  0  0  0  0  0  0  0  0
    4.5472  -10.6674  -31.3134 C   0  0  0  0  0  0  0  0  0  0  0  0
    4.9705   -8.1681  -31.1613 C   0  0  0  0  0  0  0  0  0  0  0  0
    3.9921   -7.7342  -30.5761 O   0  5  0  0  0  0  0  0  0  0  0  0
    6.0751   -7.6524  -31.1474 O   0  0  0  0  0  0  0  0  0  0  0  0
    4.8317  -10.5752  -35.6393 C   0  0  0  0  0  0  0  0  0  0  0  0
    4.6524   -9.5053  -36.1950 O   0  5  0  0  0  0  0  0  0  0  0  0
    5.0820  -11.6235  -36.2103 O   0  0  0  0  0  0  0  0  0  0  0  0
    2.2672  -14.6345  -29.8200 C   0  0  0  0  0  0  0  0  0  0  0  0
    2.1480  -15.8357  -29.6428 O   0  0  0  0  0  0  0  0  0  0  0  0
    1.2214  -13.9330  -30.6951 C   0  0  0  0  0  0  0  0  0  0  0  0
    1.2222  -14.5769  -32.3849 Cl  0  0  0  0  0  0  0  0  0  0  0  0
    6.7941  -16.9971  -27.6246 H   0  0  0  0  0  0  0  0  0  0  0  0
    6.0829  -16.3089  -26.1845 H   0  0  0  0  0  0  0  0  0  0  0  0
    7.2867  -15.4119  -27.0788 H   0  0  0  0  0  0  0  0  0  0  0  0
    4.5263  -16.1289  -28.0993 H   0  0  0  0  0  0  0  0  0  0  0  0
    5.7300  -15.2321  -28.9936 H   0  0  0  0  0  0  0  0  0  0  0  0
    3.9375  -13.8476  -31.8618 H   0  0  0  0  0  0  0  0  0  0  0  0
    4.3821  -12.6917  -33.9960 H   0  0  0  0  0  0  0  0  0  0  0  0
    5.0744   -8.5314  -33.8566 H   0  0  0  0  0  0  0  0  0  0  0  0
    4.4740  -10.6926  -30.2843 H   0  0  0  0  0  0  0  0  0  0  0  0
    1.4390  -12.8857  -30.7231 H   0  0  0  0  0  0  0  0  0  0  0  0
    0.2561  -14.1131  -30.2702 H   0  0  0  0  0  0  0  0  0  0  0  0
  1  2  1  0  0  0  0
  1 25  1  0  0  0  0
  1 26  1  0  0  0  0
  1 27  1  0  0  0  0
  2  3  1  0  0  0  0
  2 28  1  0  0  0  0
  2 29  1  0  0  0  0
  3  4  1  0  0  0  0
  4  5  2  0  0  0  0
  4  6  1  0  0  0  0
  6  7  2  0  0  0  0
  6 21  1  0  0  0  0
  7  8  1  0  0  0  0
  8  9  1  0  0  0  0
  8 30  1  0  0  0  0
  9 10  2  0  0  0  0
  9 14  1  0  0  0  0
 10 11  1  0  0  0  0
 10 31  1  0  0  0  0
 11 12  2  0  0  0  0
 11 18  1  0  0  0  0
 12 13  1  0  0  0  0
 12 32  1  0  0  0  0
 13 14  2  0  0  0  0
 13 15  1  0  0  0  0
 14 33  1  0  0  0  0
 15 16  1  0  0  0  0
 15 17  2  0  0  0  0
 18 19  1  0  0  0  0
 18 20  2  0  0  0  0
 21 22  2  0  0  0  0
 21 23  1  0  0  0  0
 23 24  1  0  0  0  0
 23 34  1  0  0  0  0
 23 35  1  0  0  0  0
M  CHG  2  16  -1  19  -1
M  END
$$$$
