HTS1710-01329420-01
 OpenBabel03232612353D

 47 49  0  0  1  0  0  0  0  0999 V2000
    4.4275   -7.1502  -31.2670 C   0  0  0  0  0  0  0  0  0  0  0  0
    5.0788   -8.1965  -31.8987 C   0  0  0  0  0  0  0  0  0  0  0  0
    4.0187   -9.7178  -30.2067 C   0  0  0  0  0  0  0  0  0  0  0  0
    3.4512   -8.5984  -29.6696 C   0  0  0  0  0  0  0  0  0  0  0  0
    3.5317   -7.3563  -30.2453 O   0  0  0  0  0  0  0  0  0  0  0  0
    4.7657   -9.6231  -31.5419 C   0  0  1  0  0  0  0  0  0  0  0  0
    4.6693   -5.7599  -31.6776 C   0  0  0  0  0  0  0  0  0  0  0  0
    5.9971   -8.0345  -32.9179 O   0  0  0  0  0  0  0  0  0  0  0  0
    5.6404   -5.6377  -32.7628 C   0  0  0  0  0  0  0  0  0  0  0  0
    3.9409  -11.0941  -29.5640 C   0  0  0  0  0  0  0  0  0  0  0  0
    6.2525   -6.7409  -33.3162 C   0  0  0  0  0  0  0  0  0  0  0  0
    3.9769  -10.2836  -32.6745 C   0  0  0  0  0  0  0  0  0  0  0  0
    0.2704  -13.5661  -34.4751 C   0  0  0  0  0  0  0  0  0  0  0  0
    2.7397   -8.6426  -28.4934 N   0  0  0  0  0  0  0  0  0  0  0  0
    4.1197   -4.7999  -31.1666 O   0  0  0  0  0  0  0  0  0  0  0  0
    3.3266  -11.3544  -28.5421 O   0  0  0  0  0  0  0  0  0  0  0  0
    0.6577  -13.3275  -33.3447 O   0  0  0  0  0  0  0  0  0  0  0  0
    2.5887  -10.0760  -32.7853 C   0  0  0  0  0  0  0  0  0  0  0  0
    4.6202  -11.1246  -33.6029 C   0  0  0  0  0  0  0  0  0  0  0  0
    1.8235  -12.1726  -35.7590 O   0  0  0  0  0  0  0  0  0  0  0  0
    0.4487  -12.5888  -35.6437 C   0  0  0  0  0  0  0  0  0  0  0  0
   -0.3597  -14.7713  -34.7113 N   0  0  0  0  0  0  0  0  0  0  0  0
    2.5035  -11.5337  -34.7383 C   0  0  0  0  0  0  0  0  0  0  0  0
    4.6489  -12.0358  -30.2637 O   0  0  0  0  0  0  0  0  0  0  0  0
    3.8884  -11.7406  -34.6298 C   0  0  0  0  0  0  0  0  0  0  0  0
    1.8533  -10.6947  -33.8089 C   0  0  0  0  0  0  0  0  0  0  0  0
    7.2490   -6.5687  -34.4351 C   0  0  0  0  0  0  0  0  0  0  0  0
    6.6377   -6.7510  -35.7094 O   0  0  0  0  0  0  0  0  0  0  0  0
    4.3495  -13.4318  -30.0826 C   0  0  0  0  0  0  0  0  0  0  0  0
    5.6879  -10.1515  -31.4183 H   0  0  0  0  0  0  0  0  0  0  0  0
    5.8739   -4.6997  -33.1244 H   0  0  0  0  0  0  0  0  0  0  0  0
    2.2894   -7.8333  -28.1598 H   0  0  0  0  0  0  0  0  0  0  0  0
    2.6808   -9.4838  -27.9851 H   0  0  0  0  0  0  0  0  0  0  0  0
    2.1074   -9.4637  -32.1081 H   0  0  0  0  0  0  0  0  0  0  0  0
    5.6363  -11.2889  -33.5277 H   0  0  0  0  0  0  0  0  0  0  0  0
   -0.1653  -11.7283  -35.4779 H   0  0  0  0  0  0  0  0  0  0  0  0
    0.1631  -13.0820  -36.5492 H   0  0  0  0  0  0  0  0  0  0  0  0
   -0.4848  -15.4137  -33.9759 H   0  0  0  0  0  0  0  0  0  0  0  0
   -0.6839  -14.9885  -35.6152 H   0  0  0  0  0  0  0  0  0  0  0  0
    4.3708  -12.3494  -35.3092 H   0  0  0  0  0  0  0  0  0  0  0  0
    0.8362  -10.5356  -33.8815 H   0  0  0  0  0  0  0  0  0  0  0  0
    8.0314   -7.2891  -34.3182 H   0  0  0  0  0  0  0  0  0  0  0  0
    7.6388   -5.5733  -34.3882 H   0  0  0  0  0  0  0  0  0  0  0  0
    5.8243   -6.2247  -35.7560 H   0  0  0  0  0  0  0  0  0  0  0  0
    4.9946  -14.0184  -30.7027 H   0  0  0  0  0  0  0  0  0  0  0  0
    3.3306  -13.6160  -30.3528 H   0  0  0  0  0  0  0  0  0  0  0  0
    4.5005  -13.6989  -29.0575 H   0  0  0  0  0  0  0  0  0  0  0  0
  1  2  2  0  0  0  0
  1  5  1  0  0  0  0
  1  7  1  0  0  0  0
  2  6  1  0  0  0  0
  2  8  1  0  0  0  0
  3  4  2  0  0  0  0
  3 10  1  0  0  0  0
  3  6  1  0  0  0  0
  4  5  1  0  0  0  0
  4 14  1  0  0  0  0
  6 12  1  0  0  0  0
  6 30  1  1  0  0  0
  7  9  1  0  0  0  0
  7 15  2  0  0  0  0
  8 11  1  0  0  0  0
  9 11  2  0  0  0  0
  9 31  1  0  0  0  0
 10 16  2  0  0  0  0
 10 24  1  0  0  0  0
 11 27  1  0  0  0  0
 12 18  2  0  0  0  0
 12 19  1  0  0  0  0
 13 21  1  0  0  0  0
 13 17  2  0  0  0  0
 13 22  1  0  0  0  0
 14 32  1  0  0  0  0
 14 33  1  0  0  0  0
 18 26  1  0  0  0  0
 18 34  1  0  0  0  0
 19 25  2  0  0  0  0
 19 35  1  0  0  0  0
 20 23  1  0  0  0  0
 20 21  1  0  0  0  0
 21 36  1  0  0  0  0
 21 37  1  0  0  0  0
 22 38  1  0  0  0  0
 22 39  1  0  0  0  0
 23 25  1  0  0  0  0
 23 26  2  0  0  0  0
 24 29  1  0  0  0  0
 25 40  1  0  0  0  0
 26 41  1  0  0  0  0
 27 28  1  0  0  0  0
 27 42  1  0  0  0  0
 27 43  1  0  0  0  0
 28 44  1  0  0  0  0
 29 45  1  0  0  0  0
 29 46  1  0  0  0  0
 29 47  1  0  0  0  0
M  END
$$$$
