##########                                Name: HTS1710-01583876-01
##########                    Molecular_Weight:              337.31
##########                DOCK_Rotatable_Bonds:                   7
##########                       Formal_Charge:                  -2
##########                     HBond_Acceptors:                   9
##########                        HBond_Donors:                   1
##########                         Heavy_Atoms:                  23
##########                          Grid_Score:          -75.492630
##########                     Grid_vdw_energy:          -39.121902
##########                      Grid_es_energy:          -36.370724
##########           Internal_energy_repulsive:            6.488818

@<TRIPOS>MOLECULE
HTS1710-01583876-01
 34 35 1 0 0
SMALL
USER_CHARGES


@<TRIPOS>ATOM
      1 O           5.4997   -8.3261  -34.1287 O.co2   1  UNL1       -0.5498
      2 C           5.3646   -9.4424  -33.6565 C.2     1  UNL1        0.0431
      3 O           5.4500   -9.7246  -32.4746 O.co2   1  UNL1       -0.5498
      4 C           5.1107  -10.5969  -34.6342 C.3     1  UNL1        0.0038
      5 C           3.7370  -10.4911  -35.3496 C.3     1  UNL1        0.0500
      6 S           3.2341  -12.1642  -35.9640 S.3     1  UNL1       -0.1432
      7 C           1.3865  -12.0604  -35.9226 C.3     1  UNL1        0.0574
      8 C           0.8344  -11.5445  -34.5837 C.2     1  UNL1        0.1730
      9 O           0.1751  -10.5199  -34.5133 O.2     1  UNL1       -0.2912
     10 C           1.1496  -12.3465  -33.3431 C.ar    1  UNL1        0.0202
     11 C           0.6852  -13.6740  -33.2263 C.ar    1  UNL1       -0.0477
     12 C           0.9417  -14.4233  -32.0663 C.ar    1  UNL1       -0.0174
     13 C           1.6767  -13.8565  -31.0147 C.ar    1  UNL1        0.1423
     14 O           1.8977  -14.5847  -29.8646 O.3     1  UNL1       -0.4809
     15 C           2.9835  -14.2125  -28.9925 C.3     1  UNL1        0.1656
     16 C           3.1124  -12.6873  -28.9231 C.2     1  UNL1        0.2549
     17 O           3.4658  -12.1060  -27.9118 O.2     1  UNL1       -0.2717
     18 N           2.8074  -11.9438  -30.0491 N.am    1  UNL1       -0.2798
     19 C           2.1431  -12.5313  -31.1148 C.ar    1  UNL1        0.0763
     20 C           1.8778  -11.7819  -32.2730 C.ar    1  UNL1       -0.0264
     21 C           3.7448   -9.4838  -36.5120 C.2     1  UNL1        0.0550
     22 O           2.6689   -9.0803  -36.9202 O.co2   1  UNL1       -0.5487
     23 O           4.8338   -9.1306  -36.9306 O.co2   1  UNL1       -0.5487
     24 H           5.1426  -11.5179  -34.0906 H       1  UNL1        0.0339
     25 H           5.8694  -10.5527  -35.3874 H       1  UNL1        0.0339
     26 H           3.0297  -10.1289  -34.6330 H       1  UNL1        0.0476
     27 H           0.9877  -13.0373  -36.1002 H       1  UNL1        0.0458
     28 H           1.0922  -11.3606  -36.6767 H       1  UNL1        0.0458
     29 H           0.1517  -14.0986  -34.0010 H       1  UNL1        0.0626
     30 H           0.5896  -15.3902  -31.9877 H       1  UNL1        0.0655
     31 H           3.8957  -14.6268  -29.3682 H       1  UNL1        0.0795
     32 H           2.7858  -14.5897  -28.0109 H       1  UNL1        0.0795
     33 H           3.0630  -10.9942  -30.0938 H       1  UNL1        0.1550
     34 H           2.2180  -10.8101  -32.3425 H       1  UNL1        0.0644
@<TRIPOS>BOND
     1     1     2   ar
     2     2     3   ar
     3     2     4    1
     4     4     5    1
     5     5     6    1
     6     6     7    1
     7     7     8    1
     8     8     9    2
     9     8    10    1
    10    10    11   ar
    11    11    12   ar
    12    12    13   ar
    13    13    14    1
    14    14    15    1
    15    15    16    1
    16    16    17    2
    17    16    18   am
    18    18    19    1
    19    13    19   ar
    20    19    20   ar
    21    10    20   ar
    22     5    21    1
    23    21    22   ar
    24    21    23   ar
    25     4    24    1
    26     4    25    1
    27     5    26    1
    28     7    27    1
    29     7    28    1
    30    11    29    1
    31    12    30    1
    32    15    31    1
    33    15    32    1
    34    18    33    1
    35    20    34    1
@<TRIPOS>SUBSTRUCTURE
     1 UNL1        1 TEMP              0 ****  ****    0 ROOT


