##########                                Name: HTS1710-02000919-01
##########                    Molecular_Weight:             285.299
##########                DOCK_Rotatable_Bonds:                   7
##########                       Formal_Charge:                  -2
##########                     HBond_Acceptors:                   5
##########                        HBond_Donors:                   0
##########                         Heavy_Atoms:                  21
##########                          Grid_Score:          -74.710312
##########                     Grid_vdw_energy:          -35.117062
##########                      Grid_es_energy:          -39.593250
##########           Internal_energy_repulsive:            5.460418

@<TRIPOS>MOLECULE
HTS1710-02000919-01
 36 37 1 0 0
SMALL
USER_CHARGES


@<TRIPOS>ATOM
      1 N           2.7221  -11.3190  -32.5972 N.ar    1  UNL1       -0.3434
      2 C           2.6067  -12.4359  -31.7487 C.ar    1  UNL1        0.0493
      3 C           1.7131  -13.3069  -32.3279 C.ar    1  UNL1       -0.0360
      4 C           1.8815  -11.5292  -33.6974 C.ar    1  UNL1        0.0196
      5 C           1.2622  -12.7378  -33.5334 C.ar    1  UNL1       -0.0404
      6 C           3.6408  -10.1710  -32.4753 C.3     1  UNL1        0.0286
      7 C           3.2114   -9.1568  -31.3815 C.3     1  UNL1        0.0048
      8 C           4.2024   -9.0313  -30.2122 C.2     1  UNL1        0.0434
      9 C           3.2967   -9.7205  -36.6754 C.2     1  UNL1        0.0421
     10 C           3.2254  -12.7759  -30.4387 C.ar    1  UNL1       -0.0015
     11 C           1.6854  -10.6431  -34.9066 C.3     1  UNL1       -0.0072
     12 O           5.3939   -9.1438  -30.4463 O.co2   1  UNL1       -0.5498
     13 O           2.6447   -9.1418  -37.5265 O.co2   1  UNL1       -0.5498
     14 C           2.6760  -10.9754  -36.0483 C.3     1  UNL1       -0.0079
     15 O           3.7204   -8.8254  -29.1119 O.co2   1  UNL1       -0.5498
     16 O           4.4146   -9.4067  -36.3042 O.co2   1  UNL1       -0.5498
     17 C           2.8565  -12.1057  -29.2485 C.ar    1  UNL1       -0.0526
     18 C           4.2060  -13.7938  -30.3370 C.ar    1  UNL1       -0.0526
     19 C           4.7957  -14.1167  -29.1043 C.ar    1  UNL1       -0.0611
     20 C           3.4439  -12.4327  -28.0155 C.ar    1  UNL1       -0.0611
     21 C           4.4161  -13.4361  -27.9412 C.ar    1  UNL1       -0.0617
     22 H           1.4234  -14.2201  -31.9445 H       1  UNL1        0.0639
     23 H           0.5805  -13.1602  -34.1829 H       1  UNL1        0.0635
     24 H           3.6758   -9.6621  -33.4159 H       1  UNL1        0.0495
     25 H           4.5971  -10.5582  -32.1917 H       1  UNL1        0.0495
     26 H           2.2663   -9.4681  -30.9881 H       1  UNL1        0.0342
     27 H           3.1695   -8.1969  -31.8525 H       1  UNL1        0.0342
     28 H           1.8288   -9.6243  -34.6129 H       1  UNL1        0.0331
     29 H           0.6948  -10.8091  -35.2755 H       1  UNL1        0.0331
     30 H           3.4614  -11.5856  -35.6537 H       1  UNL1        0.0328
     31 H           2.1284  -11.4832  -36.8146 H       1  UNL1        0.0328
     32 H           2.1418  -11.3622  -29.2872 H       1  UNL1        0.0624
     33 H           4.4922  -14.3075  -31.1852 H       1  UNL1        0.0624
     34 H           5.5115  -14.8585  -29.0554 H       1  UNL1        0.0618
     35 H           3.1573  -11.9307  -27.1606 H       1  UNL1        0.0618
     36 H           4.8503  -13.6729  -27.0354 H       1  UNL1        0.0618
@<TRIPOS>BOND
     1     1     2   ar
     2     1     4   ar
     3     1     6    1
     4     2     3   ar
     5     2    10    1
     6     3     5   ar
     7     4     5   ar
     8     4    11    1
     9     6     7    1
    10     7     8    1
    11     8    12   ar
    12     8    15   ar
    13     9    13   ar
    14     9    14    1
    15     9    16   ar
    16    10    17   ar
    17    10    18   ar
    18    11    14    1
    19    17    20   ar
    20    18    19   ar
    21    19    21   ar
    22    20    21   ar
    23     3    22    1
    24     5    23    1
    25     6    24    1
    26     6    25    1
    27     7    26    1
    28     7    27    1
    29    11    28    1
    30    11    29    1
    31    14    30    1
    32    14    31    1
    33    17    32    1
    34    18    33    1
    35    19    34    1
    36    20    35    1
    37    21    36    1
@<TRIPOS>SUBSTRUCTURE
     1 UNL1        1 TEMP              0 ****  ****    0 ROOT


