##########                                Name: HTS1710-01152660-01
##########                    Molecular_Weight:             402.357
##########                DOCK_Rotatable_Bonds:                  10
##########                       Formal_Charge:                  -2
##########                     HBond_Acceptors:                   9
##########                        HBond_Donors:                   4
##########                         Heavy_Atoms:                  29
##########                          Grid_Score:          -78.747025
##########                     Grid_vdw_energy:          -42.879601
##########                      Grid_es_energy:          -35.867424
##########           Internal_energy_repulsive:           12.225753

@<TRIPOS>MOLECULE
HTS1710-01152660-01
 47 49 1 0 0
SMALL
USER_CHARGES


@<TRIPOS>ATOM
      1 C           3.4384   -7.6475  -31.6148 C.2     1  UNL1       -0.0603
      2 C           3.8356   -9.4628  -33.3437 C.2     1  UNL1       -0.0603
      3 C           2.0783   -7.4988  -31.3860 C.2     1  UNL1        0.1535
      4 C           4.8280  -10.1335  -34.0475 C.2     1  UNL1        0.1535
      5 C           4.0249   -9.0246  -31.8964 C.3     1  UNL1        0.0152
      6 C           4.6303  -10.5573  -35.4432 C.2     1  UNL1        0.2184
      7 C           1.4844   -6.1828  -31.0987 C.2     1  UNL1        0.2184
      8 O           2.6064   -9.1416  -33.8877 O.co2   1  UNL1       -0.7814
      9 O           4.3295   -6.5921  -31.5949 O.co2   1  UNL1       -0.7814
     10 C           2.4724   -5.1060  -31.0939 C.2     1  UNL1       -0.0198
     11 C           3.3149  -10.1919  -35.9634 C.2     1  UNL1       -0.0198
     12 C           3.8075   -5.3433  -31.3377 C.2     1  UNL1       -0.0884
     13 C           2.3876   -9.5231  -35.1945 C.2     1  UNL1       -0.0884
     14 C           3.5881  -10.1078  -30.9012 C.ar    1  UNL1       -0.0374
     15 O           0.2978   -5.9939  -30.8873 O.2     1  UNL1       -0.2841
     16 O           5.4622  -11.1520  -36.1076 O.2     1  UNL1       -0.2841
     17 O           1.1850   -8.5144  -31.4078 O.2     1  UNL1       -0.5038
     18 O           6.0362  -10.4734  -33.5426 O.2     1  UNL1       -0.5038
     19 C           3.4842   -9.7796  -29.5360 C.ar    1  UNL1       -0.0543
     20 C           3.2828  -11.4237  -31.3109 C.ar    1  UNL1       -0.0543
     21 C           2.7710  -12.0509  -29.0118 C.ar    1  UNL1        0.1201
     22 C           2.8783  -12.3837  -30.3718 C.ar    1  UNL1       -0.0197
     23 C           3.0794  -10.7396  -28.5945 C.ar    1  UNL1       -0.0197
     24 C           4.7906   -4.2025  -31.3220 C.3     1  UNL1        0.0566
     25 C           1.0458   -9.1700  -35.7812 C.3     1  UNL1        0.0566
     26 O           2.3625  -13.0310  -28.1284 O.3     1  UNL1       -0.4951
     27 O           0.5221   -7.9875  -35.1842 O.3     1  UNL1       -0.3915
     28 O           6.0734   -4.6447  -30.8919 O.3     1  UNL1       -0.3915
     29 C           2.3283  -14.4277  -28.4689 C.3     1  UNL1        0.0788
     30 H           5.0771   -8.9064  -31.7425 H       1  UNL1        0.0425
     31 H           2.1613   -4.1408  -30.9026 H       1  UNL1        0.0649
     32 H           3.0733  -10.4420  -36.9351 H       1  UNL1        0.0649
     33 H           0.2787   -8.3449  -31.2405 H       1  UNL1        0.2923
     34 H           6.6469  -10.9501  -34.0697 H       1  UNL1        0.2923
     35 H           3.7082   -8.8219  -29.2235 H       1  UNL1        0.0622
     36 H           3.3577  -11.6810  -32.3075 H       1  UNL1        0.0622
     37 H           2.6575  -13.3426  -30.6829 H       1  UNL1        0.0654
     38 H           3.0076  -10.4854  -27.5969 H       1  UNL1        0.0654
     39 H           4.4383   -3.4454  -30.6529 H       1  UNL1        0.0596
     40 H           4.8779   -3.8122  -32.3144 H       1  UNL1        0.0596
     41 H           0.3659   -9.9785  -35.6109 H       1  UNL1        0.0596
     42 H           1.1675   -8.9969  -36.8302 H       1  UNL1        0.0596
     43 H          -0.3479   -7.7910  -35.5653 H       1  UNL1        0.2098
     44 H           6.6935   -3.8989  -30.9045 H       1  UNL1        0.2098
     45 H           1.9796  -14.9912  -27.6288 H       1  UNL1        0.0660
     46 H           3.3121  -14.7543  -28.7340 H       1  UNL1        0.0660
     47 H           1.6676  -14.5767  -29.2973 H       1  UNL1        0.0660
@<TRIPOS>BOND
     1     2     5    1
     2     1     3    2
     3     2     4    2
     4     1     5    1
     5     4     6    1
     6     3     7    1
     7     2     8    1
     8     1     9    1
     9    10    12    2
    10    11    13    2
    11     9    12    1
    12     8    13    1
    13     5    14    1
    14     7    15    2
    15     6    16    2
    16     3    17    1
    17     4    18    1
    18    14    19   ar
    19    14    20   ar
    20    21    22   ar
    21    20    22   ar
    22    19    23   ar
    23    12    24    1
    24    13    25    1
    25    21    26    1
    26    25    27    1
    27    24    28    1
    28    26    29    1
    29     7    10    1
    30    21    23   ar
    31     6    11    1
    32     5    30    1
    33    10    31    1
    34    11    32    1
    35    17    33    1
    36    18    34    1
    37    19    35    1
    38    20    36    1
    39    22    37    1
    40    23    38    1
    41    24    39    1
    42    24    40    1
    43    25    41    1
    44    25    42    1
    45    27    43    1
    46    28    44    1
    47    29    45    1
    48    29    46    1
    49    29    47    1
@<TRIPOS>SUBSTRUCTURE
     1 UNL1        1 TEMP              0 ****  ****    0 ROOT


