HTS1710-01240497-01
 OpenBabel03232612353D

 40 41  0  0  1  0  0  0  0  0999 V2000
    1.6072   -9.3210  -32.6094 C   0  0  0  0  0  0  0  0  0  0  0  0
    1.9413   -9.9111  -33.9646 C   0  0  0  0  0  0  0  0  0  0  0  0
    2.0097  -12.8899  -32.3476 C   0  0  0  0  0  0  0  0  0  0  0  0
    2.6445   -9.0674  -31.7211 N   0  0  0  0  0  0  0  0  0  0  0  0
    2.8242  -11.9429  -32.9649 N   0  0  0  0  0  0  0  0  0  0  0  0
    2.5373  -11.1960  -34.1091 C   0  0  0  0  0  0  0  0  0  0  0  0
    2.4309   -8.4968  -30.3824 C   0  0  2  0  0  0  0  0  0  0  0  0
    2.2727   -6.9521  -30.4809 C   0  0  0  0  0  0  0  0  0  0  0  0
    3.5986   -8.9276  -29.4782 C   0  0  0  0  0  0  0  0  0  0  0  0
    3.3186   -6.3103  -31.4019 C   0  0  0  0  0  0  0  0  0  0  0  0
    0.4648   -9.0332  -32.2885 O   0  0  0  0  0  0  0  0  0  0  0  0
    0.9258  -13.1851  -32.8224 O   0  0  0  0  0  0  0  0  0  0  0  0
    2.5264  -13.5827  -31.1092 C   0  0  0  0  0  0  0  0  0  0  0  0
    4.6395   -9.2646  -30.0175 O   0  5  0  0  0  0  0  0  0  0  0  0
    4.4128   -6.8428  -31.4663 O   0  5  0  0  0  0  0  0  0  0  0  0
    3.3977   -8.9228  -28.2762 O   0  0  0  0  0  0  0  0  0  0  0  0
    2.9744   -5.3236  -32.0295 O   0  0  0  0  0  0  0  0  0  0  0  0
    1.6618   -9.1460  -35.1183 C   0  0  0  0  0  0  0  0  0  0  0  0
    2.7789  -11.6956  -35.4119 C   0  0  0  0  0  0  0  0  0  0  0  0
    3.9046  -13.5590  -30.8069 C   0  0  0  0  0  0  0  0  0  0  0  0
    1.6506  -14.2625  -30.2332 C   0  0  0  0  0  0  0  0  0  0  0  0
    1.9380   -9.6458  -36.3973 C   0  0  0  0  0  0  0  0  0  0  0  0
    2.4869  -10.9234  -36.5440 C   0  0  0  0  0  0  0  0  0  0  0  0
    2.1445  -14.9017  -29.0846 C   0  0  0  0  0  0  0  0  0  0  0  0
    4.3963  -14.2012  -29.6585 C   0  0  0  0  0  0  0  0  0  0  0  0
    3.5168  -14.8722  -28.7970 C   0  0  0  0  0  0  0  0  0  0  0  0
    3.5645   -9.2793  -32.0002 H   0  0  0  0  0  0  0  0  0  0  0  0
    3.7011  -11.7824  -32.5472 H   0  0  0  0  0  0  0  0  0  0  0  0
    1.5248   -8.8633  -29.9469 H   0  0  0  0  0  0  0  0  0  0  0  0
    2.3757   -6.5337  -29.5014 H   0  0  0  0  0  0  0  0  0  0  0  0
    1.3075   -6.7506  -30.8963 H   0  0  0  0  0  0  0  0  0  0  0  0
    1.2484   -8.2058  -35.0176 H   0  0  0  0  0  0  0  0  0  0  0  0
    3.1754  -12.6412  -35.5291 H   0  0  0  0  0  0  0  0  0  0  0  0
    4.5573  -13.0651  -31.4355 H   0  0  0  0  0  0  0  0  0  0  0  0
    0.6397  -14.2895  -30.4391 H   0  0  0  0  0  0  0  0  0  0  0  0
    1.7365   -9.0715  -37.2307 H   0  0  0  0  0  0  0  0  0  0  0  0
    2.6772  -11.2978  -37.4867 H   0  0  0  0  0  0  0  0  0  0  0  0
    1.4961  -15.3945  -28.4507 H   0  0  0  0  0  0  0  0  0  0  0  0
    5.4065  -14.1791  -29.4486 H   0  0  0  0  0  0  0  0  0  0  0  0
    3.8784  -15.3434  -27.9530 H   0  0  0  0  0  0  0  0  0  0  0  0
  1  2  1  0  0  0  0
  1  4  1  0  0  0  0
  1 11  2  0  0  0  0
  2  6  2  0  0  0  0
  2 18  1  0  0  0  0
  3  5  1  0  0  0  0
  3 12  2  0  0  0  0
  3 13  1  0  0  0  0
  4  7  1  0  0  0  0
  4 27  1  0  0  0  0
  5  6  1  0  0  0  0
  5 28  1  0  0  0  0
  6 19  1  0  0  0  0
  7  8  1  0  0  0  0
  7  9  1  0  0  0  0
  7 29  1  1  0  0  0
  8 10  1  0  0  0  0
  8 30  1  0  0  0  0
  8 31  1  0  0  0  0
  9 14  1  0  0  0  0
  9 16  2  0  0  0  0
 10 15  1  0  0  0  0
 10 17  2  0  0  0  0
 13 20  2  0  0  0  0
 13 21  1  0  0  0  0
 18 22  2  0  0  0  0
 18 32  1  0  0  0  0
 19 23  2  0  0  0  0
 19 33  1  0  0  0  0
 20 25  1  0  0  0  0
 20 34  1  0  0  0  0
 21 24  2  0  0  0  0
 21 35  1  0  0  0  0
 22 23  1  0  0  0  0
 22 36  1  0  0  0  0
 23 37  1  0  0  0  0
 24 26  1  0  0  0  0
 24 38  1  0  0  0  0
 25 26  2  0  0  0  0
 25 39  1  0  0  0  0
 26 40  1  0  0  0  0
M  CHG  2  14  -1  15  -1
M  END
$$$$
