HTS1710-01226888-01
 OpenBabel03232612343D

 36 37  0  0  0  0  0  0  0  0999 V2000
   -1.2567   -4.1607  -37.4666 S   0  0  0  0  0  0  0  0  0  0  0  0
    3.4043   -9.4651  -29.8072 S   0  0  0  0  0  0  0  0  0  0  0  0
   -1.5469   -4.7322  -35.7768 C   0  0  0  0  0  0  0  0  0  0  0  0
    2.4583   -9.9803  -31.2567 C   0  0  0  0  0  0  0  0  0  0  0  0
    0.1900   -8.4374  -33.9490 C   0  0  0  0  0  0  0  0  0  0  0  0
    0.9727   -9.4390  -33.1301 C   0  0  0  0  0  0  0  0  0  0  0  0
   -2.6945   -4.5019  -33.6275 C   0  0  0  0  0  0  0  0  0  0  0  0
   -3.7057   -3.8022  -32.7459 C   0  0  0  0  0  0  0  0  0  0  0  0
   -0.2520   -7.2659  -33.3360 N   0  0  0  0  0  0  0  0  0  0  0  0
   -0.9822   -6.2364  -33.9308 C   0  0  0  0  0  0  0  0  0  0  0  0
   -0.7824   -5.7927  -35.2562 C   0  0  0  0  0  0  0  0  0  0  0  0
    1.7374   -9.0352  -32.0135 C   0  0  0  0  0  0  0  0  0  0  0  0
   -2.4989   -4.0911  -34.9621 C   0  0  0  0  0  0  0  0  0  0  0  0
    2.4081  -11.3396  -31.6102 C   0  0  0  0  0  0  0  0  0  0  0  0
   -2.6235   -4.0188  -37.9778 O   0  0  0  0  0  1  0  0  0  0  0  0
    4.7769   -9.7783  -30.2146 O   0  0  0  0  0  1  0  0  0  0  0  0
    2.8727  -10.3030  -28.7278 O   0  0  0  0  0  0  0  0  0  0  0  0
    3.1075   -8.0330  -29.6988 O   0  0  0  0  0  0  0  0  0  0  0  0
   -0.5362   -2.8974  -37.2812 O   0  0  0  0  0  0  0  0  0  0  0  0
   -0.4789   -5.2454  -38.0752 O   0  0  0  0  0  0  0  0  0  0  0  0
   -1.9243   -5.5722  -33.1257 C   0  0  0  0  0  0  0  0  0  0  0  0
    1.6532  -11.7513  -32.7186 C   0  0  0  0  0  0  0  0  0  0  0  0
    0.9408  -10.8058  -33.4751 C   0  0  0  0  0  0  0  0  0  0  0  0
   -4.3217   -2.8667  -33.2266 O   0  5  0  0  0  0  0  0  0  0  0  0
   -0.0925   -8.6711  -35.1119 O   0  0  0  0  0  0  0  0  0  0  0  0
   -3.8421   -4.2161  -31.6064 O   0  0  0  0  0  0  0  0  0  0  0  0
    1.6036  -13.0827  -33.0592 N   0  0  0  0  0  0  0  0  0  0  0  0
   -0.0254   -7.1534  -32.3846 H   0  0  0  0  0  0  0  0  0  0  0  0
   -0.0705   -6.2495  -35.8476 H   0  0  0  0  0  0  0  0  0  0  0  0
    1.7685   -8.0381  -31.7492 H   0  0  0  0  0  0  0  0  0  0  0  0
   -3.0588   -3.3133  -35.3450 H   0  0  0  0  0  0  0  0  0  0  0  0
    2.9276  -12.0361  -31.0534 H   0  0  0  0  0  0  0  0  0  0  0  0
   -2.0551   -5.8737  -32.1475 H   0  0  0  0  0  0  0  0  0  0  0  0
    0.3890  -11.1145  -34.2908 H   0  0  0  0  0  0  0  0  0  0  0  0
    2.1028  -13.7453  -32.5291 H   0  0  0  0  0  0  0  0  0  0  0  0
    1.0689  -13.3733  -33.8331 H   0  0  0  0  0  0  0  0  0  0  0  0
  1  3  1  0  0  0  0
  1 15  1  0  0  0  0
  1 19  2  0  0  0  0
  1 20  2  0  0  0  0
  2  4  1  0  0  0  0
  2 16  1  0  0  0  0
  2 17  2  0  0  0  0
  2 18  2  0  0  0  0
  3 11  2  0  0  0  0
  3 13  1  0  0  0  0
  4 12  2  0  0  0  0
  4 14  1  0  0  0  0
  5  9  1  0  0  0  0
  5  6  1  0  0  0  0
  5 25  2  0  0  0  0
  6 12  1  0  0  0  0
  6 23  2  0  0  0  0
  7 13  2  0  0  0  0
  7  8  1  0  0  0  0
  7 21  1  0  0  0  0
  8 24  1  0  0  0  0
  8 26  2  0  0  0  0
  9 10  1  0  0  0  0
  9 28  1  0  0  0  0
 10 11  1  0  0  0  0
 10 21  2  0  0  0  0
 11 29  1  0  0  0  0
 12 30  1  0  0  0  0
 13 31  1  0  0  0  0
 14 22  2  0  0  0  0
 14 32  1  0  0  0  0
 21 33  1  0  0  0  0
 22 23  1  0  0  0  0
 22 27  1  0  0  0  0
 23 34  1  0  0  0  0
 27 35  1  0  0  0  0
 27 36  1  0  0  0  0
M  CHG  1  24  -1
M  END
$$$$
