##########                                Name: HTS1710-00859616-01
##########                    Molecular_Weight:             367.358
##########                DOCK_Rotatable_Bonds:                   5
##########                       Formal_Charge:                  -2
##########                     HBond_Acceptors:                   7
##########                        HBond_Donors:                   0
##########                         Heavy_Atoms:                  27
##########                          Grid_Score:          -80.230713
##########                     Grid_vdw_energy:          -43.292583
##########                      Grid_es_energy:          -36.938133
##########           Internal_energy_repulsive:           13.453156

@<TRIPOS>MOLECULE
HTS1710-00859616-01
 44 46 1 0 0
SMALL
USER_CHARGES


@<TRIPOS>ATOM
      1 C           3.4373  -12.5560  -30.3747 C.ar    1  UNL1        0.0300
      2 C           5.2416   -9.2514  -32.6196 C.ar    1  UNL1        0.0300
      3 C           4.4279  -13.6021  -30.7359 C.ar    1  UNL1        0.3395
      4 C           5.5832   -9.0414  -34.0483 C.ar    1  UNL1        0.3395
      5 C           3.2431  -12.1190  -29.0709 C.ar    1  UNL1       -0.0952
      6 C           5.4207   -8.2741  -31.6480 C.ar    1  UNL1       -0.0952
      7 C           5.9741   -7.0149  -32.0717 C.ar    1  UNL1       -0.0310
      8 C           4.0541  -12.7177  -28.0439 C.ar    1  UNL1       -0.0310
      9 O           5.1426  -14.1014  -29.6901 O.2     1  UNL1       -0.4273
     10 O           6.0992   -7.8166  -34.3415 O.2     1  UNL1       -0.4273
     11 C           4.6842  -10.6163  -32.2383 C.3     1  UNL1       -0.0143
     12 C           2.6042  -11.9492  -31.4956 C.3     1  UNL1       -0.0143
     13 C           4.9730  -13.6832  -28.4009 C.ar    1  UNL1        0.1055
     14 C           6.2897   -6.8420  -33.4040 C.ar    1  UNL1        0.1055
     15 C           3.1512  -10.5758  -31.9806 C.3     1  UNL1       -0.0061
     16 O           4.6095  -13.9970  -31.8744 O.2     1  UNL1       -0.2449
     17 O           5.4241   -9.8874  -34.9101 O.2     1  UNL1       -0.2449
     18 N           0.7558   -8.5868  -34.2014 N.ar    1  UNL1       -0.2630
     19 C           2.3979  -10.0809  -33.2177 C.ar    1  UNL1       -0.0256
     20 O           2.3457  -11.1704  -28.7245 O.co2   1  UNL1       -0.8733
     21 O           5.1142   -8.4438  -30.3439 O.co2   1  UNL1       -0.8733
     22 C           1.4502   -9.0390  -33.1360 C.ar    1  UNL1        0.0310
     23 C           5.8394  -14.3361  -27.3553 C.3     1  UNL1       -0.0063
     24 C           6.8798   -5.5423  -33.8854 C.3     1  UNL1       -0.0063
     25 C           0.9816   -9.1610  -35.3992 C.ar    1  UNL1        0.0276
     26 C           2.6204  -10.6771  -34.4733 C.ar    1  UNL1       -0.0554
     27 C           1.9008  -10.2074  -35.5821 C.ar    1  UNL1       -0.0433
     28 H           6.1322   -6.2550  -31.3915 H       1  UNL1        0.0645
     29 H           3.9503  -12.4302  -27.0582 H       1  UNL1        0.0645
     30 H           5.1741  -10.9518  -31.3481 H       1  UNL1        0.0321
     31 H           4.8615  -11.2828  -33.0564 H       1  UNL1        0.0321
     32 H           1.6036  -11.8127  -31.1418 H       1  UNL1        0.0321
     33 H           2.6443  -12.6225  -32.3262 H       1  UNL1        0.0321
     34 H           2.9814   -9.8760  -31.1891 H       1  UNL1        0.0356
     35 H           1.2798   -8.6014  -32.2171 H       1  UNL1        0.0832
     36 H           5.6110  -13.9237  -26.3947 H       1  UNL1        0.0308
     37 H           6.8695  -14.1585  -27.5840 H       1  UNL1        0.0308
     38 H           5.6529  -15.3896  -27.3446 H       1  UNL1        0.0308
     39 H           6.9775   -4.8677  -33.0605 H       1  UNL1        0.0308
     40 H           6.2375   -5.1111  -34.6246 H       1  UNL1        0.0308
     41 H           7.8435   -5.7249  -34.3130 H       1  UNL1        0.0308
     42 H           0.4561   -8.8170  -36.2182 H       1  UNL1        0.0829
     43 H           3.3008  -11.4462  -34.5761 H       1  UNL1        0.0621
     44 H           2.0443  -10.6232  -36.5157 H       1  UNL1        0.0633
@<TRIPOS>BOND
     1     2    11    1
     2     1     3   ar
     3     2     4   ar
     4     1     5   ar
     5     2     6   ar
     6     6     7   ar
     7     5     8   ar
     8     3     9   ar
     9     4    10   ar
    10    11    15    1
    11     1    12    1
    12     8    13   ar
    13     7    14   ar
    14    12    15    1
    15     3    16    2
    16     4    17    2
    17    18    22   ar
    18    15    19    1
    19     5    20    1
    20     6    21    1
    21    19    22   ar
    22    13    23    1
    23    14    24    1
    24    25    27   ar
    25    19    26   ar
    26    26    27   ar
    27     9    13   ar
    28    18    25   ar
    29    10    14   ar
    30     7    28    1
    31     8    29    1
    32    11    30    1
    33    11    31    1
    34    12    32    1
    35    12    33    1
    36    15    34    1
    37    22    35    1
    38    23    36    1
    39    23    37    1
    40    23    38    1
    41    24    39    1
    42    24    40    1
    43    24    41    1
    44    25    42    1
    45    26    43    1
    46    27    44    1
@<TRIPOS>SUBSTRUCTURE
     1 UNL1        1 TEMP              0 ****  ****    0 ROOT


