##########                                Name: HTS1710-01152315-01
##########                    Molecular_Weight:             365.387
##########                DOCK_Rotatable_Bonds:                   7
##########                       Formal_Charge:                  -2
##########                     HBond_Acceptors:                   9
##########                        HBond_Donors:                   0
##########                         Heavy_Atoms:                  24
##########                          Grid_Score:          -75.376007
##########                     Grid_vdw_energy:          -43.929783
##########                      Grid_es_energy:          -31.446222
##########           Internal_energy_repulsive:           13.908904

@<TRIPOS>MOLECULE
HTS1710-01152315-01
 35 36 1 0 0
SMALL
USER_CHARGES


@<TRIPOS>ATOM
      1 N           2.9612  -13.2472  -30.3629 N.am    1  UNL1       -0.2463
      2 C           1.8784  -14.0833  -30.0939 C.2     1  UNL1        0.1211
      3 C           2.9064  -12.6447  -31.6220 C.2     1  UNL1        0.2589
      4 C           1.6986  -13.0860  -32.3618 C.2     1  UNL1        0.0773
      5 S           0.7454  -14.2472  -31.4650 S.3     1  UNL1       -0.0610
      6 C           4.0774  -12.9271  -29.4204 C.3     1  UNL1        0.0765
      7 C           1.4526  -12.6429  -33.6501 C.2     1  UNL1       -0.0323
      8 C           4.3823  -13.9994  -28.3328 C.3     1  UNL1        0.0111
      9 C           3.8736  -11.5290  -28.8071 C.2     1  UNL1        0.0629
     10 S           1.4373  -14.7005  -28.5993 S.2     1  UNL1       -0.0272
     11 C           5.8102  -13.9140  -27.7687 C.2     1  UNL1        0.0439
     12 C           2.0636  -11.6945  -34.6424 C.ar    1  UNL1        0.0179
     13 O           3.7387  -11.8581  -32.0430 O.2     1  UNL1       -0.2690
     14 O           4.5378  -10.6204  -29.2752 O.co2   1  UNL1       -0.5479
     15 C           1.5394  -10.4231  -35.0015 C.ar    1  UNL1        0.1272
     16 O           6.3818  -12.8398  -27.8394 O.co2   1  UNL1       -0.5497
     17 O           3.0495  -11.4076  -27.9164 O.co2   1  UNL1       -0.5479
     18 O           6.2795  -14.9326  -27.2889 O.co2   1  UNL1       -0.5497
     19 O           0.4376   -9.9241  -34.3401 O.3     1  UNL1       -0.4945
     20 C           3.2790  -12.1063  -35.2313 C.ar    1  UNL1       -0.0511
     21 C           2.2043   -9.6358  -35.9713 C.ar    1  UNL1       -0.0194
     22 C          -0.1150   -8.6159  -34.5716 C.3     1  UNL1        0.0788
     23 C           3.9327  -11.3174  -36.1883 C.ar    1  UNL1       -0.0610
     24 C           3.3891  -10.0867  -36.5669 C.ar    1  UNL1       -0.0583
     25 H           4.9609  -12.9339  -30.0238 H       1  UNL1        0.0570
     26 H           0.6091  -13.0920  -34.0400 H       1  UNL1        0.0637
     27 H           4.2467  -14.9684  -28.7657 H       1  UNL1        0.0347
     28 H           3.7116  -13.8204  -27.5186 H       1  UNL1        0.0347
     29 H           3.6955  -13.0080  -34.9510 H       1  UNL1        0.0625
     30 H           1.8123   -8.7205  -36.2423 H       1  UNL1        0.0654
     31 H          -0.9632   -8.4694  -33.9360 H       1  UNL1        0.0660
     32 H          -0.4173   -8.5323  -35.5946 H       1  UNL1        0.0660
     33 H           0.6245   -7.8732  -34.3564 H       1  UNL1        0.0660
     34 H           4.8143  -11.6452  -36.6128 H       1  UNL1        0.0618
     35 H           3.8594   -9.5117  -37.2833 H       1  UNL1        0.0619
@<TRIPOS>BOND
     1     1     2    1
     2     1     3   am
     3     3     4    1
     4     2     5    1
     5     1     6    1
     6     4     7    2
     7     6     8    1
     8     6     9    1
     9     2    10    2
    10     8    11    1
    11     7    12    1
    12     3    13    2
    13     9    14   ar
    14    12    15   ar
    15    11    16   ar
    16     9    17   ar
    17    11    18   ar
    18    15    19    1
    19    12    20   ar
    20    15    21   ar
    21    19    22    1
    22    20    23   ar
    23    23    24   ar
    24     4     5    1
    25    21    24   ar
    26     6    25    1
    27     7    26    1
    28     8    27    1
    29     8    28    1
    30    20    29    1
    31    21    30    1
    32    22    31    1
    33    22    32    1
    34    22    33    1
    35    23    34    1
    36    24    35    1
@<TRIPOS>SUBSTRUCTURE
     1 UNL1        1 TEMP              0 ****  ****    0 ROOT


