##########                                Name: HTS1710-01271450-01
##########                    Molecular_Weight:             389.362
##########                DOCK_Rotatable_Bonds:                   9
##########                       Formal_Charge:                  -2
##########                     HBond_Acceptors:                   9
##########                        HBond_Donors:                   1
##########                         Heavy_Atoms:                  28
##########                          Grid_Score:          -76.616791
##########                     Grid_vdw_energy:          -46.663559
##########                      Grid_es_energy:          -29.953232
##########           Internal_energy_repulsive:           17.759514

@<TRIPOS>MOLECULE
HTS1710-01271450-01
 47 48 1 0 0
SMALL
USER_CHARGES


@<TRIPOS>ATOM
      1 C           3.3791  -10.2137  -30.5675 C.ar    1  UNL1        0.0174
      2 C           2.9779  -11.3601  -31.4338 C.ar    1  UNL1        0.2550
      3 N           2.7441  -12.5567  -30.7515 N.ar    1  UNL1       -0.3070
      4 C           3.4941  -10.3060  -29.1853 C.ar    1  UNL1       -0.0978
      5 C           3.6516   -8.8724  -31.2636 C.3     1  UNL1        0.0239
      6 C           3.2165  -11.5747  -28.5727 C.ar    1  UNL1       -0.0498
      7 C           2.8535  -12.6499  -29.3578 C.ar    1  UNL1        0.0188
      8 C           2.3581   -8.0922  -31.5640 C.ar    1  UNL1       -0.0356
      9 C           2.3640  -13.7590  -31.5514 C.3     1  UNL1        0.0657
     10 C           1.5082   -8.3909  -32.6536 C.ar    1  UNL1       -0.0125
     11 O           2.8581  -11.2666  -32.6451 O.2     1  UNL1       -0.2674
     12 C           4.6232   -9.0725  -32.4651 C.3     1  UNL1        0.0559
     13 C           0.3340   -7.6372  -32.8784 C.ar    1  UNL1        0.1615
     14 C           0.8817  -13.7462  -31.9688 C.2     1  UNL1        0.0615
     15 C           5.6119   -7.9114  -32.6417 C.2     1  UNL1        0.3077
     16 C           0.0051   -6.5877  -32.0023 C.ar    1  UNL1        0.1585
     17 C           2.0072   -7.0381  -30.6995 C.ar    1  UNL1       -0.0543
     18 O           0.0441  -14.1081  -31.1602 O.co2   1  UNL1       -0.5480
     19 O           5.9490   -7.1656  -31.7357 O.2     1  UNL1       -0.2508
     20 O           3.8416   -9.2782  -28.3828 O.co2   1  UNL1       -0.8733
     21 C           0.8398   -6.2908  -30.9158 C.ar    1  UNL1       -0.0162
     22 O           0.6456  -13.3666  -33.1028 O.co2   1  UNL1       -0.5480
     23 O          -0.5134   -7.9025  -33.9398 O.3     1  UNL1       -0.4914
     24 O           6.0460   -7.8109  -33.9342 O.3     1  UNL1       -0.4679
     25 C           2.5695  -13.9603  -28.6438 C.3     1  UNL1       -0.0242
     26 O          -1.1292   -5.8526  -32.2031 O.3     1  UNL1       -0.5033
     27 C          -0.0657   -8.0007  -35.3031 C.3     1  UNL1        0.0790
     28 C           6.9369   -6.7415  -34.2947 C.3     1  UNL1        0.0817
     29 H           4.1688   -8.2216  -30.5899 H       1  UNL1        0.0404
     30 H           3.2882  -11.6820  -27.5488 H       1  UNL1        0.0629
     31 H           2.5473  -14.6341  -30.9635 H       1  UNL1        0.0554
     32 H           2.9530  -13.7543  -32.4447 H       1  UNL1        0.0554
     33 H           1.7475   -9.1666  -33.2908 H       1  UNL1        0.0658
     34 H           4.0436   -9.1650  -33.3597 H       1  UNL1        0.0387
     35 H           5.1981   -9.9529  -32.2665 H       1  UNL1        0.0387
     36 H           2.6159   -6.8125  -29.8973 H       1  UNL1        0.0622
     37 H           0.5949   -5.5208  -30.2737 H       1  UNL1        0.0655
     38 H           2.7065  -13.8295  -27.5907 H       1  UNL1        0.0292
     39 H           3.2409  -14.7134  -29.0000 H       1  UNL1        0.0292
     40 H           1.5611  -14.2608  -28.8377 H       1  UNL1        0.0292
     41 H          -1.1400   -4.9401  -31.9902 H       1  UNL1        0.2923
     42 H          -0.9005   -8.2112  -35.9384 H       1  UNL1        0.0660
     43 H           0.6535   -8.7885  -35.3865 H       1  UNL1        0.0660
     44 H           0.3830   -7.0754  -35.5987 H       1  UNL1        0.0660
     45 H           7.1751   -6.8113  -35.3355 H       1  UNL1        0.0661
     46 H           7.8349   -6.8155  -33.7176 H       1  UNL1        0.0661
     47 H           6.4637   -5.8019  -34.0993 H       1  UNL1        0.0661
@<TRIPOS>BOND
     1     1     2   ar
     2     2     3   ar
     3     1     4   ar
     4     1     5    1
     5     4     6   ar
     6     6     7   ar
     7     5     8    1
     8     3     9    1
     9     8    10   ar
    10     2    11    2
    11     5    12    1
    12    10    13   ar
    13     9    14    1
    14    12    15    1
    15    16    21   ar
    16     8    17   ar
    17    14    18   ar
    18    15    19    2
    19     4    20    1
    20    17    21   ar
    21    14    22   ar
    22    13    23    1
    23    15    24    1
    24     7    25    1
    25    16    26    1
    26    23    27    1
    27    24    28    1
    28     3     7   ar
    29    13    16   ar
    30     5    29    1
    31     6    30    1
    32     9    31    1
    33     9    32    1
    34    10    33    1
    35    12    34    1
    36    12    35    1
    37    17    36    1
    38    21    37    1
    39    25    38    1
    40    25    39    1
    41    25    40    1
    42    26    41    1
    43    27    42    1
    44    27    43    1
    45    27    44    1
    46    28    45    1
    47    28    46    1
    48    28    47    1
@<TRIPOS>SUBSTRUCTURE
     1 UNL1        1 TEMP              0 ****  ****    0 ROOT


