##########                                Name: HTS1710-05163103-01
##########                    Molecular_Weight:             318.353
##########                DOCK_Rotatable_Bonds:                   6
##########                       Formal_Charge:                  -2
##########                     HBond_Acceptors:                   7
##########                        HBond_Donors:                   0
##########                         Heavy_Atoms:                  23
##########                          Grid_Score:          -76.547577
##########                     Grid_vdw_energy:          -40.105644
##########                      Grid_es_energy:          -36.441929
##########           Internal_energy_repulsive:           10.790379

@<TRIPOS>MOLECULE
HTS1710-05163103-01
 43 44 1 0 0
SMALL
USER_CHARGES


@<TRIPOS>ATOM
      1 C           1.0790   -9.3761  -34.1925 C.3     1  UNL1       -0.0572
      2 C           1.7972  -10.6954  -34.5647 C.3     1  UNL1       -0.0025
      3 C           1.0559  -11.4285  -35.7066 C.3     1  UNL1       -0.0572
      4 C           1.9562  -11.5951  -33.3596 C.ar    1  UNL1        0.0663
      5 C           3.1658  -11.6558  -32.6324 C.ar    1  UNL1       -0.0083
      6 C           2.9806  -12.5266  -31.6007 C.ar    1  UNL1        0.1234
      7 C           4.0214  -12.8967  -30.5940 C.2     1  UNL1        0.2646
      8 O           4.7841  -13.8244  -30.8095 O.2     1  UNL1       -0.2683
      9 N           4.1115  -12.1274  -29.4231 N.am    1  UNL1       -0.2961
     10 C           4.8213  -12.5747  -28.2038 C.3     1  UNL1        0.0038
     11 C           3.2012  -10.9781  -29.1869 C.3     1  UNL1        0.0269
     12 C           3.6126   -9.7371  -29.9443 C.2     1  UNL1       -0.0998
     13 C           2.7760   -8.6807  -30.1876 C.2     1  UNL1       -0.0630
     14 C           3.5694   -7.7403  -30.8996 C.2     1  UNL1       -0.0144
     15 C           3.1253   -6.4136  -31.3931 C.2     1  UNL1        0.0708
     16 O           1.9257   -6.2464  -31.5298 O.co2   1  UNL1       -0.5447
     17 O           3.9709   -5.5688  -31.6311 O.co2   1  UNL1       -0.5447
     18 C           4.7994   -8.3586  -31.0015 C.2     1  UNL1       -0.1120
     19 C           6.0193   -7.7888  -31.6789 C.3     1  UNL1       -0.0524
     20 O           4.8864   -9.5986  -30.4249 O.co2   1  UNL1       -0.7845
     21 N           1.6922  -13.0410  -31.8077 N.ar    1  UNL1       -0.2620
     22 C           1.0484  -14.2146  -31.2000 C.3     1  UNL1        0.0310
     23 N           1.0639  -12.4410  -32.8774 N.ar    1  UNL1       -0.1755
     24 H           0.9828   -8.7641  -35.0648 H       1  UNL1        0.0236
     25 H           1.6504   -8.8554  -33.4527 H       1  UNL1        0.0236
     26 H           0.1073   -9.5967  -33.8026 H       1  UNL1        0.0236
     27 H           2.7765  -10.4423  -34.9138 H       1  UNL1        0.0359
     28 H           0.0716  -11.6926  -35.3809 H       1  UNL1        0.0236
     29 H           1.5943  -12.3149  -35.9699 H       1  UNL1        0.0236
     30 H           0.9891  -10.7853  -36.5591 H       1  UNL1        0.0236
     31 H           4.0316  -11.1356  -32.8438 H       1  UNL1        0.0659
     32 H           5.4569  -13.4013  -28.4442 H       1  UNL1        0.0429
     33 H           4.1075  -12.8764  -27.4659 H       1  UNL1        0.0429
     34 H           5.4127  -11.7700  -27.8199 H       1  UNL1        0.0429
     35 H           3.1983  -10.7542  -28.1406 H       1  UNL1        0.0502
     36 H           2.2302  -11.2605  -29.5364 H       1  UNL1        0.0502
     37 H           1.7854   -8.5874  -29.9137 H       1  UNL1        0.0615
     38 H           5.7884   -6.8221  -32.0750 H       1  UNL1        0.0266
     39 H           6.3211   -8.4376  -32.4745 H       1  UNL1        0.0266
     40 H           6.8143   -7.7024  -30.9681 H       1  UNL1        0.0266
     41 H           1.6475  -14.5692  -30.3875 H       1  UNL1        0.0473
     42 H           0.9495  -14.9871  -31.9338 H       1  UNL1        0.0473
     43 H           0.0797  -13.9419  -30.8366 H       1  UNL1        0.0473
@<TRIPOS>BOND
     1     1     2    1
     2     2     3    1
     3     2     4    1
     4     4     5   ar
     5     5     6   ar
     6     6     7    1
     7     7     8    2
     8     7     9   am
     9     9    10    1
    10     9    11    1
    11    11    12    1
    12    12    13    2
    13    13    14    1
    14    14    15    1
    15    15    16   ar
    16    15    17   ar
    17    14    18    2
    18    18    19    1
    19    18    20    1
    20    12    20    1
    21     6    21   ar
    22    21    22    1
    23    21    23   ar
    24     4    23   ar
    25     1    24    1
    26     1    25    1
    27     1    26    1
    28     2    27    1
    29     3    28    1
    30     3    29    1
    31     3    30    1
    32     5    31    1
    33    10    32    1
    34    10    33    1
    35    10    34    1
    36    11    35    1
    37    11    36    1
    38    13    37    1
    39    19    38    1
    40    19    39    1
    41    19    40    1
    42    22    41    1
    43    22    42    1
    44    22    43    1
@<TRIPOS>SUBSTRUCTURE
     1 UNL1        1 TEMP              0 ****  ****    0 ROOT


