HTS1710-04760594-01
 OpenBabel03232612353D

 42 43  0  0  1  0  0  0  0  0999 V2000
    5.8191   -6.7282  -31.9850 C   0  0  0  0  0  0  0  0  0  0  0  0
    5.2673   -8.0778  -31.6030 C   0  0  0  0  0  0  0  0  0  0  0  0
    4.7382   -8.2434  -30.3480 O   0  0  0  0  0  0  0  0  0  0  0  0
    4.3602   -9.5563  -30.4142 C   0  0  0  0  0  0  0  0  0  0  0  0
    3.7000  -10.2083  -29.2289 C   0  0  0  0  0  0  0  0  0  0  0  0
    3.5808  -11.6551  -29.4488 N   0  0  0  0  0  0  0  0  0  0  0  0
    2.9543  -12.5034  -28.5445 C   0  0  0  0  0  0  0  0  0  0  0  0
    2.4745  -12.0536  -27.5167 O   0  0  0  0  0  0  0  0  0  0  0  0
    2.8972  -13.9960  -28.8935 C   0  0  0  0  0  0  0  0  0  0  0  0
    1.7199  -14.3538  -29.8378 C   0  0  0  0  0  0  0  0  0  0  0  0
    1.6834  -13.4314  -30.9447 O   0  0  0  0  0  0  0  0  0  0  0  0
    1.1809  -13.9633  -32.1869 C   0  0  0  0  0  0  0  0  0  0  0  0
    1.1110  -12.8102  -33.2101 C   0  0  1  0  0  0  0  0  0  0  0  0
    2.4743  -12.4231  -33.8251 C   0  0  0  0  0  0  0  0  0  0  0  0
    2.1471  -12.0855  -35.2918 C   0  0  0  0  0  0  0  0  0  0  0  0
    0.6281  -12.3086  -35.4079 C   0  0  0  0  0  0  0  0  0  0  0  0
    0.3474  -13.2356  -34.3494 O   0  0  0  0  0  0  0  0  0  0  0  0
    4.6180  -10.1848  -31.6044 C   0  0  0  0  0  0  0  0  0  0  0  0
    5.2351   -9.1944  -32.4144 C   0  0  0  0  0  0  0  0  0  0  0  0
    5.7141   -9.3762  -33.8066 C   0  0  0  0  0  0  0  0  0  0  0  0
    6.0469  -10.5007  -34.1353 O   0  5  0  0  0  0  0  0  0  0  0  0
    5.7495   -8.4038  -34.5401 O   0  0  0  0  0  0  0  0  0  0  0  0
    5.7131   -6.0534  -31.1615 H   0  0  0  0  0  0  0  0  0  0  0  0
    5.2811   -6.3488  -32.8286 H   0  0  0  0  0  0  0  0  0  0  0  0
    6.8547   -6.8245  -32.2363 H   0  0  0  0  0  0  0  0  0  0  0  0
    2.7246   -9.7898  -29.0927 H   0  0  0  0  0  0  0  0  0  0  0  0
    4.2961  -10.0350  -28.3574 H   0  0  0  0  0  0  0  0  0  0  0  0
    3.9608  -12.0401  -30.2714 H   0  0  0  0  0  0  0  0  0  0  0  0
    2.7887  -14.5541  -27.9871 H   0  0  0  0  0  0  0  0  0  0  0  0
    3.8040  -14.2394  -29.4067 H   0  0  0  0  0  0  0  0  0  0  0  0
    0.7992  -14.2946  -29.2958 H   0  0  0  0  0  0  0  0  0  0  0  0
    1.8558  -15.3475  -30.2107 H   0  0  0  0  0  0  0  0  0  0  0  0
    0.2046  -14.3742  -32.0367 H   0  0  0  0  0  0  0  0  0  0  0  0
    1.8259  -14.7380  -32.5457 H   0  0  0  0  0  0  0  0  0  0  0  0
    0.7004  -11.9881  -32.6621 H   0  0  0  0  0  0  0  0  0  0  0  0
    3.1618  -13.2410  -33.7685 H   0  0  0  0  0  0  0  0  0  0  0  0
    2.9379  -11.6071  -33.3112 H   0  0  0  0  0  0  0  0  0  0  0  0
    2.6769  -12.7353  -35.9568 H   0  0  0  0  0  0  0  0  0  0  0  0
    2.4337  -11.0885  -35.5541 H   0  0  0  0  0  0  0  0  0  0  0  0
    0.3737  -12.7257  -36.3598 H   0  0  0  0  0  0  0  0  0  0  0  0
    0.0651  -11.4020  -35.3300 H   0  0  0  0  0  0  0  0  0  0  0  0
    4.4094  -11.1634  -31.8570 H   0  0  0  0  0  0  0  0  0  0  0  0
  1  2  1  0  0  0  0
  1 23  1  0  0  0  0
  1 24  1  0  0  0  0
  1 25  1  0  0  0  0
  2  3  1  0  0  0  0
  2 19  2  0  0  0  0
  3  4  1  0  0  0  0
  4  5  1  0  0  0  0
  4 18  2  0  0  0  0
  5  6  1  0  0  0  0
  5 26  1  0  0  0  0
  5 27  1  0  0  0  0
  6  7  1  0  0  0  0
  6 28  1  0  0  0  0
  7  8  2  0  0  0  0
  7  9  1  0  0  0  0
  9 10  1  0  0  0  0
  9 29  1  0  0  0  0
  9 30  1  0  0  0  0
 10 11  1  0  0  0  0
 10 31  1  0  0  0  0
 10 32  1  0  0  0  0
 11 12  1  0  0  0  0
 12 13  1  0  0  0  0
 12 33  1  0  0  0  0
 12 34  1  0  0  0  0
 13 14  1  0  0  0  0
 13 17  1  0  0  0  0
 13 35  1  1  0  0  0
 14 15  1  0  0  0  0
 14 36  1  0  0  0  0
 14 37  1  0  0  0  0
 15 16  1  0  0  0  0
 15 38  1  0  0  0  0
 15 39  1  0  0  0  0
 16 17  1  0  0  0  0
 16 40  1  0  0  0  0
 16 41  1  0  0  0  0
 18 19  1  0  0  0  0
 18 42  1  0  0  0  0
 19 20  1  0  0  0  0
 20 21  1  0  0  0  0
 20 22  2  0  0  0  0
M  CHG  1  21  -1
M  END
$$$$
