HTS1710-00155710-01
 OpenBabel03232612353D

 28 29  0  0  0  0  0  0  0  0999 V2000
    6.3645   -7.3627  -33.9289 C   0  0  0  0  0  0  0  0  0  0  0  0
    5.8117   -8.5794  -34.4006 C   0  0  0  0  0  0  0  0  0  0  0  0
    5.4743   -9.2613  -33.2640 C   0  0  0  0  0  0  0  0  0  0  0  0
    5.7436   -8.6158  -32.0871 O   0  0  0  0  0  0  0  0  0  0  0  0
    6.2929   -7.4482  -32.5590 C   0  0  0  0  0  0  0  0  0  0  0  0
    6.8999   -6.2495  -34.7381 C   0  0  0  0  0  0  0  0  0  0  0  0
    7.3139   -5.2695  -34.1432 O   0  5  0  0  0  0  0  0  0  0  0  0
    6.8945   -6.3822  -35.9492 O   0  0  0  0  0  0  0  0  0  0  0  0
    4.8399  -10.6258  -33.2588 C   0  0  0  0  0  0  0  0  0  0  0  0
    4.2906  -10.9052  -31.9253 N   0  0  0  0  0  0  0  0  0  0  0  0
    3.8546  -12.1671  -31.5399 C   0  0  0  0  0  0  0  0  0  0  0  0
    3.3202  -12.3359  -30.1759 C   0  0  0  0  0  0  0  0  0  0  0  0
    3.9225  -13.0986  -32.3249 O   0  0  0  0  0  0  0  0  0  0  0  0
    3.0787  -13.5557  -29.4970 C   0  0  0  0  0  0  0  0  0  0  0  0
    2.5941  -13.1737  -28.2748 C   0  0  0  0  0  0  0  0  0  0  0  0
    2.4893  -11.8236  -28.0815 O   0  0  0  0  0  0  0  0  0  0  0  0
    2.9516  -11.3544  -29.2857 C   0  0  0  0  0  0  0  0  0  0  0  0
    2.1965  -14.1299  -27.1821 C   0  0  0  0  0  0  0  0  0  0  0  0
    5.6912   -8.8823  -35.3797 H   0  0  0  0  0  0  0  0  0  0  0  0
    6.6249   -6.6961  -31.9352 H   0  0  0  0  0  0  0  0  0  0  0  0
    5.5764  -11.3625  -33.5027 H   0  0  0  0  0  0  0  0  0  0  0  0
    4.0522  -10.6556  -33.9825 H   0  0  0  0  0  0  0  0  0  0  0  0
    4.2286  -10.1669  -31.2770 H   0  0  0  0  0  0  0  0  0  0  0  0
    3.2330  -14.5150  -29.8450 H   0  0  0  0  0  0  0  0  0  0  0  0
    3.0172  -10.3481  -29.5051 H   0  0  0  0  0  0  0  0  0  0  0  0
    2.3473  -15.1353  -27.5158 H   0  0  0  0  0  0  0  0  0  0  0  0
    1.1644  -13.9854  -26.9399 H   0  0  0  0  0  0  0  0  0  0  0  0
    2.7953  -13.9485  -26.3142 H   0  0  0  0  0  0  0  0  0  0  0  0
  1  2  1  0  0  0  0
  1  5  2  0  0  0  0
  1  6  1  0  0  0  0
  2  3  2  0  0  0  0
  2 19  1  0  0  0  0
  3  4  1  0  0  0  0
  3  9  1  0  0  0  0
  4  5  1  0  0  0  0
  5 20  1  0  0  0  0
  6  7  1  0  0  0  0
  6  8  2  0  0  0  0
  9 10  1  0  0  0  0
  9 21  1  0  0  0  0
  9 22  1  0  0  0  0
 10 11  1  0  0  0  0
 10 23  1  0  0  0  0
 11 12  1  0  0  0  0
 11 13  2  0  0  0  0
 12 14  1  0  0  0  0
 12 17  2  0  0  0  0
 14 15  2  0  0  0  0
 14 24  1  0  0  0  0
 15 16  1  0  0  0  0
 15 18  1  0  0  0  0
 16 17  1  0  0  0  0
 17 25  1  0  0  0  0
 18 26  1  0  0  0  0
 18 27  1  0  0  0  0
 18 28  1  0  0  0  0
M  CHG  1   7  -1
M  END
$$$$
