##########                                Name: HTS1710-01234909-01
##########                    Molecular_Weight:             300.312
##########                DOCK_Rotatable_Bonds:                  14
##########                       Formal_Charge:                  -2
##########                     HBond_Acceptors:                   8
##########                        HBond_Donors:                   2
##########                         Heavy_Atoms:                  21
##########                          Grid_Score:          -77.638840
##########                     Grid_vdw_energy:          -38.313461
##########                      Grid_es_energy:          -39.325382
##########           Internal_energy_repulsive:            7.437322

@<TRIPOS>MOLECULE
HTS1710-01234909-01
 41 40 1 0 0
SMALL
USER_CHARGES


@<TRIPOS>ATOM
      1 C           5.4761   -8.7240  -35.4425 C.2     1  UNL1        0.2133
      2 C           1.9908  -13.3182  -30.8025 C.2     1  UNL1        0.2133
      3 C           5.7438   -7.2192  -32.0427 C.2     1  UNL1        0.0588
      4 C           3.7957  -10.5107  -28.9578 C.2     1  UNL1        0.0588
      5 N           2.4662  -12.0915  -30.3634 N.am    1  UNL1       -0.3100
      6 N           5.5837   -8.6350  -34.0608 N.am    1  UNL1       -0.3100
      7 O           6.0549   -7.9227  -36.1573 O.2     1  UNL1       -0.2758
      8 O           2.2940  -14.3390  -30.2064 O.2     1  UNL1       -0.2758
      9 O           4.9679   -6.2789  -32.0308 O.co2   1  UNL1       -0.5482
     10 O           4.6809  -10.0638  -29.6690 O.co2   1  UNL1       -0.5482
     11 C           6.3700   -7.5915  -33.3905 C.3     1  UNL1        0.0512
     12 C           3.3357  -11.9604  -29.1868 C.3     1  UNL1        0.0512
     13 O           6.0618   -7.8873  -31.0741 O.co2   1  UNL1       -0.5482
     14 O           3.2336   -9.9000  -28.0670 O.co2   1  UNL1       -0.5482
     15 C           4.6288   -9.8538  -36.0361 C.3     1  UNL1        0.0240
     16 C           1.0894  -13.3477  -32.0410 C.3     1  UNL1        0.0240
     17 C           1.2884  -12.1108  -32.9539 C.3     1  UNL1       -0.0448
     18 C           3.3079  -10.0666  -35.2586 C.3     1  UNL1       -0.0448
     19 C           0.9835  -12.4071  -34.4428 C.3     1  UNL1       -0.0526
     20 C           2.2926  -10.9112  -36.0651 C.3     1  UNL1       -0.0526
     21 C           0.9649  -11.1184  -35.2986 C.3     1  UNL1       -0.0530
     22 H           2.2118  -11.2793  -30.8581 H       1  UNL1        0.1491
     23 H           5.1130   -9.2995  -33.5074 H       1  UNL1        0.1491
     24 H           7.3642   -7.9517  -33.2276 H       1  UNL1        0.0523
     25 H           6.3862   -6.7214  -34.0129 H       1  UNL1        0.0523
     26 H           2.7976  -12.2909  -28.3230 H       1  UNL1        0.0523
     27 H           4.2076  -12.5570  -29.3566 H       1  UNL1        0.0523
     28 H           5.1955  -10.7609  -36.0069 H       1  UNL1        0.0358
     29 H           4.3781   -9.5825  -37.0403 H       1  UNL1        0.0358
     30 H           0.0687  -13.3768  -31.7211 H       1  UNL1        0.0358
     31 H           1.3499  -14.2155  -32.6103 H       1  UNL1        0.0358
     32 H           2.3043  -11.7852  -32.8715 H       1  UNL1        0.0270
     33 H           0.6018  -11.3573  -32.6288 H       1  UNL1        0.0270
     34 H           2.8732   -9.1120  -35.0476 H       1  UNL1        0.0270
     35 H           3.5359  -10.5950  -34.3566 H       1  UNL1        0.0270
     36 H           0.0268  -12.8812  -34.5116 H       1  UNL1        0.0265
     37 H           1.7585  -13.0420  -34.8187 H       1  UNL1        0.0265
     38 H           2.7255  -11.8682  -36.2690 H       1  UNL1        0.0265
     39 H           2.0709  -10.3832  -36.9689 H       1  UNL1        0.0265
     40 H           0.8030  -10.2789  -34.6552 H       1  UNL1        0.0265
     41 H           0.1791  -11.2118  -36.0188 H       1  UNL1        0.0265
@<TRIPOS>BOND
     1     2    16    1
     2     3    11    1
     3     4    12    1
     4     2     5   am
     5     1     6   am
     6     1     7    2
     7     2     8    2
     8     3     9   ar
     9     4    10   ar
    10     6    11    1
    11     5    12    1
    12     3    13   ar
    13     4    14   ar
    14     1    15    1
    15    16    17    1
    16    17    19    1
    17    15    18    1
    18    19    21    1
    19    18    20    1
    20    20    21    1
    21     5    22    1
    22     6    23    1
    23    11    24    1
    24    11    25    1
    25    12    26    1
    26    12    27    1
    27    15    28    1
    28    15    29    1
    29    16    30    1
    30    16    31    1
    31    17    32    1
    32    17    33    1
    33    18    34    1
    34    18    35    1
    35    19    36    1
    36    19    37    1
    37    20    38    1
    38    20    39    1
    39    21    40    1
    40    21    41    1
@<TRIPOS>SUBSTRUCTURE
     1 UNL1        1 TEMP              0 ****  ****    0 ROOT


