HTS1710-01265753-01
 OpenBabel03232612343D

 52 54  0  0  1  0  0  0  0  0999 V2000
    3.6765   -8.0404  -30.8418 C   0  0  0  0  0  0  0  0  0  0  0  0
    2.4264   -7.2268  -30.8055 C   0  0  0  0  0  0  0  0  0  0  0  0
    0.4172  -13.4761  -34.0507 C   0  0  0  0  0  0  0  0  0  0  0  0
    2.6030   -5.8696  -31.0846 N   0  0  0  0  0  0  0  0  0  0  0  0
    0.8042  -13.3042  -32.7200 N   0  0  0  0  0  0  0  0  0  0  0  0
    0.9228  -12.3931  -34.7741 N   0  0  0  0  0  0  0  0  0  0  0  0
    1.5485  -12.1117  -32.6286 C   0  0  0  0  0  0  0  0  0  0  0  0
    4.9253   -7.5088  -31.1436 C   0  0  0  0  0  0  0  0  0  0  0  0
    1.6206  -11.5567  -33.8813 C   0  0  0  0  0  0  0  0  0  0  0  0
    3.5424   -9.5441  -30.5614 C   0  0  2  0  0  0  0  0  0  0  0  0
    5.0027   -6.1060  -31.4359 C   0  0  0  0  0  0  0  0  0  0  0  0
    3.8577   -5.3348  -31.4023 C   0  0  0  0  0  0  0  0  0  0  0  0
    2.1450  -11.5148  -31.5138 C   0  0  0  0  0  0  0  0  0  0  0  0
    2.8449  -10.2940  -31.7104 C   0  0  0  0  0  0  0  0  0  0  0  0
    1.4058   -4.9772  -31.0229 C   0  0  0  0  0  0  0  0  0  0  0  0
    2.2975  -10.3579  -34.1186 C   0  0  0  0  0  0  0  0  0  0  0  0
   -0.2411  -14.3999  -34.4975 O   0  0  0  0  0  0  0  0  0  0  0  0
    1.3312   -7.7050  -30.5573 O   0  0  0  0  0  0  0  0  0  0  0  0
    2.9372   -9.8060  -29.1488 C   0  0  0  0  0  0  0  0  0  0  0  0
    0.8148   -4.6744  -32.4127 C   0  0  0  0  0  0  0  0  0  0  0  0
    3.5805  -11.0113  -28.4529 C   0  0  0  0  0  0  0  0  0  0  0  0
    2.9116   -9.7308  -33.0148 C   0  0  0  0  0  0  0  0  0  0  0  0
    1.0330   -3.5857  -32.9163 O   0  5  0  0  0  0  0  0  0  0  0  0
    4.7805  -11.2341  -28.4612 O   0  0  0  0  0  0  0  0  0  0  0  0
    6.0641   -8.2325  -31.1881 O   0  5  0  0  0  0  0  0  0  0  0  0
    0.4950  -14.1977  -31.5966 C   0  0  0  0  0  0  0  0  0  0  0  0
    0.7650  -12.1520  -36.2130 C   0  0  0  0  0  0  0  0  0  0  0  0
    0.1555   -5.5633  -32.9215 O   0  0  0  0  0  0  0  0  0  0  0  0
    2.6446  -11.8059  -27.8524 O   0  0  0  0  0  0  0  0  0  0  0  0
    4.0125   -3.8597  -31.7282 C   0  0  0  0  0  0  0  0  0  0  0  0
    3.0076  -13.1358  -27.4438 C   0  0  0  0  0  0  0  0  0  0  0  0
    4.5250   -9.9664  -30.5314 H   0  0  0  0  0  0  0  0  0  0  0  0
    5.9107   -5.6751  -31.6703 H   0  0  0  0  0  0  0  0  0  0  0  0
    2.0791  -11.9467  -30.5788 H   0  0  0  0  0  0  0  0  0  0  0  0
    1.6911   -4.0537  -30.5641 H   0  0  0  0  0  0  0  0  0  0  0  0
    0.6537   -5.4858  -30.4568 H   0  0  0  0  0  0  0  0  0  0  0  0
    2.3462   -9.9475  -35.0642 H   0  0  0  0  0  0  0  0  0  0  0  0
    1.8880   -9.9886  -29.2526 H   0  0  0  0  0  0  0  0  0  0  0  0
    3.1263   -8.9418  -28.5469 H   0  0  0  0  0  0  0  0  0  0  0  0
    3.4203   -8.8441  -33.1565 H   0  0  0  0  0  0  0  0  0  0  0  0
   -0.0827  -15.0268  -31.9488 H   0  0  0  0  0  0  0  0  0  0  0  0
   -0.0638  -13.6618  -30.8580 H   0  0  0  0  0  0  0  0  0  0  0  0
    1.4060  -14.5557  -31.1644 H   0  0  0  0  0  0  0  0  0  0  0  0
    1.2621  -11.2424  -36.4789 H   0  0  0  0  0  0  0  0  0  0  0  0
   -0.2755  -12.0720  -36.4493 H   0  0  0  0  0  0  0  0  0  0  0  0
    1.1934  -12.9656  -36.7601 H   0  0  0  0  0  0  0  0  0  0  0  0
    5.0392   -3.6476  -31.9423 H   0  0  0  0  0  0  0  0  0  0  0  0
    3.6944   -3.2742  -30.8910 H   0  0  0  0  0  0  0  0  0  0  0  0
    3.4130   -3.6179  -32.5809 H   0  0  0  0  0  0  0  0  0  0  0  0
    2.1623  -13.6143  -26.9951 H   0  0  0  0  0  0  0  0  0  0  0  0
    3.8070  -13.0853  -26.7344 H   0  0  0  0  0  0  0  0  0  0  0  0
    3.3237  -13.6976  -28.2978 H   0  0  0  0  0  0  0  0  0  0  0  0
  1  2  1  0  0  0  0
  1  8  2  0  0  0  0
  1 10  1  0  0  0  0
  2  4  1  0  0  0  0
  2 18  2  0  0  0  0
  3  5  1  0  0  0  0
  3 17  2  0  0  0  0
  3  6  1  0  0  0  0
  4 15  1  0  0  0  0
  4 12  1  0  0  0  0
  5  7  1  0  0  0  0
  5 26  1  0  0  0  0
  6  9  1  0  0  0  0
  6 27  1  0  0  0  0
  7 13  2  0  0  0  0
  7  9  1  0  0  0  0
  8 11  1  0  0  0  0
  8 25  1  0  0  0  0
  9 16  2  0  0  0  0
 10 14  1  0  0  0  0
 10 19  1  0  0  0  0
 10 32  1  1  0  0  0
 11 12  2  0  0  0  0
 11 33  1  0  0  0  0
 12 30  1  0  0  0  0
 13 14  1  0  0  0  0
 13 34  1  0  0  0  0
 14 22  2  0  0  0  0
 15 20  1  0  0  0  0
 15 35  1  0  0  0  0
 15 36  1  0  0  0  0
 16 22  1  0  0  0  0
 16 37  1  0  0  0  0
 19 21  1  0  0  0  0
 19 38  1  0  0  0  0
 19 39  1  0  0  0  0
 20 23  1  0  0  0  0
 20 28  2  0  0  0  0
 21 24  2  0  0  0  0
 21 29  1  0  0  0  0
 22 40  1  0  0  0  0
 26 41  1  0  0  0  0
 26 42  1  0  0  0  0
 26 43  1  0  0  0  0
 27 44  1  0  0  0  0
 27 45  1  0  0  0  0
 27 46  1  0  0  0  0
 29 31  1  0  0  0  0
 30 47  1  0  0  0  0
 30 48  1  0  0  0  0
 30 49  1  0  0  0  0
 31 50  1  0  0  0  0
 31 51  1  0  0  0  0
 31 52  1  0  0  0  0
M  CHG  2  23  -1  25  -1
M  END
$$$$
