##########                                Name: HTS1710-02675890-01
##########                    Molecular_Weight:             347.776
##########                DOCK_Rotatable_Bonds:                   7
##########                       Formal_Charge:                  -2
##########                     HBond_Acceptors:                   9
##########                        HBond_Donors:                   1
##########                         Heavy_Atoms:                  22
##########                          Grid_Score:          -75.287567
##########                     Grid_vdw_energy:          -39.545895
##########                      Grid_es_energy:          -35.741669
##########           Internal_energy_repulsive:           16.584177

@<TRIPOS>MOLECULE
HTS1710-02675890-01
 36 36 1 0 0
SMALL
USER_CHARGES


@<TRIPOS>ATOM
      1 S           3.7636  -12.2277  -32.2564 S.O2    1  UNL1        0.0604
      2 C           2.9378  -11.7345  -33.7917 C.ar    1  UNL1        0.1241
      3 N           2.6128  -12.0358  -31.0138 N.3     1  UNL1       -0.1814
      4 C           3.0815  -12.0017  -29.6111 C.3     1  UNL1        0.0682
      5 C           3.5959  -10.8358  -34.6541 C.ar    1  UNL1       -0.0251
      6 C           3.5858  -10.5981  -29.2297 C.2     1  UNL1        0.0603
      7 C           3.0008  -10.4186  -35.8634 C.ar    1  UNL1       -0.0007
      8 C           3.7129   -9.4517  -36.7803 C.2     1  UNL1        0.0717
      9 O           4.1208  -13.6497  -32.2677 O.2     1  UNL1       -0.1530
     10 O           4.7480  -11.1941  -31.9188 O.2     1  UNL1       -0.1530
     11 C           1.6619  -12.2282  -34.1499 C.ar    1  UNL1        0.0673
     12 C           4.2064  -13.0556  -29.3817 C.3     1  UNL1       -0.0284
     13 O           2.8088   -9.6733  -29.3838 O.co2   1  UNL1       -0.5481
     14 O           4.8548   -9.1392  -36.4900 O.co2   1  UNL1       -0.5446
     15 C           1.7263  -10.9172  -36.2018 C.ar    1  UNL1       -0.0514
     16 C           1.0658  -11.8149  -35.3520 C.ar    1  UNL1       -0.0409
     17 O           4.7242  -10.5005  -28.8025 O.co2   1  UNL1       -0.5481
     18 O           3.1022   -9.0446  -37.7541 O.co2   1  UNL1       -0.5446
     19 CL          0.7850  -13.3744  -33.1477 Cl      1  UNL1       -0.0815
     20 C           4.5000  -13.4527  -27.8989 C.3     1  UNL1       -0.0449
     21 C           5.8256  -14.2346  -27.7184 C.3     1  UNL1       -0.0626
     22 C           3.3162  -14.1989  -27.2332 C.3     1  UNL1       -0.0626
     23 H           1.9546  -12.8111  -31.0917 H       1  UNL1        0.1487
     24 H           2.2497  -12.2429  -28.9828 H       1  UNL1        0.0538
     25 H           4.5287  -10.4768  -34.3972 H       1  UNL1        0.0644
     26 H           5.1103  -12.6618  -29.7976 H       1  UNL1        0.0287
     27 H           3.8544  -13.9512  -29.8496 H       1  UNL1        0.0287
     28 H           1.2765  -10.6191  -37.0814 H       1  UNL1        0.0624
     29 H           0.1341  -12.1749  -35.6118 H       1  UNL1        0.0633
     30 H           4.6225  -12.5213  -27.3866 H       1  UNL1        0.0296
     31 H           5.7531  -15.1791  -28.2159 H       1  UNL1        0.0232
     32 H           6.0068  -14.3934  -26.6759 H       1  UNL1        0.0232
     33 H           6.6321  -13.6710  -28.1388 H       1  UNL1        0.0232
     34 H           3.1659  -15.1381  -27.7232 H       1  UNL1        0.0232
     35 H           2.4290  -13.6068  -27.3170 H       1  UNL1        0.0232
     36 H           3.5365  -14.3670  -26.1998 H       1  UNL1        0.0232
@<TRIPOS>BOND
     1     1     2    1
     2     1     3    1
     3     1     9    2
     4     1    10    2
     5     2     5   ar
     6     2    11   ar
     7     3     4    1
     8     4     6    1
     9     4    12    1
    10     5     7   ar
    11     6    13   ar
    12     6    17   ar
    13     7     8    1
    14     7    15   ar
    15     8    14   ar
    16     8    18   ar
    17    11    16   ar
    18    11    19    1
    19    12    20    1
    20    15    16   ar
    21    20    21    1
    22    20    22    1
    23     3    23    1
    24     4    24    1
    25     5    25    1
    26    12    26    1
    27    12    27    1
    28    15    28    1
    29    16    29    1
    30    20    30    1
    31    21    31    1
    32    21    32    1
    33    21    33    1
    34    22    34    1
    35    22    35    1
    36    22    36    1
@<TRIPOS>SUBSTRUCTURE
     1 UNL1        1 TEMP              0 ****  ****    0 ROOT


