##########                                Name: HTS1710-01227480-01
##########                    Molecular_Weight:             370.367
##########                DOCK_Rotatable_Bonds:                   5
##########                       Formal_Charge:                  -2
##########                     HBond_Acceptors:                  12
##########                        HBond_Donors:                   4
##########                         Heavy_Atoms:                  24
##########                          Grid_Score:          -75.379807
##########                     Grid_vdw_energy:          -39.655777
##########                      Grid_es_energy:          -35.724026
##########           Internal_energy_repulsive:           15.193092

@<TRIPOS>MOLECULE
HTS1710-01227480-01
 34 35 1 0 0
SMALL
USER_CHARGES


@<TRIPOS>ATOM
      1 S           4.8592   -8.2945  -30.9896 S.3     1  UNL1       -0.0511
      2 S          -0.6878   -7.2818  -34.5875 S.3     1  UNL1       -0.0511
      3 C           0.3808   -8.6570  -35.0679 C.ar    1  UNL1        0.0785
      4 C           4.5289   -9.4113  -32.3694 C.ar    1  UNL1        0.0785
      5 N           2.7999  -11.9333  -36.2529 N.2     1  UNL1       -0.1474
      6 N           3.8469  -12.1170  -35.5637 N.2     1  UNL1       -0.1474
      7 C           5.0327   -9.1262  -33.6518 C.ar    1  UNL1       -0.0150
      8 C           1.2212   -8.5411  -36.1912 C.ar    1  UNL1       -0.0150
      9 C           2.0012  -10.8315  -35.8639 C.ar    1  UNL1        0.1068
     10 C           4.0651  -11.1983  -34.5098 C.ar    1  UNL1        0.1068
     11 C           2.0306   -9.6198  -36.5896 C.ar    1  UNL1        0.0538
     12 C           4.8031  -10.0116  -34.7210 C.ar    1  UNL1        0.0538
     13 O           6.2322   -7.8383  -31.2340 O.2     1  UNL1       -0.1803
     14 O           3.8200   -7.2691  -31.1222 O.2     1  UNL1       -0.1803
     15 O          -1.9087   -7.9431  -34.1172 O.2     1  UNL1       -0.1803
     16 O          -0.8250   -6.5044  -35.8228 O.2     1  UNL1       -0.1803
     17 O           0.1050   -6.6351  -33.5380 O.co2   1  UNL1       -0.7202
     18 O           4.7022   -9.1839  -29.8347 O.co2   1  UNL1       -0.7202
     19 C           0.3520   -9.8635  -34.3463 C.ar    1  UNL1       -0.0357
     20 C           3.7989  -10.5952  -32.1595 C.ar    1  UNL1       -0.0357
     21 C           1.1611  -10.9408  -34.7395 C.ar    1  UNL1       -0.0310
     22 C           3.5691  -11.4815  -33.2237 C.ar    1  UNL1       -0.0310
     23 N           5.3172   -9.7070  -35.9626 N.pl3   1  UNL1       -0.3562
     24 N           2.8403   -9.4742  -37.6952 N.pl3   1  UNL1       -0.3562
     25 H           5.5742   -8.2619  -33.8093 H       1  UNL1        0.0655
     26 H           1.2435   -7.6587  -36.7259 H       1  UNL1        0.0655
     27 H          -0.2659   -9.9571  -33.5251 H       1  UNL1        0.0637
     28 H           3.4310  -10.8130  -31.2202 H       1  UNL1        0.0637
     29 H           1.1399  -11.8203  -34.2000 H       1  UNL1        0.0640
     30 H           3.0321  -12.3478  -33.0615 H       1  UNL1        0.0640
     31 H           5.8291   -8.8763  -36.0933 H       1  UNL1        0.1424
     32 H           5.1727  -10.3202  -36.7192 H       1  UNL1        0.1424
     33 H           2.8492   -8.6232  -38.1902 H       1  UNL1        0.1424
     34 H           3.4098  -10.2211  -37.9902 H       1  UNL1        0.1424
@<TRIPOS>BOND
     1     2     3    1
     2     3    19   ar
     3     1     4    1
     4     5     6    2
     5     6    10    1
     6     4     7   ar
     7     8    11   ar
     8     5     9    1
     9    10    22   ar
    10     9    11   ar
    11     7    12   ar
    12     1    13    2
    13     1    14    2
    14     2    15    2
    15     2    16    2
    16     2    17    1
    17     1    18    1
    18    19    21   ar
    19     4    20   ar
    20     9    21   ar
    21    20    22   ar
    22    12    23    1
    23    11    24    1
    24    10    12   ar
    25     3     8   ar
    26     7    25    1
    27     8    26    1
    28    19    27    1
    29    20    28    1
    30    21    29    1
    31    22    30    1
    32    23    31    1
    33    23    32    1
    34    24    33    1
    35    24    34    1
@<TRIPOS>SUBSTRUCTURE
     1 UNL1        1 TEMP              0 ****  ****    0 ROOT


