##########                                Name: HTS1710-01432861-01
##########                    Molecular_Weight:             347.327
##########                DOCK_Rotatable_Bonds:                   7
##########                       Formal_Charge:                  -2
##########                     HBond_Acceptors:                   9
##########                        HBond_Donors:                   0
##########                         Heavy_Atoms:                  25
##########                          Grid_Score:          -75.149551
##########                     Grid_vdw_energy:          -42.024769
##########                      Grid_es_energy:          -33.124783
##########           Internal_energy_repulsive:           17.346331

@<TRIPOS>MOLECULE
HTS1710-01432861-01
 42 43 1 0 0
SMALL
USER_CHARGES


@<TRIPOS>ATOM
      1 C           3.6271  -11.6993  -29.7071 C.ar    1  UNL1        0.0188
      2 C           3.9572  -11.3278  -31.1207 C.ar    1  UNL1        0.2551
      3 N           3.5481  -10.0484  -31.5072 N.ar    1  UNL1       -0.3070
      4 C           2.9931  -10.8204  -28.8322 C.ar    1  UNL1       -0.0977
      5 C           4.0167  -13.0859  -29.1460 C.3     1  UNL1        0.0406
      6 C           2.8389  -13.7879  -28.4984 C.ar    1  UNL1        0.0469
      7 C           2.6204   -9.5246  -29.3202 C.ar    1  UNL1       -0.0498
      8 C           2.8997   -9.1762  -30.6243 C.ar    1  UNL1        0.0188
      9 N           1.7057  -14.3556  -29.0649 N.ar    1  UNL1       -0.2708
     10 N           0.8776  -14.9015  -28.1079 N.ar    1  UNL1       -0.1796
     11 C           2.7011  -13.9926  -27.1596 C.ar    1  UNL1       -0.0204
     12 C           3.8213   -9.6262  -32.9138 C.3     1  UNL1        0.0657
     13 O           4.5404  -12.0701  -31.8923 O.2     1  UNL1       -0.2674
     14 C           5.3109  -13.2127  -28.2828 C.3     1  UNL1        0.0573
     15 C           5.2265   -9.0211  -33.0405 C.2     1  UNL1        0.0615
     16 C           5.6182  -14.6598  -27.8692 C.2     1  UNL1        0.3078
     17 C           1.4822  -14.6792  -26.9527 C.ar    1  UNL1        0.0497
     18 O           5.7133   -8.5300  -32.0369 O.co2   1  UNL1       -0.5480
     19 O           5.1476  -15.6327  -28.4360 O.2     1  UNL1       -0.2508
     20 O           2.7146  -11.1088  -27.5417 O.co2   1  UNL1       -0.8733
     21 O           5.7597   -9.0646  -34.1354 O.co2   1  UNL1       -0.5480
     22 O           6.4623  -14.7233  -26.7977 O.3     1  UNL1       -0.4679
     23 C           2.4709   -7.7886  -31.0683 C.3     1  UNL1       -0.0242
     24 C           1.3284  -14.4345  -30.4804 C.3     1  UNL1        0.0305
     25 C           6.9172  -16.0032  -26.3270 C.3     1  UNL1        0.0817
     26 H           4.3058  -13.5974  -30.0402 H       1  UNL1        0.0419
     27 H           2.1441   -8.8544  -28.6964 H       1  UNL1        0.0629
     28 H           3.3666  -13.6995  -26.4273 H       1  UNL1        0.0651
     29 H           3.0972   -8.8950  -33.2070 H       1  UNL1        0.0554
     30 H           3.7609  -10.4865  -33.5470 H       1  UNL1        0.0554
     31 H           5.1893  -12.6237  -27.3978 H       1  UNL1        0.0387
     32 H           6.1292  -12.8706  -28.8814 H       1  UNL1        0.0387
     33 H           1.1164  -14.9661  -26.0313 H       1  UNL1        0.0848
     34 H           1.9965   -7.2839  -30.2528 H       1  UNL1        0.0292
     35 H           1.7840   -7.8717  -31.8846 H       1  UNL1        0.0292
     36 H           3.3301   -7.2326  -31.3805 H       1  UNL1        0.0292
     37 H           2.0813  -13.9632  -31.0770 H       1  UNL1        0.0473
     38 H           0.3927  -13.9369  -30.6284 H       1  UNL1        0.0473
     39 H           1.2360  -15.4610  -30.7682 H       1  UNL1        0.0473
     40 H           7.5659  -15.8645  -25.4875 H       1  UNL1        0.0661
     41 H           7.4487  -16.5028  -27.1097 H       1  UNL1        0.0661
     42 H           6.0755  -16.5949  -26.0333 H       1  UNL1        0.0661
@<TRIPOS>BOND
     1     1     2   ar
     2     2     3   ar
     3     1     4   ar
     4     1     5    1
     5     5     6    1
     6     4     7   ar
     7     7     8   ar
     8     6     9   ar
     9     9    10   ar
    10     6    11   ar
    11     3    12    1
    12     2    13    2
    13     5    14    1
    14    12    15    1
    15    14    16    1
    16    11    17   ar
    17    15    18   ar
    18    16    19    2
    19     4    20    1
    20    15    21   ar
    21    16    22    1
    22     8    23    1
    23     9    24    1
    24    22    25    1
    25     3     8   ar
    26    10    17   ar
    27     5    26    1
    28     7    27    1
    29    11    28    1
    30    12    29    1
    31    12    30    1
    32    14    31    1
    33    14    32    1
    34    17    33    1
    35    23    34    1
    36    23    35    1
    37    23    36    1
    38    24    37    1
    39    24    38    1
    40    24    39    1
    41    25    40    1
    42    25    41    1
    43    25    42    1
@<TRIPOS>SUBSTRUCTURE
     1 UNL1        1 TEMP              0 ****  ****    0 ROOT


