##########                                Name: HTS1710-02004789-01
##########                    Molecular_Weight:             380.357
##########                DOCK_Rotatable_Bonds:                   7
##########                       Formal_Charge:                  -2
##########                     HBond_Acceptors:                   8
##########                        HBond_Donors:                   0
##########                         Heavy_Atoms:                  28
##########                          Grid_Score:          -83.453064
##########                     Grid_vdw_energy:          -43.588367
##########                      Grid_es_energy:          -39.864697
##########           Internal_energy_repulsive:           14.783625

@<TRIPOS>MOLECULE
HTS1710-02004789-01
 44 46 1 0 0
SMALL
USER_CHARGES


@<TRIPOS>ATOM
      1 C           3.8265  -11.6673  -29.6855 C.2     1  UNL1        0.0233
      2 N           4.5402  -11.0222  -31.8289 N.am    1  UNL1       -0.2855
      3 C           4.0230  -10.3319  -29.7287 C.2     1  UNL1       -0.0354
      4 C           4.4735   -9.8811  -31.0529 C.2     1  UNL1        0.2330
      5 C           4.1250  -12.2338  -31.0803 C.3     1  UNL1        0.0968
      6 C           3.3897  -12.5788  -28.5771 C.2     1  UNL1        0.1909
      7 C           4.9581  -11.0963  -33.2394 C.3     1  UNL1        0.0210
      8 C           4.0771  -10.2098  -34.1547 C.3     1  UNL1        0.0027
      9 C           2.9295  -12.9353  -31.7211 C.ar    1  UNL1        0.0662
     10 C           4.8682   -9.2271  -35.0343 C.2     1  UNL1        0.0432
     11 O           4.7393   -8.7444  -31.4050 O.2     1  UNL1       -0.2712
     12 C           4.3706  -13.5560  -28.0019 C.ar    1  UNL1        0.0222
     13 N           2.3412  -12.2957  -32.7550 N.ar    1  UNL1       -0.2577
     14 O           2.2475  -12.5536  -28.1514 O.2     1  UNL1       -0.2869
     15 O           3.8323   -9.4370  -28.7316 O.co2   1  UNL1       -0.8701
     16 O           5.7804   -8.5989  -34.5255 O.co2   1  UNL1       -0.5498
     17 C           3.9354  -14.8031  -27.5159 C.ar    1  UNL1       -0.0475
     18 C           5.7298  -13.2087  -27.8945 C.ar    1  UNL1       -0.0475
     19 C           6.2151  -15.3649  -26.8617 C.ar    1  UNL1        0.1201
     20 O           4.5209   -9.1420  -36.1996 O.co2   1  UNL1       -0.5498
     21 C           6.6519  -14.1075  -27.3329 C.ar    1  UNL1       -0.0193
     22 C           4.8549  -15.7036  -26.9553 C.ar    1  UNL1       -0.0193
     23 O           7.0795  -16.2839  -26.2999 O.3     1  UNL1       -0.4951
     24 C           1.2736  -12.8716  -33.3424 C.ar    1  UNL1        0.0279
     25 C           2.4659  -14.1767  -31.2375 C.ar    1  UNL1       -0.0382
     26 C           6.6469  -17.5598  -25.7963 C.3     1  UNL1        0.0788
     27 C           0.7469  -14.1070  -32.9279 C.ar    1  UNL1       -0.0436
     28 C           1.3556  -14.7731  -31.8541 C.ar    1  UNL1       -0.0586
     29 H           4.8659  -13.0056  -31.0640 H       1  UNL1        0.0617
     30 H           4.8848  -12.1118  -33.5683 H       1  UNL1        0.0468
     31 H           5.9646  -10.7392  -33.3043 H       1  UNL1        0.0468
     32 H           3.4123   -9.6449  -33.5352 H       1  UNL1        0.0340
     33 H           3.5630  -10.8717  -34.8200 H       1  UNL1        0.0340
     34 H           2.9366  -15.0565  -27.5718 H       1  UNL1        0.0626
     35 H           6.0515  -12.2875  -28.2306 H       1  UNL1        0.0626
     36 H           7.6486  -13.8488  -27.2648 H       1  UNL1        0.0654
     37 H           4.5296  -16.6200  -26.6098 H       1  UNL1        0.0654
     38 H           0.8227  -12.3835  -34.1320 H       1  UNL1        0.0829
     39 H           2.9358  -14.6387  -30.4432 H       1  UNL1        0.0636
     40 H           7.4894  -18.0956  -25.4114 H       1  UNL1        0.0660
     41 H           6.1980  -18.1223  -26.5882 H       1  UNL1        0.0660
     42 H           5.9316  -17.4109  -25.0147 H       1  UNL1        0.0660
     43 H          -0.0720  -14.5161  -33.4045 H       1  UNL1        0.0633
     44 H           0.9947  -15.6821  -31.5248 H       1  UNL1        0.0619
@<TRIPOS>BOND
     1     1     3    2
     2     1     5    1
     3     1     6    1
     4     2     4   am
     5     2     5    1
     6     2     7    1
     7     3     4    1
     8     3    15    1
     9     4    11    2
    10     5     9    1
    11     6    12    1
    12     6    14    2
    13     7     8    1
    14     8    10    1
    15     9    13   ar
    16     9    25   ar
    17    10    16   ar
    18    10    20   ar
    19    12    17   ar
    20    12    18   ar
    21    13    24   ar
    22    17    22   ar
    23    18    21   ar
    24    19    21   ar
    25    19    22   ar
    26    19    23    1
    27    23    26    1
    28    24    27   ar
    29    25    28   ar
    30    27    28   ar
    31     5    29    1
    32     7    30    1
    33     7    31    1
    34     8    32    1
    35     8    33    1
    36    17    34    1
    37    18    35    1
    38    21    36    1
    39    22    37    1
    40    24    38    1
    41    25    39    1
    42    26    40    1
    43    26    41    1
    44    26    42    1
    45    27    43    1
    46    28    44    1
@<TRIPOS>SUBSTRUCTURE
     1 UNL1        1 TEMP              0 ****  ****    0 ROOT


