##########                                Name: HTS1710-03595626-01
##########                    Molecular_Weight:             293.233
##########                DOCK_Rotatable_Bonds:                   3
##########                       Formal_Charge:                  -3
##########                     HBond_Acceptors:                   8
##########                        HBond_Donors:                   0
##########                         Heavy_Atoms:                  20
##########                          Grid_Score:          -79.757248
##########                     Grid_vdw_energy:          -28.763462
##########                      Grid_es_energy:          -50.993786
##########           Internal_energy_repulsive:           13.911999

@<TRIPOS>MOLECULE
HTS1710-03595626-01
 25 26 1 0 0
SMALL
USER_CHARGES


@<TRIPOS>ATOM
      1 S           2.2998  -10.1485  -36.4866 S.3     1  UNL1       -0.0506
      2 C           2.8209   -8.7915  -32.5547 C.ar    1  UNL1        0.0016
      3 C           3.0052   -9.6659  -34.8715 C.ar    1  UNL1        0.0843
      4 C           2.2174   -9.1263  -33.8099 C.ar    1  UNL1        0.0072
      5 C           4.2358   -8.9387  -32.4210 C.ar    1  UNL1        0.0057
      6 C           1.9770   -8.3241  -31.4950 C.ar    1  UNL1        0.0057
      7 C           5.0467   -8.4844  -31.2424 C.2     1  UNL1        0.0723
      8 C           2.4187   -8.0858  -30.0803 C.2     1  UNL1        0.0723
      9 C           4.3843   -9.8432  -34.6773 C.ar    1  UNL1       -0.0366
     10 C           4.9855   -9.4727  -33.4777 C.ar    1  UNL1       -0.0505
     11 O           3.3687  -10.9628  -37.0747 O.co2   1  UNL1       -0.7201
     12 O           1.0771  -10.8885  -36.1576 O.2     1  UNL1       -0.1803
     13 O           2.0770   -8.8571  -37.1437 O.2     1  UNL1       -0.1803
     14 O           5.4220   -9.3434  -30.4618 O.co2   1  UNL1       -0.5446
     15 O           2.7191   -9.0666  -29.4193 O.co2   1  UNL1       -0.5446
     16 O           2.5043   -6.9258  -29.7147 O.co2   1  UNL1       -0.5446
     17 O           5.3222   -7.2988  -31.1840 O.co2   1  UNL1       -0.5446
     18 C           0.8294   -8.9164  -33.9883 C.ar    1  UNL1       -0.0522
     19 C           0.6058   -8.1285  -31.7194 C.ar    1  UNL1       -0.0523
     20 C           0.0369   -8.4088  -32.9591 C.ar    1  UNL1       -0.0605
     21 H           4.9580  -10.2523  -35.4314 H       1  UNL1        0.0637
     22 H           6.0041   -9.5938  -33.3643 H       1  UNL1        0.0625
     23 H           0.3955   -9.1430  -34.8968 H       1  UNL1        0.0624
     24 H           0.0108   -7.7721  -30.9552 H       1  UNL1        0.0624
     25 H          -0.9692   -8.2413  -33.1159 H       1  UNL1        0.0618
@<TRIPOS>BOND
     1     2     4   ar
     2     1     3    1
     3     3     4   ar
     4     2     5   ar
     5     2     6   ar
     6     5     7    1
     7     6     8    1
     8     3     9   ar
     9     9    10   ar
    10     1    11    1
    11     1    12    2
    12     1    13    2
    13     7    14   ar
    14     8    15   ar
    15     8    16   ar
    16     7    17   ar
    17     4    18   ar
    18    19    20   ar
    19    18    20   ar
    20     5    10   ar
    21     6    19   ar
    22     9    21    1
    23    10    22    1
    24    18    23    1
    25    19    24    1
    26    20    25    1
@<TRIPOS>SUBSTRUCTURE
     1 UNL1        1 TEMP              0 ****  ****    0 ROOT


