##########                                Name: HTS1710-00540225-01
##########                    Molecular_Weight:             314.338
##########                DOCK_Rotatable_Bonds:                  15
##########                       Formal_Charge:                  -2
##########                     HBond_Acceptors:                   8
##########                        HBond_Donors:                   2
##########                         Heavy_Atoms:                  22
##########                          Grid_Score:          -81.032730
##########                     Grid_vdw_energy:          -39.780003
##########                      Grid_es_energy:          -41.252728
##########           Internal_energy_repulsive:           10.303671

@<TRIPOS>MOLECULE
HTS1710-00540225-01
 44 43 1 0 0
SMALL
USER_CHARGES


@<TRIPOS>ATOM
      1 C           3.2857  -11.2697  -35.5316 C.2     1  UNL1        0.2133
      2 N           3.9473  -10.0539  -35.4335 N.am    1  UNL1       -0.3100
      3 C           1.7897  -11.2633  -35.8757 C.3     1  UNL1        0.0240
      4 O           3.9033  -12.3089  -35.3562 O.2     1  UNL1       -0.2758
      5 C           5.3764   -9.9761  -35.1084 C.3     1  UNL1        0.0512
      6 C           0.8936  -10.7449  -34.7154 C.3     1  UNL1       -0.0448
      7 C           5.7633   -8.5694  -34.6464 C.2     1  UNL1        0.0588
      8 C           1.1907  -11.4318  -33.3547 C.3     1  UNL1       -0.0526
      9 O           6.0503   -7.7608  -35.5118 O.co2   1  UNL1       -0.5482
     10 O           5.7627   -8.3545  -33.4471 O.co2   1  UNL1       -0.5482
     11 C           1.1013  -12.9824  -33.4170 C.3     1  UNL1       -0.0530
     12 C           1.0244  -13.6436  -32.0188 C.3     1  UNL1       -0.0530
     13 C           2.0869  -13.0765  -31.0434 C.3     1  UNL1       -0.0526
     14 C           2.2737  -13.9636  -29.7887 C.3     1  UNL1       -0.0448
     15 C           3.2759  -13.3750  -28.7622 C.3     1  UNL1        0.0240
     16 C           3.0367  -11.8863  -28.4780 C.2     1  UNL1        0.2133
     17 N           3.6273  -10.9506  -29.3154 N.am    1  UNL1       -0.3100
     18 O           2.3290  -11.5204  -27.5547 O.2     1  UNL1       -0.2758
     19 C           3.4655   -9.5022  -29.1362 C.3     1  UNL1        0.0512
     20 C           4.3405   -8.6953  -30.1097 C.2     1  UNL1        0.0588
     21 O           5.4426   -9.1537  -30.3563 O.co2   1  UNL1       -0.5482
     22 O           3.8880   -7.6620  -30.5755 O.co2   1  UNL1       -0.5482
     23 H           3.4446   -9.2214  -35.5861 H       1  UNL1        0.1491
     24 H           1.4919  -12.2629  -36.1142 H       1  UNL1        0.0358
     25 H           1.6573  -10.5952  -36.7010 H       1  UNL1        0.0358
     26 H           5.9464  -10.2266  -35.9787 H       1  UNL1        0.0523
     27 H           5.5807  -10.6620  -34.3131 H       1  UNL1        0.0523
     28 H          -0.1298  -10.9251  -34.9703 H       1  UNL1        0.0270
     29 H           1.1023   -9.7022  -34.5959 H       1  UNL1        0.0270
     30 H           0.4822  -11.0794  -32.6344 H       1  UNL1        0.0265
     31 H           2.1960  -11.1825  -33.0863 H       1  UNL1        0.0265
     32 H           1.9688  -13.3533  -33.9219 H       1  UNL1        0.0265
     33 H           0.1991  -13.2292  -33.9365 H       1  UNL1        0.0265
     34 H           1.1826  -14.6964  -32.1264 H       1  UNL1        0.0265
     35 H           0.0582  -13.4346  -31.6094 H       1  UNL1        0.0265
     36 H           1.7795  -12.1005  -30.7308 H       1  UNL1        0.0265
     37 H           3.0220  -13.0471  -31.5627 H       1  UNL1        0.0265
     38 H           2.6321  -14.9221  -30.1013 H       1  UNL1        0.0270
     39 H           1.3230  -14.0264  -29.3018 H       1  UNL1        0.0270
     40 H           4.2674  -13.4939  -29.1466 H       1  UNL1        0.0358
     41 H           3.1389  -13.9029  -27.8417 H       1  UNL1        0.0358
     42 H           4.1800  -11.2726  -30.0639 H       1  UNL1        0.1491
     43 H           3.7391   -9.2463  -28.1339 H       1  UNL1        0.0523
     44 H           2.4427   -9.2587  -29.3348 H       1  UNL1        0.0523
@<TRIPOS>BOND
     1     1     2   am
     2     1     3    1
     3     1     4    2
     4     2     5    1
     5     3     6    1
     6     5     7    1
     7     6     8    1
     8     7     9   ar
     9     7    10   ar
    10     8    11    1
    11    11    12    1
    12    12    13    1
    13    13    14    1
    14    14    15    1
    15    15    16    1
    16    16    17   am
    17    16    18    2
    18    17    19    1
    19    19    20    1
    20    20    21   ar
    21    20    22   ar
    22     2    23    1
    23     3    24    1
    24     3    25    1
    25     5    26    1
    26     5    27    1
    27     6    28    1
    28     6    29    1
    29     8    30    1
    30     8    31    1
    31    11    32    1
    32    11    33    1
    33    12    34    1
    34    12    35    1
    35    13    36    1
    36    13    37    1
    37    14    38    1
    38    14    39    1
    39    15    40    1
    40    15    41    1
    41    17    42    1
    42    19    43    1
    43    19    44    1
@<TRIPOS>SUBSTRUCTURE
     1 UNL1        1 TEMP              0 ****  ****    0 ROOT


