##########                                Name: HTS1710-00141388-01
##########                    Molecular_Weight:             381.387
##########                DOCK_Rotatable_Bonds:                   5
##########                       Formal_Charge:                  -2
##########                     HBond_Acceptors:                  10
##########                        HBond_Donors:                   0
##########                         Heavy_Atoms:                  25
##########                          Grid_Score:          -76.384575
##########                     Grid_vdw_energy:          -37.526550
##########                      Grid_es_energy:          -38.858025
##########           Internal_energy_repulsive:           10.043487

@<TRIPOS>MOLECULE
HTS1710-00141388-01
 36 38 1 0 0
SMALL
USER_CHARGES


@<TRIPOS>ATOM
      1 S           2.1319  -10.4785  -35.0524 S.O2    1  UNL1        0.0812
      2 N           2.1459   -9.3487  -33.7330 N.pl3   1  UNL1       -0.1951
      3 C           1.1976   -8.3269  -33.5099 C.ar    1  UNL1        0.0932
      4 C           3.3054   -8.5451  -31.6495 C.3     1  UNL1        0.1564
      5 C           3.0633   -9.7187  -32.6252 C.3     1  UNL1        0.0774
      6 C           2.7352  -11.9191  -34.1762 C.ar    1  UNL1        0.1459
      7 O           2.0288   -8.0034  -31.2637 O.3     1  UNL1       -0.4795
      8 C           1.1223   -7.6938  -32.2482 C.ar    1  UNL1        0.1440
      9 C           4.1090   -9.0026  -30.4218 C.2     1  UNL1        0.0836
     10 S           4.4065  -12.4594  -34.2841 S.2     1  UNL1       -0.0767
     11 O           0.7372  -10.6812  -35.4580 O.2     1  UNL1       -0.1493
     12 O           3.1665  -10.0627  -36.0059 O.2     1  UNL1       -0.1493
     13 C           0.2748   -7.9317  -34.5051 C.ar    1  UNL1       -0.0320
     14 C          -3.0938   -7.3010  -35.0574 C.2     1  UNL1        0.0460
     15 C           2.0030  -12.7289  -33.3439 C.ar    1  UNL1       -0.0278
     16 C           4.0840  -13.7747  -33.1596 C.ar    1  UNL1       -0.0224
     17 O           3.7103   -8.6228  -29.3348 O.co2   1  UNL1       -0.5460
     18 C          -0.7281   -6.9842  -34.2342 C.ar    1  UNL1       -0.0399
     19 C           0.1249   -6.7465  -31.9732 C.ar    1  UNL1       -0.0177
     20 C           2.7713  -13.7782  -32.7641 C.ar    1  UNL1       -0.0528
     21 O          -3.2185   -7.9174  -34.0125 O.co2   1  UNL1       -0.5495
     22 C          -1.7415   -6.6266  -35.3162 C.3     1  UNL1        0.0121
     23 O           5.0463   -9.7620  -30.6002 O.co2   1  UNL1       -0.5460
     24 C          -0.8033   -6.3958  -32.9612 C.ar    1  UNL1       -0.0547
     25 O          -3.9493   -7.1883  -35.9177 O.co2   1  UNL1       -0.5495
     26 H           3.8850   -7.7874  -32.1340 H       1  UNL1        0.0813
     27 H           2.6357  -10.5354  -32.0822 H       1  UNL1        0.0523
     28 H           4.0055   -9.9871  -33.0555 H       1  UNL1        0.0523
     29 H           0.3383   -8.3464  -35.4479 H       1  UNL1        0.0640
     30 H           0.9975  -12.5910  -33.1572 H       1  UNL1        0.0643
     31 H           4.7912  -14.4550  -32.8397 H       1  UNL1        0.0694
     32 H           0.0751   -6.3071  -31.0407 H       1  UNL1        0.0655
     33 H           2.3785  -14.4733  -32.1102 H       1  UNL1        0.0623
     34 H          -1.8780   -5.5654  -35.3288 H       1  UNL1        0.0373
     35 H          -1.3668   -6.9713  -36.2573 H       1  UNL1        0.0373
     36 H          -1.5420   -5.7056  -32.7541 H       1  UNL1        0.0622
@<TRIPOS>BOND
     1     1     2    1
     2     2     3    1
     3     4     5    1
     4     2     5    1
     5     1     6    1
     6     4     7    1
     7     3     8   ar
     8     4     9    1
     9     6    10   ar
    10     1    11    2
    11     1    12    2
    12     3    13   ar
    13    14    22    1
    14     6    15   ar
    15    10    16   ar
    16     9    17   ar
    17    13    18   ar
    18     8    19   ar
    19    15    20   ar
    20    14    21   ar
    21    18    22    1
    22     9    23   ar
    23    18    24   ar
    24    14    25   ar
    25    16    20   ar
    26     7     8    1
    27    19    24   ar
    28     4    26    1
    29     5    27    1
    30     5    28    1
    31    13    29    1
    32    15    30    1
    33    16    31    1
    34    19    32    1
    35    20    33    1
    36    22    34    1
    37    22    35    1
    38    24    36    1
@<TRIPOS>SUBSTRUCTURE
     1 UNL1        1 TEMP              0 ****  ****    0 ROOT


