HTS1710-03542680-01
 OpenBabel03232612353D

 38 38  0  0  0  0  0  0  0  0999 V2000
    2.5833  -13.3817  -28.3845 S   0  0  0  0  0  0  0  0  0  0  0  0
    4.1301  -10.8354  -31.2051 C   0  0  0  0  0  0  0  0  0  0  0  0
    4.7199   -9.4676  -31.2012 N   0  0  0  0  0  0  0  0  0  0  0  0
    3.6913  -11.3915  -29.9866 C   0  0  0  0  0  0  0  0  0  0  0  0
    3.1344  -12.6813  -29.9498 C   0  0  0  0  0  0  0  0  0  0  0  0
    4.0107  -11.5856  -32.4023 C   0  0  0  0  0  0  0  0  0  0  0  0
    2.1611  -12.2919  -27.4991 O   0  0  0  0  0  0  0  0  0  0  0  0
    1.7687  -14.5752  -28.6379 O   0  0  0  0  0  0  0  0  0  0  0  0
    5.4298   -9.1614  -30.2468 O   0  5  0  0  0  0  0  0  0  0  0  0
    7.0065  -14.4715  -27.4124 C   0  0  0  0  0  0  0  0  0  0  0  0
    4.5988   -9.7255  -36.0448 C   0  0  0  0  0  0  0  0  0  0  0  0
    4.0255  -13.9514  -27.6881 N   0  0  0  0  0  0  0  0  0  0  0  0
    4.3051   -8.6606  -32.0287 O   0  0  0  0  0  0  0  0  0  0  0  0
    5.1826  -11.1395  -35.9691 C   0  0  0  0  0  0  0  0  0  0  0  0
    5.9142  -15.5483  -27.5245 C   0  0  0  0  0  0  0  0  0  0  0  0
    3.0094  -13.4195  -31.1375 C   0  0  0  0  0  0  0  0  0  0  0  0
    6.6768  -13.3102  -27.5826 O   0  5  0  0  0  0  0  0  0  0  0  0
    3.5481   -9.5862  -36.6450 O   0  5  0  0  0  0  0  0  0  0  0  0
    3.4502  -12.8783  -32.3536 C   0  0  0  0  0  0  0  0  0  0  0  0
    4.4812  -11.0891  -33.6036 N   0  0  0  0  0  0  0  0  0  0  0  0
    4.6831  -15.0921  -28.3434 C   0  0  0  0  0  0  0  0  0  0  0  0
    4.5619  -11.9380  -34.8044 C   0  0  0  0  0  0  0  0  0  0  0  0
    5.2141   -8.8392  -35.4777 O   0  0  0  0  0  0  0  0  0  0  0  0
    8.1318  -14.8525  -27.1430 O   0  0  0  0  0  0  0  0  0  0  0  0
    4.6608   -8.9258  -32.0211 H   0  0  0  0  0  0  0  0  0  0  0  0
    3.7798  -10.8472  -29.1143 H   0  0  0  0  0  0  0  0  0  0  0  0
    3.8151  -14.2279  -26.7291 H   0  0  0  0  0  0  0  0  0  0  0  0
    6.2404  -11.0729  -35.8219 H   0  0  0  0  0  0  0  0  0  0  0  0
    4.9602  -11.6473  -36.8843 H   0  0  0  0  0  0  0  0  0  0  0  0
    5.5890  -15.8054  -26.5380 H   0  0  0  0  0  0  0  0  0  0  0  0
    6.3443  -16.3821  -28.0388 H   0  0  0  0  0  0  0  0  0  0  0  0
    2.5919  -14.3630  -31.1154 H   0  0  0  0  0  0  0  0  0  0  0  0
    3.3635  -13.4312  -33.2207 H   0  0  0  0  0  0  0  0  0  0  0  0
    4.7681  -10.1488  -33.6575 H   0  0  0  0  0  0  0  0  0  0  0  0
    3.9894  -15.9033  -28.4187 H   0  0  0  0  0  0  0  0  0  0  0  0
    5.0063  -14.7931  -29.3186 H   0  0  0  0  0  0  0  0  0  0  0  0
    5.1713  -12.7922  -34.5950 H   0  0  0  0  0  0  0  0  0  0  0  0
    3.5777  -12.2553  -35.0792 H   0  0  0  0  0  0  0  0  0  0  0  0
  1  5  1  0  0  0  0
  1  7  2  0  0  0  0
  1  8  2  0  0  0  0
  1 12  1  0  0  0  0
  2  4  2  0  0  0  0
  2  3  1  0  0  0  0
  2  6  1  0  0  0  0
  3  9  1  0  0  0  0
  3 13  2  0  0  0  0
  3 25  1  0  0  0  0
  4  5  1  0  0  0  0
  4 26  1  0  0  0  0
  5 16  2  0  0  0  0
  6 19  2  0  0  0  0
  6 20  1  0  0  0  0
 10 15  1  0  0  0  0
 10 17  1  0  0  0  0
 10 24  2  0  0  0  0
 11 14  1  0  0  0  0
 11 18  1  0  0  0  0
 11 23  2  0  0  0  0
 12 21  1  0  0  0  0
 12 27  1  0  0  0  0
 14 22  1  0  0  0  0
 14 28  1  0  0  0  0
 14 29  1  0  0  0  0
 15 21  1  0  0  0  0
 15 30  1  0  0  0  0
 15 31  1  0  0  0  0
 16 19  1  0  0  0  0
 16 32  1  0  0  0  0
 19 33  1  0  0  0  0
 20 22  1  0  0  0  0
 20 34  1  0  0  0  0
 21 35  1  0  0  0  0
 21 36  1  0  0  0  0
 22 37  1  0  0  0  0
 22 38  1  0  0  0  0
M  CHG  3   9  -1  17  -1  18  -1
M  END
$$$$
