HTS1710-01823105-01
 OpenBabel03232612353D

 25 26  0  0  0  0  0  0  0  0999 V2000
    2.8004   -8.9053  -30.7885 C   0  0  0  0  0  0  0  0  0  0  0  0
    3.1547   -9.1474  -32.1307 C   0  0  0  0  0  0  0  0  0  0  0  0
    1.4697   -8.4315  -30.7539 N   0  0  0  0  0  0  0  0  0  0  0  0
    1.0169   -8.3863  -32.0484 C   0  0  0  0  0  0  0  0  0  0  0  0
    1.9854   -8.7993  -32.9046 C   0  0  0  0  0  0  0  0  0  0  0  0
    3.5981   -9.0851  -29.5444 C   0  0  0  0  0  0  0  0  0  0  0  0
   -1.8886   -7.6161  -34.3879 C   0  0  0  0  0  0  0  0  0  0  0  0
   -0.2552   -7.9906  -32.4763 C   0  0  0  0  0  0  0  0  0  0  0  0
   -0.5292   -8.0244  -33.8660 C   0  0  0  0  0  0  0  0  0  0  0  0
    4.4831   -9.6825  -32.6252 C   0  0  0  0  0  0  0  0  0  0  0  0
    1.7604   -8.8434  -34.2842 C   0  0  0  0  0  0  0  0  0  0  0  0
    5.5518   -8.6183  -32.9199 C   0  0  0  0  0  0  0  0  0  0  0  0
    0.4920   -8.4512  -34.7612 C   0  0  0  0  0  0  0  0  0  0  0  0
    4.6011   -9.7739  -29.6221 O   0  5  0  0  0  0  0  0  0  0  0  0
   -2.0293   -7.5438  -35.5975 O   0  5  0  0  0  0  0  0  0  0  0  0
    5.8408   -8.4008  -34.0847 O   0  5  0  0  0  0  0  0  0  0  0  0
    3.2183   -8.5442  -28.5203 O   0  0  0  0  0  0  0  0  0  0  0  0
   -2.7603   -7.3863  -33.5673 O   0  0  0  0  0  0  0  0  0  0  0  0
    6.0505   -8.0624  -31.9559 O   0  0  0  0  0  0  0  0  0  0  0  0
    0.9611   -8.1802  -29.9493 H   0  0  0  0  0  0  0  0  0  0  0  0
   -0.9720   -7.6835  -31.8004 H   0  0  0  0  0  0  0  0  0  0  0  0
    4.3038  -10.2295  -33.5273 H   0  0  0  0  0  0  0  0  0  0  0  0
    4.8745  -10.2824  -31.8304 H   0  0  0  0  0  0  0  0  0  0  0  0
    2.5000   -9.1536  -34.9337 H   0  0  0  0  0  0  0  0  0  0  0  0
    0.3014   -8.4739  -35.7752 H   0  0  0  0  0  0  0  0  0  0  0  0
  1  2  2  0  0  0  0
  1  3  1  0  0  0  0
  1  6  1  0  0  0  0
  2  5  1  0  0  0  0
  2 10  1  0  0  0  0
  3  4  1  0  0  0  0
  3 20  1  0  0  0  0
  4  5  2  0  0  0  0
  4  8  1  0  0  0  0
  5 11  1  0  0  0  0
  6 14  1  0  0  0  0
  6 17  2  0  0  0  0
  7  9  1  0  0  0  0
  7 15  1  0  0  0  0
  7 18  2  0  0  0  0
  8  9  2  0  0  0  0
  8 21  1  0  0  0  0
  9 13  1  0  0  0  0
 10 12  1  0  0  0  0
 10 22  1  0  0  0  0
 10 23  1  0  0  0  0
 11 13  2  0  0  0  0
 11 24  1  0  0  0  0
 12 16  1  0  0  0  0
 12 19  2  0  0  0  0
 13 25  1  0  0  0  0
M  CHG  3  14  -1  15  -1  16  -1
M  END
$$$$
