HTS1710-00479442-01
 OpenBabel03232612343D

 47 48  0  0  0  0  0  0  0  0999 V2000
    2.0142  -11.7837  -32.5194 C   0  0  0  0  0  0  0  0  0  0  0  0
    2.3013  -10.6037  -33.2489 C   0  0  0  0  0  0  0  0  0  0  0  0
    2.3670  -11.8757  -31.1448 C   0  0  0  0  0  0  0  0  0  0  0  0
    1.3756  -12.8765  -33.1503 C   0  0  0  0  0  0  0  0  0  0  0  0
    1.9566  -10.4689  -34.5939 N   0  0  0  0  0  0  0  0  0  0  0  0
    2.9364   -9.5320  -32.6057 C   0  0  0  0  0  0  0  0  0  0  0  0
    3.0100  -10.7778  -30.5060 C   0  0  0  0  0  0  0  0  0  0  0  0
    2.0623  -13.0699  -30.4463 C   0  0  0  0  0  0  0  0  0  0  0  0
    1.0852  -14.0466  -32.4386 C   0  0  0  0  0  0  0  0  0  0  0  0
    0.5957  -10.0687  -34.9898 C   0  0  0  0  0  0  0  0  0  0  0  0
    2.8886  -10.8593  -35.6716 C   0  0  0  0  0  0  0  0  0  0  0  0
    3.2870   -9.6160  -31.2554 C   0  0  0  0  0  0  0  0  0  0  0  0
    3.4866  -10.8107  -28.7457 S   0  0  0  0  0  0  0  0  0  0  0  0
    1.4287  -14.1417  -31.0883 C   0  0  0  0  0  0  0  0  0  0  0  0
    0.5505   -8.5724  -35.3661 C   0  0  0  0  0  0  0  0  0  0  0  0
    3.8149   -9.6961  -36.0330 C   0  0  0  0  0  0  0  0  0  0  0  0
    2.2330  -11.1819  -28.0803 O   0  0  0  0  0  1  0  0  0  0  0  0
    3.9568   -9.4524  -28.4591 O   0  0  0  0  0  0  0  0  0  0  0  0
    4.5289  -11.8432  -28.7132 O   0  0  0  0  0  0  0  0  0  0  0  0
   -0.7783   -7.9772  -35.1020 N   0  3  0  0  0  0  0  0  0  0  0  0
    3.6332   -9.1527  -37.1077 O   0  5  0  0  0  0  0  0  0  0  0  0
    4.6686   -9.3923  -35.2190 O   0  0  0  0  0  0  0  0  0  0  0  0
   -0.9500   -6.8365  -36.0246 C   0  0  0  0  0  0  0  0  0  0  0  0
   -0.9607   -7.5660  -33.6858 C   0  0  0  0  0  0  0  0  0  0  0  0
   -2.3687   -6.2860  -35.9446 C   0  0  0  0  0  0  0  0  0  0  0  0
    0.0814   -6.5480  -33.2108 C   0  0  0  0  0  0  0  0  0  0  0  0
   -3.2781   -7.0943  -35.9039 O   0  5  0  0  0  0  0  0  0  0  0  0
   -2.4871   -5.0749  -35.9208 O   0  0  0  0  0  0  0  0  0  0  0  0
    1.0735   -6.9821  -32.6558 O   0  5  0  0  0  0  0  0  0  0  0  0
   -0.1516   -5.3725  -33.4321 O   0  0  0  0  0  0  0  0  0  0  0  0
    1.1204  -12.8106  -34.1480 H   0  0  0  0  0  0  0  0  0  0  0  0
    3.1473   -8.6716  -33.1351 H   0  0  0  0  0  0  0  0  0  0  0  0
    2.3111  -13.1515  -29.4481 H   0  0  0  0  0  0  0  0  0  0  0  0
    0.6185  -14.8368  -32.9106 H   0  0  0  0  0  0  0  0  0  0  0  0
   -0.0731  -10.2452  -34.1735 H   0  0  0  0  0  0  0  0  0  0  0  0
    0.3036  -10.6453  -35.8427 H   0  0  0  0  0  0  0  0  0  0  0  0
    2.3264  -11.1426  -36.5368 H   0  0  0  0  0  0  0  0  0  0  0  0
    3.4842  -11.6803  -35.3308 H   0  0  0  0  0  0  0  0  0  0  0  0
    3.7550   -8.8167  -30.8004 H   0  0  0  0  0  0  0  0  0  0  0  0
    1.2153  -15.0036  -30.5623 H   0  0  0  0  0  0  0  0  0  0  0  0
    0.7745   -8.4706  -36.4075 H   0  0  0  0  0  0  0  0  0  0  0  0
    1.2702   -8.0573  -34.7648 H   0  0  0  0  0  0  0  0  0  0  0  0
   -1.4968   -8.6824  -35.2656 H   0  0  0  0  0  0  0  0  0  0  0  0
   -0.7557   -7.1620  -37.0252 H   0  0  0  0  0  0  0  0  0  0  0  0
   -0.2653   -6.0630  -35.7455 H   0  0  0  0  0  0  0  0  0  0  0  0
   -0.8912   -8.4367  -33.0678 H   0  0  0  0  0  0  0  0  0  0  0  0
   -1.9190   -7.0955  -33.6135 H   0  0  0  0  0  0  0  0  0  0  0  0
  1  2  2  0  0  0  0
  1  3  1  0  0  0  0
  1  4  1  0  0  0  0
  2  5  1  0  0  0  0
  2  6  1  0  0  0  0
  3  7  2  0  0  0  0
  3  8  1  0  0  0  0
  4  9  2  0  0  0  0
  4 31  1  0  0  0  0
  5 10  1  0  0  0  0
  5 11  1  0  0  0  0
  6 12  2  0  0  0  0
  6 32  1  0  0  0  0
  7 13  1  0  0  0  0
  7 12  1  0  0  0  0
  8 14  2  0  0  0  0
  8 33  1  0  0  0  0
  9 14  1  0  0  0  0
  9 34  1  0  0  0  0
 10 15  1  0  0  0  0
 10 35  1  0  0  0  0
 10 36  1  0  0  0  0
 11 16  1  0  0  0  0
 11 37  1  0  0  0  0
 11 38  1  0  0  0  0
 12 39  1  0  0  0  0
 13 17  1  0  0  0  0
 13 18  2  0  0  0  0
 13 19  2  0  0  0  0
 14 40  1  0  0  0  0
 15 20  1  0  0  0  0
 15 41  1  0  0  0  0
 15 42  1  0  0  0  0
 16 21  1  0  0  0  0
 16 22  2  0  0  0  0
 20 23  1  0  0  0  0
 20 24  1  0  0  0  0
 20 43  1  0  0  0  0
 23 25  1  0  0  0  0
 23 44  1  0  0  0  0
 23 45  1  0  0  0  0
 24 26  1  0  0  0  0
 24 46  1  0  0  0  0
 24 47  1  0  0  0  0
 25 27  1  0  0  0  0
 25 28  2  0  0  0  0
 26 29  1  0  0  0  0
 26 30  2  0  0  0  0
M  CHG  4  20   1  21  -1  27  -1  29  -1
M  END
$$$$
