##########                                Name: HTS1710-01458458-01
##########                    Molecular_Weight:             395.328
##########                DOCK_Rotatable_Bonds:                   8
##########                       Formal_Charge:                  -2
##########                     HBond_Acceptors:                  10
##########                        HBond_Donors:                   0
##########                         Heavy_Atoms:                  29
##########                          Grid_Score:          -75.345726
##########                     Grid_vdw_energy:          -44.243706
##########                      Grid_es_energy:          -31.102022
##########           Internal_energy_repulsive:            7.187498

@<TRIPOS>MOLECULE
HTS1710-01458458-01
 42 44 1 0 0
SMALL
USER_CHARGES


@<TRIPOS>ATOM
      1 C           2.7948  -11.1389  -29.3906 C.ar    1  UNL1        0.3322
      2 C           2.6603  -12.7702  -30.9964 C.ar    1  UNL1        0.3322
      3 N           2.6269  -11.4550  -30.6933 N.ar    1  UNL1       -0.1404
      4 N           2.9783  -12.0539  -28.4104 N.ar    1  UNL1       -0.1408
      5 N           2.8355  -13.7494  -30.0794 N.ar    1  UNL1       -0.1408
      6 C           2.9966  -13.3462  -28.7976 C.ar    1  UNL1        0.3267
      7 C           3.3852   -9.6247  -36.7527 C.2     1  UNL1        0.0717
      8 C           4.9062   -5.5568  -32.2184 C.2     1  UNL1        0.0717
      9 O           2.7319   -9.8001  -29.0574 O.3     1  UNL1       -0.4234
     10 O           2.4586  -13.1194  -32.3169 O.3     1  UNL1       -0.4234
     11 C           3.1454  -10.5503  -35.5788 C.ar    1  UNL1       -0.0025
     12 C           4.3365   -6.6841  -31.3846 C.ar    1  UNL1       -0.0025
     13 O           4.5011   -9.1525  -36.8798 O.co2   1  UNL1       -0.5446
     14 O           5.9884   -5.7383  -32.7471 O.co2   1  UNL1       -0.5446
     15 C           4.2211  -10.9859  -34.7734 C.ar    1  UNL1       -0.0494
     16 C           3.0486   -6.5766  -30.8149 C.ar    1  UNL1       -0.0494
     17 C           5.0795   -7.8644  -31.1629 C.ar    1  UNL1       -0.0494
     18 C           1.8405  -10.9901  -35.2626 C.ar    1  UNL1       -0.0494
     19 O           3.1909  -14.2936  -27.8139 O.3     1  UNL1       -0.4625
     20 C           3.2736   -8.7810  -29.8120 C.ar    1  UNL1        0.1319
     21 C           2.6980  -12.2854  -33.3894 C.ar    1  UNL1        0.1319
     22 O           2.4462   -9.4073  -37.4996 O.co2   1  UNL1       -0.5446
     23 O           4.2471   -4.5349  -32.3084 O.co2   1  UNL1       -0.5446
     24 C           1.6198  -11.8480  -34.1728 C.ar    1  UNL1       -0.0186
     25 C           3.9992  -11.8442  -33.6843 C.ar    1  UNL1       -0.0186
     26 C           2.5208   -7.6191  -30.0380 C.ar    1  UNL1       -0.0186
     27 C           4.5507   -8.9085  -30.3848 C.ar    1  UNL1       -0.0186
     28 C           4.3242  -15.1842  -27.8176 C.3     1  UNL1        0.0899
     29 C           5.6025  -14.3338  -27.7037 C.3     1  UNL1       -0.0306
     30 H           5.1800  -10.6702  -34.9876 H       1  UNL1        0.0625
     31 H           2.4904   -5.7229  -30.9714 H       1  UNL1        0.0625
     32 H           6.0201   -7.9613  -31.5764 H       1  UNL1        0.0625
     33 H           1.0424  -10.6781  -35.8377 H       1  UNL1        0.0625
     34 H           0.6614  -12.1575  -33.9477 H       1  UNL1        0.0654
     35 H           4.7925  -12.1513  -33.0999 H       1  UNL1        0.0654
     36 H           1.5762   -7.5308  -29.6318 H       1  UNL1        0.0654
     37 H           5.1002   -9.7690  -30.2340 H       1  UNL1        0.0654
     38 H           4.3417  -15.7448  -28.7289 H       1  UNL1        0.0695
     39 H           4.2601  -15.8682  -26.9973 H       1  UNL1        0.0695
     40 H           5.6540  -13.6549  -28.5292 H       1  UNL1        0.0262
     41 H           6.4593  -14.9746  -27.7149 H       1  UNL1        0.0262
     42 H           5.5826  -13.7809  -26.7879 H       1  UNL1        0.0262
@<TRIPOS>BOND
     1     2     3   ar
     2     1     3   ar
     3     1     4   ar
     4     5     6   ar
     5     4     6   ar
     6     7    11    1
     7     8    12    1
     8     1     9    1
     9     2    10    1
    10    11    15   ar
    11    12    17   ar
    12     7    13   ar
    13     8    14   ar
    14    15    25   ar
    15    16    26   ar
    16    17    27   ar
    17    18    24   ar
    18     6    19    1
    19     9    20    1
    20    10    21    1
    21     7    22   ar
    22     8    23   ar
    23    21    24   ar
    24    21    25   ar
    25    20    26   ar
    26    20    27   ar
    27    19    28    1
    28    28    29    1
    29     2     5   ar
    30    12    16   ar
    31    11    18   ar
    32    15    30    1
    33    16    31    1
    34    17    32    1
    35    18    33    1
    36    24    34    1
    37    25    35    1
    38    26    36    1
    39    27    37    1
    40    28    38    1
    41    28    39    1
    42    29    40    1
    43    29    41    1
    44    29    42    1
@<TRIPOS>SUBSTRUCTURE
     1 UNL1        1 TEMP              0 ****  ****    0 ROOT


