HTS1710-01262603-01
 OpenBabel03232612353D

 45 47  0  0  1  0  0  0  0  0999 V2000
    3.6234  -10.7869  -35.2553 C   0  0  1  0  0  0  0  0  0  0  0  0
    4.6674  -12.5196  -34.0492 N   0  0  0  0  0  0  0  0  0  0  0  0
    4.5122  -11.9398  -35.3396 O   0  0  0  0  0  0  0  0  0  0  0  0
    2.2611  -11.1919  -35.9232 C   0  0  0  0  0  0  0  0  0  0  0  0
    3.5052  -10.5073  -33.7361 C   0  0  0  0  0  0  0  0  0  0  0  0
    4.1020  -11.7662  -33.1763 C   0  0  0  0  0  0  0  0  0  0  0  0
    4.2531   -9.5812  -35.9957 C   0  0  0  0  0  0  0  0  0  0  0  0
    1.1076  -10.2043  -35.6784 C   0  0  0  0  0  0  0  0  0  0  0  0
   -1.2299   -4.8677  -37.6429 C   0  0  0  0  0  0  0  0  0  0  0  0
   -0.8777   -5.8623  -36.5568 C   0  0  0  0  0  0  0  0  0  0  0  0
    1.3115   -8.8573  -35.9583 N   0  0  0  0  0  0  0  0  0  0  0  0
    3.9336  -12.1806  -31.7501 C   0  0  0  0  0  0  0  0  0  0  0  0
    0.0289   -6.9166  -36.8078 C   0  0  0  0  0  0  0  0  0  0  0  0
    0.3723   -7.8408  -35.7919 C   0  0  0  0  0  0  0  0  0  0  0  0
    4.9792   -8.8470  -35.3471 O   0  5  0  0  0  0  0  0  0  0  0  0
    0.0468  -10.5817  -35.2099 O   0  0  0  0  0  0  0  0  0  0  0  0
   -0.5204   -4.8382  -38.6329 O   0  5  0  0  0  0  0  0  0  0  0  0
    4.0649  -11.2457  -30.7030 C   0  0  0  0  0  0  0  0  0  0  0  0
    3.5973  -13.5131  -31.4271 C   0  0  0  0  0  0  0  0  0  0  0  0
    3.9877   -9.4331  -37.1774 O   0  0  0  0  0  0  0  0  0  0  0  0
   -2.2042   -4.1556  -37.4628 O   0  0  0  0  0  0  0  0  0  0  0  0
    3.5106  -12.9586  -29.0582 C   0  0  0  0  0  0  0  0  0  0  0  0
    3.3894  -13.8966  -30.0931 C   0  0  0  0  0  0  0  0  0  0  0  0
    3.8548  -11.6271  -29.3676 C   0  0  0  0  0  0  0  0  0  0  0  0
    3.2792  -13.3797  -27.7628 O   0  0  0  0  0  0  0  0  0  0  0  0
   -1.4356   -5.7403  -35.2665 C   0  0  0  0  0  0  0  0  0  0  0  0
   -1.0871   -6.6427  -34.2529 C   0  0  0  0  0  0  0  0  0  0  0  0
   -0.1830   -7.6814  -34.5128 C   0  0  0  0  0  0  0  0  0  0  0  0
    3.0205  -14.7534  -27.4279 C   0  0  0  0  0  0  0  0  0  0  0  0
    1.9707  -12.1463  -35.5363 H   0  0  0  0  0  0  0  0  0  0  0  0
    2.4328  -11.2009  -36.9793 H   0  0  0  0  0  0  0  0  0  0  0  0
    2.4855  -10.3864  -33.4353 H   0  0  0  0  0  0  0  0  0  0  0  0
    3.9819   -9.6062  -33.4112 H   0  0  0  0  0  0  0  0  0  0  0  0
    2.1964   -8.5992  -36.3041 H   0  0  0  0  0  0  0  0  0  0  0  0
    0.4472   -7.0145  -37.7462 H   0  0  0  0  0  0  0  0  0  0  0  0
    4.3184  -10.2693  -30.9203 H   0  0  0  0  0  0  0  0  0  0  0  0
    3.5034  -14.2128  -32.1799 H   0  0  0  0  0  0  0  0  0  0  0  0
    3.1459  -14.8749  -29.8726 H   0  0  0  0  0  0  0  0  0  0  0  0
    3.9526  -10.9314  -28.6117 H   0  0  0  0  0  0  0  0  0  0  0  0
   -2.1054   -4.9807  -35.0679 H   0  0  0  0  0  0  0  0  0  0  0  0
   -1.4976   -6.5420  -33.3114 H   0  0  0  0  0  0  0  0  0  0  0  0
    0.0766   -8.3347  -33.7573 H   0  0  0  0  0  0  0  0  0  0  0  0
    2.8721  -14.8412  -26.3719 H   0  0  0  0  0  0  0  0  0  0  0  0
    3.8546  -15.3555  -27.7221 H   0  0  0  0  0  0  0  0  0  0  0  0
    2.1421  -15.0861  -27.9404 H   0  0  0  0  0  0  0  0  0  0  0  0
  1  3  1  0  0  0  0
  1  4  1  0  0  0  0
  1  5  1  0  0  0  0
  1  7  1  6  0  0  0
  2  3  1  0  0  0  0
  2  6  2  0  0  0  0
  4  8  1  0  0  0  0
  4 30  1  0  0  0  0
  4 31  1  0  0  0  0
  5  6  1  0  0  0  0
  5 32  1  0  0  0  0
  5 33  1  0  0  0  0
  6 12  1  0  0  0  0
  7 15  1  0  0  0  0
  7 20  2  0  0  0  0
  8 11  1  0  0  0  0
  8 16  2  0  0  0  0
  9 10  1  0  0  0  0
  9 17  1  0  0  0  0
  9 21  2  0  0  0  0
 10 13  2  0  0  0  0
 10 26  1  0  0  0  0
 11 14  1  0  0  0  0
 11 34  1  0  0  0  0
 12 18  2  0  0  0  0
 12 19  1  0  0  0  0
 13 14  1  0  0  0  0
 13 35  1  0  0  0  0
 14 28  2  0  0  0  0
 18 24  1  0  0  0  0
 18 36  1  0  0  0  0
 19 23  2  0  0  0  0
 19 37  1  0  0  0  0
 22 23  1  0  0  0  0
 22 25  1  0  0  0  0
 22 24  2  0  0  0  0
 23 38  1  0  0  0  0
 24 39  1  0  0  0  0
 25 29  1  0  0  0  0
 26 27  2  0  0  0  0
 26 40  1  0  0  0  0
 27 28  1  0  0  0  0
 27 41  1  0  0  0  0
 28 42  1  0  0  0  0
 29 43  1  0  0  0  0
 29 44  1  0  0  0  0
 29 45  1  0  0  0  0
M  CHG  2  15  -1  17  -1
M  END
$$$$
