##########                                Name: HTS1710-04414837-01
##########                    Molecular_Weight:             365.387
##########                DOCK_Rotatable_Bonds:                   7
##########                       Formal_Charge:                  -2
##########                     HBond_Acceptors:                   9
##########                        HBond_Donors:                   1
##########                         Heavy_Atoms:                  25
##########                          Grid_Score:          -81.707672
##########                     Grid_vdw_energy:          -43.232105
##########                      Grid_es_energy:          -38.475571
##########           Internal_energy_repulsive:           17.715340

@<TRIPOS>MOLECULE
HTS1710-04414837-01
 42 43 1 0 0
SMALL
USER_CHARGES


@<TRIPOS>ATOM
      1 C           5.7654   -8.3144  -33.0950 C.2     1  UNL1       -0.0144
      2 S           2.8780  -13.4868  -29.7497 S.O2    1  UNL1        0.0403
      3 C           6.1043   -7.6414  -34.2522 C.2     1  UNL1       -0.1120
      4 C           5.3302   -9.4750  -34.9267 C.2     1  UNL1       -0.0998
      5 C           2.7057  -11.2312  -34.7960 C.2     1  UNL1        0.2467
      6 O           5.8563   -8.3136  -35.4218 O.co2   1  UNL1       -0.7845
      7 C           5.2458   -9.5500  -33.5620 C.2     1  UNL1       -0.0630
      8 C           5.8865   -7.9002  -31.6762 C.2     1  UNL1        0.0708
      9 N           4.0142  -11.5501  -35.1809 N.am    1  UNL1       -0.2974
     10 C           1.9112  -12.3051  -34.1089 C.ar    1  UNL1        0.0387
     11 N           1.7899  -14.1396  -30.8818 N.pl3   1  UNL1       -0.2209
     12 C           4.8751  -10.5625  -35.8625 C.3     1  UNL1        0.0269
     13 O           2.8392  -14.3671  -28.5939 O.2     1  UNL1       -0.1555
     14 O           2.5699  -12.0689  -29.6605 O.2     1  UNL1       -0.1555
     15 C           2.2362  -12.7124  -32.8014 C.ar    1  UNL1       -0.0272
     16 O           2.2121  -10.1348  -34.9969 O.2     1  UNL1       -0.2700
     17 C           1.4822  -13.7139  -32.1577 C.ar    1  UNL1        0.0484
     18 O           6.3109   -6.7862  -31.4294 O.co2   1  UNL1       -0.5447
     19 C           4.4906  -13.6674  -30.5465 C.3     1  UNL1        0.0736
     20 O           5.5491   -8.7127  -30.8330 O.co2   1  UNL1       -0.5447
     21 C           6.7039   -6.2592  -34.3207 C.3     1  UNL1       -0.0524
     22 C           0.8064  -12.8809  -34.7609 C.ar    1  UNL1       -0.0495
     23 C           4.6013  -12.8978  -35.0323 C.3     1  UNL1        0.0038
     24 C           0.0508  -13.8766  -34.1229 C.ar    1  UNL1       -0.0593
     25 C           0.3905  -14.2949  -32.8264 C.ar    1  UNL1       -0.0393
     26 H           4.8835  -10.3336  -32.9966 H       1  UNL1        0.0615
     27 H           1.3063  -14.9428  -30.5813 H       1  UNL1        0.1733
     28 H           4.3245  -10.1196  -36.6660 H       1  UNL1        0.0502
     29 H           5.7428  -11.0728  -36.2250 H       1  UNL1        0.0502
     30 H           3.0317  -12.2747  -32.3110 H       1  UNL1        0.0644
     31 H           4.7368  -14.7059  -30.6220 H       1  UNL1        0.0482
     32 H           5.2346  -13.1659  -29.9636 H       1  UNL1        0.0482
     33 H           4.4548  -13.2372  -31.5255 H       1  UNL1        0.0482
     34 H           6.8332   -5.8769  -33.3298 H       1  UNL1        0.0266
     35 H           6.0504   -5.6137  -34.8696 H       1  UNL1        0.0266
     36 H           7.6536   -6.3063  -34.8116 H       1  UNL1        0.0266
     37 H           0.5505  -12.5704  -35.7112 H       1  UNL1        0.0625
     38 H           3.9053  -13.5366  -34.5298 H       1  UNL1        0.0429
     39 H           5.5032  -12.8329  -34.4603 H       1  UNL1        0.0429
     40 H           4.8204  -13.3000  -35.9993 H       1  UNL1        0.0429
     41 H          -0.7553  -14.3017  -34.6071 H       1  UNL1        0.0618
     42 H          -0.1634  -15.0318  -32.3625 H       1  UNL1        0.0636
@<TRIPOS>BOND
     1     2    11    1
     2     1     3    2
     3     4     7    2
     4     5     9   am
     5     3     6    1
     6     1     7    1
     7     1     8    1
     8     9    12    1
     9     5    10    1
    10    11    17    1
    11     4    12    1
    12     2    13    2
    13     2    14    2
    14    10    15   ar
    15     5    16    2
    16    15    17   ar
    17     8    18   ar
    18     2    19    1
    19     8    20   ar
    20     3    21    1
    21    10    22   ar
    22     9    23    1
    23    22    24   ar
    24    17    25   ar
    25     4     6    1
    26    24    25   ar
    27     7    26    1
    28    11    27    1
    29    12    28    1
    30    12    29    1
    31    15    30    1
    32    19    31    1
    33    19    32    1
    34    19    33    1
    35    21    34    1
    36    21    35    1
    37    21    36    1
    38    22    37    1
    39    23    38    1
    40    23    39    1
    41    23    40    1
    42    24    41    1
    43    25    42    1
@<TRIPOS>SUBSTRUCTURE
     1 UNL1        1 TEMP              0 ****  ****    0 ROOT


