##########                                Name: HTS1710-02794540-01
##########                    Molecular_Weight:             369.316
##########                DOCK_Rotatable_Bonds:                   7
##########                       Formal_Charge:                  -1
##########                     HBond_Acceptors:                  11
##########                        HBond_Donors:                   2
##########                         Heavy_Atoms:                  27
##########                          Grid_Score:          -77.170715
##########                     Grid_vdw_energy:          -44.698654
##########                      Grid_es_energy:          -32.472057
##########           Internal_energy_repulsive:           16.355799

@<TRIPOS>MOLECULE
HTS1710-02794540-01
 40 42 1 0 0
SMALL
USER_CHARGES


@<TRIPOS>ATOM
      1 C           7.5592  -18.3802  -24.7966 C.ar    1  UNL1        0.1323
      2 C           8.6564  -18.7975  -24.0629 C.ar    1  UNL1        0.0471
      3 C           7.3917  -17.2289  -25.7476 C.2     1  UNL1        0.2723
      4 C           5.7458  -15.7772  -26.9395 C.ar    1  UNL1        0.4039
      5 N           6.5768  -14.7708  -27.3153 N.ar    1  UNL1       -0.1546
      6 N           6.1016  -16.8165  -26.0821 N.am    1  UNL1       -0.2075
      7 N           6.5533  -19.2968  -24.4500 N.ar    1  UNL1       -0.2616
      8 N           6.9897  -20.2380  -23.5562 N.ar    1  UNL1       -0.1785
      9 N           4.5137  -15.7438  -27.3995 N.ar    1  UNL1       -0.0893
     10 C           8.2505  -19.9404  -23.3237 C.ar    1  UNL1        0.0590
     11 N           4.5670  -14.5996  -28.1626 N.ar    1  UNL1       -0.1347
     12 C          10.0489  -18.2705  -23.9657 C.2     1  UNL1        0.0754
     13 C           5.8335  -14.0236  -28.0895 C.ar    1  UNL1        0.1598
     14 C           3.7931   -9.1297  -29.6917 C.2     1  UNL1        0.0717
     15 C           3.8663  -10.5487  -30.2119 C.ar    1  UNL1       -0.0024
     16 O           8.3349  -16.6488  -26.2521 O.2     1  UNL1       -0.2680
     17 C           3.6109  -11.6444  -29.3578 C.ar    1  UNL1       -0.0478
     18 O          10.5692  -18.3076  -22.8643 O.co2   1  UNL1       -0.5445
     19 C           3.3884  -14.1366  -28.9089 C.3     1  UNL1        0.1052
     20 O           4.3953   -8.2700  -30.3122 O.co2   1  UNL1       -0.5446
     21 C           3.6718  -12.9653  -29.8414 C.ar    1  UNL1       -0.0218
     22 O          10.6028  -17.8373  -24.9567 O.co2   1  UNL1       -0.5445
     23 O           3.1380   -8.9319  -28.6830 O.co2   1  UNL1       -0.5446
     24 C           5.1465  -19.3572  -24.8825 C.3     1  UNL1        0.0310
     25 C           4.1908  -10.8028  -31.5614 C.ar    1  UNL1       -0.0529
     26 C           4.2515  -12.1178  -32.0456 C.ar    1  UNL1       -0.0608
     27 C           3.9909  -13.1973  -31.1892 C.ar    1  UNL1       -0.0567
     28 H           5.3610  -17.3146  -25.6667 H       1  UNL1        0.1624
     29 H           3.7646  -16.3629  -27.2422 H       1  UNL1        0.4905
     30 H           8.8654  -20.4697  -22.6860 H       1  UNL1        0.0854
     31 H           6.1330  -13.1575  -28.5641 H       1  UNL1        0.1086
     32 H           3.3769  -11.4746  -28.3671 H       1  UNL1        0.0627
     33 H           2.6410  -13.8346  -28.2053 H       1  UNL1        0.0598
     34 H           3.0677  -14.9527  -29.5223 H       1  UNL1        0.0598
     35 H           4.9521  -18.5655  -25.5755 H       1  UNL1        0.0473
     36 H           4.5068  -19.2513  -24.0313 H       1  UNL1        0.0473
     37 H           4.9587  -20.2988  -25.3548 H       1  UNL1        0.0473
     38 H           4.3852  -10.0140  -32.1979 H       1  UNL1        0.0624
     39 H           4.4886  -12.2914  -33.0349 H       1  UNL1        0.0618
     40 H           4.0337  -14.1633  -31.5498 H       1  UNL1        0.0621
@<TRIPOS>BOND
     1     1     2   ar
     2     1     3    1
     3     1     7   ar
     4     2    10   ar
     5     2    12    1
     6     3     6   am
     7     3    16    2
     8     4     5   ar
     9     4     6    1
    10     4     9   ar
    11     5    13   ar
    12     7     8   ar
    13     7    24    1
    14     8    10   ar
    15     9    11   ar
    16    11    13   ar
    17    11    19    1
    18    12    18   ar
    19    12    22   ar
    20    14    15    1
    21    14    20   ar
    22    14    23   ar
    23    15    17   ar
    24    15    25   ar
    25    17    21   ar
    26    19    21    1
    27    21    27   ar
    28    25    26   ar
    29    26    27   ar
    30     6    28    1
    31     9    29    1
    32    10    30    1
    33    13    31    1
    34    17    32    1
    35    19    33    1
    36    19    34    1
    37    24    35    1
    38    24    36    1
    39    24    37    1
    40    25    38    1
    41    26    39    1
    42    27    40    1
@<TRIPOS>SUBSTRUCTURE
     1 UNL1        1 TEMP              0 ****  ****    0 ROOT


