##########                                Name: HTS1710-00634940-01
##########                    Molecular_Weight:             347.324
##########                DOCK_Rotatable_Bonds:                   7
##########                       Formal_Charge:                  -2
##########                     HBond_Acceptors:                   8
##########                        HBond_Donors:                   0
##########                         Heavy_Atoms:                  25
##########                          Grid_Score:          -79.979446
##########                     Grid_vdw_energy:          -40.559227
##########                      Grid_es_energy:          -39.420216
##########           Internal_energy_repulsive:           13.511344

@<TRIPOS>MOLECULE
HTS1710-00634940-01
 42 43 1 0 0
SMALL
USER_CHARGES


@<TRIPOS>ATOM
      1 C           3.4031  -10.2090  -32.3222 C.3     1  UNL1        0.0831
      2 C           3.3743  -11.4683  -31.4509 C.ar    1  UNL1        0.0226
      3 N           4.6835  -10.0243  -33.0509 N.am    1  UNL1       -0.2868
      4 C           3.2899   -8.9018  -31.5319 C.2     1  UNL1        0.0168
      5 C           2.5104  -12.5533  -31.7290 C.ar    1  UNL1        0.1256
      6 C           4.2228  -11.5318  -30.3294 C.ar    1  UNL1       -0.0112
      7 C           5.2744   -8.8084  -32.7629 C.2     1  UNL1        0.2329
      8 C           5.1414  -10.9906  -34.0612 C.3     1  UNL1        0.0209
      9 C           4.3868   -8.1608  -31.7894 C.2     1  UNL1       -0.0358
     10 C           2.2027   -8.7261  -30.5238 C.2     1  UNL1        0.1579
     11 C           2.5111  -13.6816  -30.8802 C.ar    1  UNL1       -0.0162
     12 O           1.6712  -12.4816  -32.8266 O.3     1  UNL1       -0.4948
     13 C           4.2211  -12.6519  -29.4845 C.ar    1  UNL1        0.1207
     14 O           6.3184   -8.3781  -33.2232 O.2     1  UNL1       -0.2712
     15 C           4.2108  -11.0317  -35.2941 C.3     1  UNL1        0.0027
     16 O           4.7149   -6.9666  -31.2445 O.co2   1  UNL1       -0.8701
     17 C           1.2725   -7.5274  -30.7273 C.3     1  UNL1       -0.0017
     18 O           2.1495   -9.4023  -29.5112 O.2     1  UNL1       -0.2926
     19 C           3.3595  -13.7303  -29.7637 C.ar    1  UNL1       -0.0165
     20 C           0.6583  -13.4570  -33.1183 C.3     1  UNL1        0.0788
     21 O           5.0720  -12.6490  -28.3960 O.3     1  UNL1       -0.4951
     22 C           4.1676   -9.6775  -36.0083 C.2     1  UNL1        0.0432
     23 C           5.0805  -13.6953  -27.4084 C.3     1  UNL1        0.0788
     24 O           5.1481   -8.9628  -35.9034 O.co2   1  UNL1       -0.5498
     25 O           3.1636   -9.4151  -36.6473 O.co2   1  UNL1       -0.5498
     26 H           2.5668  -10.3780  -32.9677 H       1  UNL1        0.0603
     27 H           4.8557  -10.7425  -30.1256 H       1  UNL1        0.0659
     28 H           5.1700  -11.9644  -33.6185 H       1  UNL1        0.0468
     29 H           6.1117  -10.6846  -34.3922 H       1  UNL1        0.0468
     30 H           1.8837  -14.4757  -31.0823 H       1  UNL1        0.0655
     31 H           3.2222  -11.2886  -34.9754 H       1  UNL1        0.0340
     32 H           4.5912  -11.7609  -35.9785 H       1  UNL1        0.0340
     33 H           1.4788   -7.0725  -31.6735 H       1  UNL1        0.0309
     34 H           1.4336   -6.8143  -29.9461 H       1  UNL1        0.0309
     35 H           0.2550   -7.8576  -30.7046 H       1  UNL1        0.0309
     36 H           3.3521  -14.5573  -29.1463 H       1  UNL1        0.0655
     37 H           0.1450  -13.1809  -34.0156 H       1  UNL1        0.0660
     38 H          -0.0387  -13.5006  -32.3077 H       1  UNL1        0.0660
     39 H           1.1140  -14.4163  -33.2488 H       1  UNL1        0.0660
     40 H           5.8185  -13.4779  -26.6648 H       1  UNL1        0.0660
     41 H           5.3120  -14.6281  -27.8788 H       1  UNL1        0.0660
     42 H           4.1170  -13.7580  -26.9469 H       1  UNL1        0.0660
@<TRIPOS>BOND
     1     1     2    1
     2     1     3    1
     3     1     4    1
     4     2     5   ar
     5     2     6   ar
     6     3     7   am
     7     3     8    1
     8     4     9    2
     9     4    10    1
    10     5    11   ar
    11     5    12    1
    12     6    13   ar
    13     7    14    2
    14     8    15    1
    15     9    16    1
    16    10    17    1
    17    10    18    2
    18    11    19   ar
    19    12    20    1
    20    13    21    1
    21    15    22    1
    22    21    23    1
    23    22    24   ar
    24    22    25   ar
    25     7     9    1
    26    13    19   ar
    27     1    26    1
    28     6    27    1
    29     8    28    1
    30     8    29    1
    31    11    30    1
    32    15    31    1
    33    15    32    1
    34    17    33    1
    35    17    34    1
    36    17    35    1
    37    19    36    1
    38    20    37    1
    39    20    38    1
    40    20    39    1
    41    23    40    1
    42    23    41    1
    43    23    42    1
@<TRIPOS>SUBSTRUCTURE
     1 UNL1        1 TEMP              0 ****  ****    0 ROOT


