##########                                Name: HTS1710-00099256-01
##########                    Molecular_Weight:             346.337
##########                DOCK_Rotatable_Bonds:                  15
##########                       Formal_Charge:                  -2
##########                     HBond_Acceptors:                  10
##########                        HBond_Donors:                   2
##########                         Heavy_Atoms:                  24
##########                          Grid_Score:          -91.216896
##########                     Grid_vdw_energy:          -41.581364
##########                      Grid_es_energy:          -49.635532
##########           Internal_energy_repulsive:            9.888535

@<TRIPOS>MOLECULE
HTS1710-00099256-01
 46 45 1 0 0
SMALL
USER_CHARGES


@<TRIPOS>ATOM
      1 C           3.2040  -12.0183  -27.9401 C.2     1  UNL1        0.0863
      2 C           6.1317  -14.2931  -27.4443 C.2     1  UNL1        0.0863
      3 C           4.0094   -9.4595  -36.1641 C.2     1  UNL1        0.0863
      4 C           4.8608   -8.9949  -32.1399 C.2     1  UNL1        0.0863
      5 N           3.8928  -14.3249  -28.4702 N.4     1  UNL1        0.2434
      6 N           3.7966  -10.4309  -33.8160 N.4     1  UNL1        0.2434
      7 O           6.4651  -13.3535  -28.1423 O.co2   1  UNL1       -0.5444
      8 O           4.0417  -11.6133  -28.7248 O.co2   1  UNL1       -0.5444
      9 O           5.1421   -9.1650  -35.8280 O.co2   1  UNL1       -0.5444
     10 O           5.2095   -9.4616  -31.0717 O.co2   1  UNL1       -0.5444
     11 C           4.9960  -15.1683  -27.9598 C.3     1  UNL1        0.0090
     12 C           3.3768  -13.4351  -27.4101 C.3     1  UNL1        0.0090
     13 C           3.1143  -10.0701  -35.0862 C.3     1  UNL1        0.0090
     14 C           3.5360   -9.4836  -32.7127 C.3     1  UNL1        0.0090
     15 O           3.5322   -9.2909  -37.2716 O.co2   1  UNL1       -0.5444
     16 O           2.2391  -11.3938  -27.5376 O.co2   1  UNL1       -0.5444
     17 O           5.4732   -8.1698  -32.7947 O.co2   1  UNL1       -0.5444
     18 O           6.6138  -14.5914  -26.3675 O.co2   1  UNL1       -0.5444
     19 C           3.6542  -11.8521  -33.4063 C.3     1  UNL1       -0.0312
     20 C           2.7945  -15.1192  -29.0781 C.3     1  UNL1       -0.0312
     21 C           1.9241  -14.3249  -30.0914 C.3     1  UNL1       -0.0125
     22 C           2.2060  -12.4232  -33.3933 C.3     1  UNL1       -0.0125
     23 C           2.1176  -13.7498  -32.6002 C.3     1  UNL1       -0.0481
     24 C           2.7807  -13.6692  -31.1992 C.3     1  UNL1       -0.0481
     25 H           4.2847  -13.7509  -29.2167 H       1  UNL1        0.2041
     26 H           4.7862  -10.3330  -34.0432 H       1  UNL1        0.2041
     27 H           4.6322  -15.7816  -27.1621 H       1  UNL1        0.0879
     28 H           5.3622  -15.7833  -28.7551 H       1  UNL1        0.0879
     29 H           4.0675  -13.4235  -26.5930 H       1  UNL1        0.0879
     30 H           2.4256  -13.8009  -27.0841 H       1  UNL1        0.0879
     31 H           2.6742  -10.9588  -35.4879 H       1  UNL1        0.0879
     32 H           2.4025   -9.3127  -34.8322 H       1  UNL1        0.0879
     33 H           2.9782   -8.6491  -33.0834 H       1  UNL1        0.0879
     34 H           2.9750   -9.9748  -31.9455 H       1  UNL1        0.0879
     35 H           4.0515  -11.9479  -32.4174 H       1  UNL1        0.0815
     36 H           4.1777  -12.4174  -34.1488 H       1  UNL1        0.0815
     37 H           2.1591  -15.4709  -28.2923 H       1  UNL1        0.0815
     38 H           3.2550  -15.9158  -29.6242 H       1  UNL1        0.0815
     39 H           1.3937  -13.5587  -29.5654 H       1  UNL1        0.0317
     40 H           1.2489  -15.0117  -30.5576 H       1  UNL1        0.0317
     41 H           1.8949  -12.6012  -34.4016 H       1  UNL1        0.0317
     42 H           1.5706  -11.7072  -32.9154 H       1  UNL1        0.0317
     43 H           2.6062  -14.5166  -33.1642 H       1  UNL1        0.0267
     44 H           1.0797  -13.9618  -32.4493 H       1  UNL1        0.0267
     45 H           2.9306  -12.6393  -30.9508 H       1  UNL1        0.0267
     46 H           3.7059  -14.2044  -31.2498 H       1  UNL1        0.0267
@<TRIPOS>BOND
     1     2    11    1
     2     3    13    1
     3     4    14    1
     4     5    12    1
     5     6    19    1
     6     2     7   ar
     7     1     8   ar
     8     3     9   ar
     9     4    10   ar
    10     5    11    1
    11     1    12    1
    12     6    13    1
    13     6    14    1
    14     3    15   ar
    15     1    16   ar
    16     4    17   ar
    17     2    18   ar
    18    19    22    1
    19     5    20    1
    20    20    21    1
    21    22    23    1
    22    23    24    1
    23    21    24    1
    24     5    25    1
    25     6    26    1
    26    11    27    1
    27    11    28    1
    28    12    29    1
    29    12    30    1
    30    13    31    1
    31    13    32    1
    32    14    33    1
    33    14    34    1
    34    19    35    1
    35    19    36    1
    36    20    37    1
    37    20    38    1
    38    21    39    1
    39    21    40    1
    40    22    41    1
    41    22    42    1
    42    23    43    1
    43    23    44    1
    44    24    45    1
    45    24    46    1
@<TRIPOS>SUBSTRUCTURE
     1 UNL1        1 TEMP              0 ****  ****    0 ROOT


