##########                                Name: HTS1710-02598603-01
##########                    Molecular_Weight:             377.306
##########                DOCK_Rotatable_Bonds:                   4
##########                       Formal_Charge:                  -2
##########                     HBond_Acceptors:                  10
##########                        HBond_Donors:                   1
##########                         Heavy_Atoms:                  26
##########                          Grid_Score:          -76.086250
##########                     Grid_vdw_energy:          -41.288597
##########                      Grid_es_energy:          -34.797653
##########           Internal_energy_repulsive:            8.262862

@<TRIPOS>MOLECULE
HTS1710-02598603-01
 34 36 1 0 0
SMALL
USER_CHARGES


@<TRIPOS>ATOM
      1 S           4.6707  -12.3396  -35.2205 S.O2    1  UNL1        0.0753
      2 C           2.1138  -11.2176  -35.5881 C.ar    1  UNL1        0.1252
      3 N           3.0767  -12.1963  -35.8020 N.pl3   1  UNL1       -0.2098
      4 C           2.1031  -10.0354  -36.3261 C.ar    1  UNL1       -0.0674
      5 C           4.4996  -11.9384  -33.4657 C.ar    1  UNL1        0.1441
      6 C           1.1212  -11.5185  -34.5216 C.ar    1  UNL1        0.3593
      7 C           4.6058  -10.3082  -31.6216 C.ar    1  UNL1        0.0345
      8 C           4.7415  -10.6280  -33.0001 C.ar    1  UNL1        0.1587
      9 O           0.1654  -10.5715  -34.3128 O.2     1  UNL1       -0.4209
     10 C           1.0101   -9.0957  -36.0145 C.ar    1  UNL1        0.0117
     11 C           0.0690   -9.3994  -35.0136 C.ar    1  UNL1        0.1386
     12 C           4.8524   -8.9104  -31.0674 C.2     1  UNL1        0.0745
     13 O           5.0102  -13.7606  -35.3452 O.2     1  UNL1       -0.1499
     14 O           5.4117  -11.2665  -35.8895 O.2     1  UNL1       -0.1499
     15 O           1.1430  -12.5482  -33.8677 O.2     1  UNL1       -0.2431
     16 O           5.6799   -8.2214  -31.6399 O.co2   1  UNL1       -0.5445
     17 O           3.0018   -9.6804  -37.2706 O.co2   1  UNL1       -0.8719
     18 F           5.0905   -9.6803  -33.8989 F       1  UNL1       -0.2028
     19 C           4.1141  -12.9408  -32.5585 C.ar    1  UNL1       -0.0322
     20 O           4.2199   -8.5506  -30.0904 O.co2   1  UNL1       -0.5445
     21 C           4.2214  -11.3407  -30.7343 C.ar    1  UNL1       -0.0500
     22 C           0.8793   -7.8725  -36.7124 C.ar    1  UNL1       -0.0516
     23 C          -0.9790   -8.5136  -34.7139 C.ar    1  UNL1       -0.0186
     24 C           3.9779  -12.6408  -31.1989 C.ar    1  UNL1       -0.0591
     25 C          -0.1682   -6.9868  -36.4141 C.ar    1  UNL1       -0.0610
     26 C          -1.0987   -7.3063  -35.4151 C.ar    1  UNL1       -0.0582
     27 H           2.7885  -12.9317  -36.3896 H       1  UNL1        0.1739
     28 H           3.9314  -13.8988  -32.8959 H       1  UNL1        0.0638
     29 H           4.1186  -11.1335  -29.7286 H       1  UNL1        0.0625
     30 H           1.5606   -7.6287  -37.4482 H       1  UNL1        0.0624
     31 H          -1.6611   -8.7520  -33.9771 H       1  UNL1        0.0654
     32 H           3.6970  -13.3796  -30.5353 H       1  UNL1        0.0618
     33 H          -0.2536   -6.0980  -36.9316 H       1  UNL1        0.0618
     34 H          -1.8688   -6.6548  -35.1972 H       1  UNL1        0.0619
@<TRIPOS>BOND
     1     1     3    1
     2     1     5    1
     3     1    13    2
     4     1    14    2
     5     2     3    1
     6     2     4   ar
     7     2     6   ar
     8     4    10   ar
     9     4    17    1
    10     5     8   ar
    11     5    19   ar
    12     6     9   ar
    13     6    15    2
    14     7     8   ar
    15     7    12    1
    16     7    21   ar
    17     8    18    1
    18     9    11   ar
    19    10    11   ar
    20    10    22   ar
    21    11    23   ar
    22    12    16   ar
    23    12    20   ar
    24    19    24   ar
    25    21    24   ar
    26    22    25   ar
    27    23    26   ar
    28    25    26   ar
    29     3    27    1
    30    19    28    1
    31    21    29    1
    32    22    30    1
    33    23    31    1
    34    24    32    1
    35    25    33    1
    36    26    34    1
@<TRIPOS>SUBSTRUCTURE
     1 UNL1        1 TEMP              0 ****  ****    0 ROOT


