HTS1710-00701589-01
 OpenBabel03232612353D

 39 40  0  0  1  0  0  0  0  0999 V2000
    3.4626  -11.1463  -31.6408 N   0  0  0  0  0  0  0  0  0  0  0  0
    2.6983  -10.4692  -32.5918 C   0  0  0  0  0  0  0  0  0  0  0  0
    4.3005  -10.4218  -30.6452 C   0  0  2  0  0  0  0  0  0  0  0  0
    3.4174  -12.5307  -31.7597 C   0  0  0  0  0  0  0  0  0  0  0  0
    2.0225  -11.4357  -33.4912 C   0  0  0  0  0  0  0  0  0  0  0  0
    2.6072   -9.2542  -32.6649 O   0  0  0  0  0  0  0  0  0  0  0  0
    3.4756   -9.9472  -29.4122 C   0  0  0  0  0  0  0  0  0  0  0  0
    5.1114   -9.3022  -31.3387 C   0  0  0  0  0  0  0  0  0  0  0  0
    2.3858  -13.1044  -33.0997 S   0  0  0  0  0  0  0  0  0  0  0  0
    4.2480  -13.6283  -30.8029 S   0  0  0  0  0  0  0  0  0  0  0  0
    1.1897  -11.0084  -34.5082 C   0  0  0  0  0  0  0  0  0  0  0  0
    3.2999  -11.0543  -28.3634 C   0  0  0  0  0  0  0  0  0  0  0  0
    5.4398   -9.4991  -32.4967 O   0  5  0  0  0  0  0  0  0  0  0  0
    5.3820   -8.2993  -30.6992 O   0  0  0  0  0  0  0  0  0  0  0  0
    0.7200   -9.6818  -35.0434 C   0  0  0  0  0  0  0  0  0  0  0  0
    4.2947  -11.6816  -28.0387 O   0  5  0  0  0  0  0  0  0  0  0  0
    2.1720  -11.2555  -27.9471 O   0  0  0  0  0  0  0  0  0  0  0  0
    1.2463   -9.1881  -36.2667 C   0  0  0  0  0  0  0  0  0  0  0  0
   -0.2455   -8.9021  -34.3706 C   0  0  0  0  0  0  0  0  0  0  0  0
    0.8073   -7.9476  -36.7852 C   0  0  0  0  0  0  0  0  0  0  0  0
    2.1999   -9.9363  -36.9386 O   0  0  0  0  0  0  0  0  0  0  0  0
   -0.6767   -7.6736  -34.8897 C   0  0  0  0  0  0  0  0  0  0  0  0
   -0.1572   -7.1885  -36.0946 C   0  0  0  0  0  0  0  0  0  0  0  0
    3.5328  -10.1619  -36.4473 C   0  0  0  0  0  0  0  0  0  0  0  0
   -0.6199   -5.9741  -36.5631 O   0  0  0  0  0  0  0  0  0  0  0  0
   -1.2508   -4.9949  -35.7187 C   0  0  0  0  0  0  0  0  0  0  0  0
    5.0155  -11.1045  -30.2357 H   0  0  0  0  0  0  0  0  0  0  0  0
    2.5086   -9.6335  -29.7460 H   0  0  0  0  0  0  0  0  0  0  0  0
    4.0114   -9.1437  -28.9514 H   0  0  0  0  0  0  0  0  0  0  0  0
    0.7874  -11.7999  -35.0343 H   0  0  0  0  0  0  0  0  0  0  0  0
   -0.6410   -9.2429  -33.4804 H   0  0  0  0  0  0  0  0  0  0  0  0
    1.1958   -7.5968  -37.6746 H   0  0  0  0  0  0  0  0  0  0  0  0
   -1.3836   -7.1221  -34.3786 H   0  0  0  0  0  0  0  0  0  0  0  0
    4.0725  -10.7675  -37.1450 H   0  0  0  0  0  0  0  0  0  0  0  0
    3.4849  -10.6625  -35.5028 H   0  0  0  0  0  0  0  0  0  0  0  0
    4.0326   -9.2233  -36.3284 H   0  0  0  0  0  0  0  0  0  0  0  0
   -1.5222   -4.1412  -36.3039 H   0  0  0  0  0  0  0  0  0  0  0  0
   -0.5710   -4.6976  -34.9479 H   0  0  0  0  0  0  0  0  0  0  0  0
   -2.1287   -5.4178  -35.2766 H   0  0  0  0  0  0  0  0  0  0  0  0
  1  2  1  0  0  0  0
  1  3  1  0  0  0  0
  1  4  1  0  0  0  0
  2  5  1  0  0  0  0
  2  6  2  0  0  0  0
  3  7  1  0  0  0  0
  3  8  1  0  0  0  0
  3 27  1  1  0  0  0
  4  9  1  0  0  0  0
  4 10  2  0  0  0  0
  5 11  2  0  0  0  0
  5  9  1  0  0  0  0
  7 12  1  0  0  0  0
  7 28  1  0  0  0  0
  7 29  1  0  0  0  0
  8 13  1  0  0  0  0
  8 14  2  0  0  0  0
 11 15  1  0  0  0  0
 11 30  1  0  0  0  0
 12 16  1  0  0  0  0
 12 17  2  0  0  0  0
 15 18  2  0  0  0  0
 15 19  1  0  0  0  0
 18 20  1  0  0  0  0
 18 21  1  0  0  0  0
 19 22  2  0  0  0  0
 19 31  1  0  0  0  0
 20 23  2  0  0  0  0
 20 32  1  0  0  0  0
 21 24  1  0  0  0  0
 22 23  1  0  0  0  0
 22 33  1  0  0  0  0
 23 25  1  0  0  0  0
 24 34  1  0  0  0  0
 24 35  1  0  0  0  0
 24 36  1  0  0  0  0
 25 26  1  0  0  0  0
 26 37  1  0  0  0  0
 26 38  1  0  0  0  0
 26 39  1  0  0  0  0
M  CHG  2  13  -1  16  -1
M  END
$$$$
