##########                                Name: HTS1710-00585550-01
##########                    Molecular_Weight:             262.219
##########                DOCK_Rotatable_Bonds:                   4
##########                       Formal_Charge:                  -3
##########                     HBond_Acceptors:                   6
##########                        HBond_Donors:                   0
##########                         Heavy_Atoms:                  19
##########                          Grid_Score:          -79.280037
##########                     Grid_vdw_energy:          -30.116243
##########                      Grid_es_energy:          -49.163792
##########           Internal_energy_repulsive:            7.742457

@<TRIPOS>MOLECULE
HTS1710-00585550-01
 29 30 1 0 0
SMALL
USER_CHARGES


@<TRIPOS>ATOM
      1 C           5.1024   -9.5785  -33.1725 C.ar    1  UNL1       -0.0203
      2 C           5.2521   -9.7591  -34.5302 C.ar    1  UNL1       -0.0861
      3 C           5.6310   -8.2684  -32.8266 C.2     1  UNL1       -0.0069
      4 C           4.5176  -10.5749  -32.3744 C.ar    1  UNL1       -0.0127
      5 O           5.8407   -8.6825  -35.1318 O.co2   1  UNL1       -0.7823
      6 C           4.8347  -10.9271  -35.1736 C.ar    1  UNL1       -0.0645
      7 C           6.0467   -7.8180  -34.0767 C.2     1  UNL1       -0.1113
      8 C           5.7011   -7.6000  -31.5005 C.2     1  UNL1        0.0714
      9 C           4.0791  -11.7656  -32.9937 C.ar    1  UNL1        0.1220
     10 C           4.2420  -11.9389  -34.3950 C.ar    1  UNL1       -0.0204
     11 C           6.6907   -6.4831  -34.3535 C.3     1  UNL1       -0.0524
     12 O           6.0425   -8.2654  -30.5387 O.co2   1  UNL1       -0.5446
     13 O           5.4131   -6.4182  -31.4466 O.co2   1  UNL1       -0.5446
     14 O           3.5037  -12.7371  -32.1945 O.3     1  UNL1       -0.4833
     15 C           2.9802  -12.4791  -30.8718 C.3     1  UNL1        0.1363
     16 C           4.1090  -12.3823  -29.8270 C.2     1  UNL1        0.0817
     17 C           2.0135  -13.6295  -30.5232 C.3     1  UNL1       -0.0224
     18 O           5.1749  -12.9163  -30.0834 O.co2   1  UNL1       -0.5460
     19 O           3.8808  -11.7111  -28.8360 O.co2   1  UNL1       -0.5460
     20 H           4.4105  -10.4398  -31.3569 H       1  UNL1        0.0660
     21 H           4.9577  -11.0447  -36.1915 H       1  UNL1        0.0613
     22 H           3.9238  -12.8118  -34.8443 H       1  UNL1        0.0654
     23 H           6.7799   -5.9338  -33.4396 H       1  UNL1        0.0266
     24 H           6.0866   -5.9318  -35.0434 H       1  UNL1        0.0266
     25 H           7.6627   -6.6363  -34.7738 H       1  UNL1        0.0266
     26 H           2.4695  -11.5388  -30.8598 H       1  UNL1        0.0793
     27 H           2.5438  -14.5587  -30.5410 H       1  UNL1        0.0269
     28 H           1.2198  -13.6581  -31.2403 H       1  UNL1        0.0269
     29 H           1.6064  -13.4698  -29.5467 H       1  UNL1        0.0269
@<TRIPOS>BOND
     1     1     2   ar
     2     1     3    1
     3     1     4   ar
     4     2     5    1
     5     2     6   ar
     6     3     7    2
     7     3     8    1
     8     4     9   ar
     9     6    10   ar
    10     7    11    1
    11     8    12   ar
    12     8    13   ar
    13     9    14    1
    14    14    15    1
    15    15    16    1
    16    15    17    1
    17    16    18   ar
    18    16    19   ar
    19     5     7    1
    20     9    10   ar
    21     4    20    1
    22     6    21    1
    23    10    22    1
    24    11    23    1
    25    11    24    1
    26    11    25    1
    27    15    26    1
    28    17    27    1
    29    17    28    1
    30    17    29    1
@<TRIPOS>SUBSTRUCTURE
     1 UNL1        1 TEMP              0 ****  ****    0 ROOT


