##########                                Name: HTS1710-04762166-01
##########                    Molecular_Weight:             324.354
##########                DOCK_Rotatable_Bonds:                   9
##########                       Formal_Charge:                  -2
##########                     HBond_Acceptors:                   7
##########                        HBond_Donors:                   0
##########                         Heavy_Atoms:                  23
##########                          Grid_Score:          -83.479752
##########                     Grid_vdw_energy:          -44.612305
##########                      Grid_es_energy:          -38.867447
##########           Internal_energy_repulsive:           16.689087

@<TRIPOS>MOLECULE
HTS1710-04762166-01
 45 46 1 0 0
SMALL
USER_CHARGES


@<TRIPOS>ATOM
      1 C           2.0357   -9.9305  -36.1235 C.3     1  UNL1        0.0035
      2 N           3.0850  -10.8293  -35.5972 N.am    1  UNL1       -0.3012
      3 C           4.4707  -10.4508  -35.9436 C.3     1  UNL1        0.0265
      4 C           5.0314   -9.4247  -34.9955 C.2     1  UNL1       -0.0998
      5 C           4.8783   -9.4696  -33.6353 C.2     1  UNL1       -0.0630
      6 C           5.5656   -8.3260  -33.1522 C.2     1  UNL1       -0.0144
      7 C           5.6950   -7.9224  -31.7311 C.2     1  UNL1        0.0708
      8 O           6.0237   -6.7769  -31.4786 O.co2   1  UNL1       -0.5447
      9 O           5.4621   -8.7744  -30.8909 O.co2   1  UNL1       -0.5447
     10 C           6.0549   -7.7268  -34.2970 C.2     1  UNL1       -0.1120
     11 C           6.8751   -6.4628  -34.3452 C.3     1  UNL1       -0.0524
     12 O           5.7535   -8.3666  -35.4730 O.co2   1  UNL1       -0.7845
     13 C           2.8122  -11.9429  -34.7924 C.2     1  UNL1        0.2178
     14 O           1.6740  -12.2492  -34.4773 O.2     1  UNL1       -0.2755
     15 C           4.0304  -12.7472  -34.2909 C.3     1  UNL1        0.0476
     16 C           3.6938  -13.6603  -33.0824 C.3     1  UNL1        0.0560
     17 O           3.9545  -12.9558  -31.8530 O.3     1  UNL1       -0.3767
     18 C           4.3752  -13.7762  -30.7443 C.3     1  UNL1        0.0738
     19 C           4.5334  -12.8636  -29.5009 C.3     1  UNL1        0.0820
     20 C           3.1901  -12.3308  -28.9500 C.3     1  UNL1       -0.0224
     21 C           2.8540  -13.2495  -27.7588 C.3     1  UNL1       -0.0270
     22 C           3.9681  -14.3093  -27.7604 C.3     1  UNL1        0.0482
     23 O           5.0605  -13.6378  -28.4068 O.3     1  UNL1       -0.3743
     24 H           2.4887   -9.1571  -36.7080 H       1  UNL1        0.0429
     25 H           1.4987   -9.4931  -35.3078 H       1  UNL1        0.0429
     26 H           1.3602  -10.4909  -36.7355 H       1  UNL1        0.0429
     27 H           4.4805  -10.0469  -36.9344 H       1  UNL1        0.0502
     28 H           5.0786  -11.3287  -35.8762 H       1  UNL1        0.0502
     29 H           4.3735  -10.1799  -33.0824 H       1  UNL1        0.0615
     30 H           7.0195   -6.0932  -33.3516 H       1  UNL1        0.0266
     31 H           6.3622   -5.7268  -34.9285 H       1  UNL1        0.0266
     32 H           7.8258   -6.6713  -34.7898 H       1  UNL1        0.0266
     33 H           4.7960  -12.0599  -33.9970 H       1  UNL1        0.0381
     34 H           4.3501  -13.3798  -35.0926 H       1  UNL1        0.0381
     35 H           4.2998  -14.5412  -33.1227 H       1  UNL1        0.0564
     36 H           2.6598  -13.9329  -33.1218 H       1  UNL1        0.0564
     37 H           5.3108  -14.2425  -30.9730 H       1  UNL1        0.0585
     38 H           3.6508  -14.5400  -30.5531 H       1  UNL1        0.0585
     39 H           5.1575  -12.0570  -29.8248 H       1  UNL1        0.0619
     40 H           2.4270  -12.3903  -29.6977 H       1  UNL1        0.0292
     41 H           3.2546  -11.3031  -28.6588 H       1  UNL1        0.0292
     42 H           1.8965  -13.7078  -27.8936 H       1  UNL1        0.0288
     43 H           2.8050  -12.7136  -26.8340 H       1  UNL1        0.0288
     44 H           3.6711  -15.1770  -28.3117 H       1  UNL1        0.0560
     45 H           4.2134  -14.6610  -26.7800 H       1  UNL1        0.0560
@<TRIPOS>BOND
     1     1     2    1
     2     2     3    1
     3     3     4    1
     4     4     5    2
     5     5     6    1
     6     6     7    1
     7     7     8   ar
     8     7     9   ar
     9     6    10    2
    10    10    11    1
    11    10    12    1
    12     4    12    1
    13     2    13   am
    14    13    14    2
    15    13    15    1
    16    15    16    1
    17    16    17    1
    18    17    18    1
    19    18    19    1
    20    19    20    1
    21    20    21    1
    22    21    22    1
    23    22    23    1
    24    19    23    1
    25     1    24    1
    26     1    25    1
    27     1    26    1
    28     3    27    1
    29     3    28    1
    30     5    29    1
    31    11    30    1
    32    11    31    1
    33    11    32    1
    34    15    33    1
    35    15    34    1
    36    16    35    1
    37    16    36    1
    38    18    37    1
    39    18    38    1
    40    19    39    1
    41    20    40    1
    42    20    41    1
    43    21    42    1
    44    21    43    1
    45    22    44    1
    46    22    45    1
@<TRIPOS>SUBSTRUCTURE
     1 UNL1        1 TEMP              0 ****  ****    0 ROOT


