##########                                Name: HTS1710-02383774-01
##########                    Molecular_Weight:             405.431
##########                DOCK_Rotatable_Bonds:                   9
##########                       Formal_Charge:                  -2
##########                     HBond_Acceptors:                  10
##########                        HBond_Donors:                   1
##########                         Heavy_Atoms:                  28
##########                          Grid_Score:          -76.295639
##########                     Grid_vdw_energy:          -35.220619
##########                      Grid_es_energy:          -41.075016
##########           Internal_energy_repulsive:           16.607683

@<TRIPOS>MOLECULE
HTS1710-02383774-01
 47 48 1 0 0
SMALL
USER_CHARGES


@<TRIPOS>ATOM
      1 C           0.9543   -8.5977  -34.3738 C.ar    1  UNL1        0.1213
      2 C           0.0016   -7.7241  -33.7080 C.ar    1  UNL1        0.2934
      3 N          -0.2158   -7.6149  -35.9722 N.ar    1  UNL1       -0.2823
      4 N          -0.7660   -7.1823  -34.7155 N.ar    1  UNL1       -0.2156
      5 C           0.8337   -8.5065  -35.7366 C.ar    1  UNL1        0.0595
      6 N           1.9720   -9.3130  -33.7539 N.am    1  UNL1       -0.2789
      7 C           2.1246  -10.6927  -33.8064 C.2     1  UNL1        0.2301
      8 C           3.9639   -9.2734  -31.3332 C.3     1  UNL1        0.0503
      9 C           3.7469  -10.1912  -30.0952 C.3     1  UNL1        0.0038
     10 S           4.6758  -10.2430  -32.7383 S.3     1  UNL1       -0.1387
     11 C           4.8964   -8.0842  -31.0465 C.2     1  UNL1        0.0550
     12 O          -0.1070   -7.4858  -32.5181 O.2     1  UNL1       -0.2638
     13 C           3.2181   -9.4501  -28.8551 C.2     1  UNL1        0.0431
     14 C           3.2874  -11.4152  -33.0872 C.3     1  UNL1        0.0795
     15 C          -1.9294   -6.3673  -34.5874 C.ar    1  UNL1        0.0674
     16 O           1.2485  -11.3131  -34.3838 O.2     1  UNL1       -0.2743
     17 O           6.0476   -8.3283  -30.7260 O.co2   1  UNL1       -0.5487
     18 O           3.0042   -8.2543  -28.9562 O.co2   1  UNL1       -0.5498
     19 C          -0.4173   -6.7300  -37.1327 C.3     1  UNL1        0.0292
     20 C           1.7602   -9.1298  -36.7503 C.3     1  UNL1       -0.0208
     21 O           4.4226   -6.9689  -31.1743 O.co2   1  UNL1       -0.5487
     22 O           3.0470  -10.1122  -27.8463 O.co2   1  UNL1       -0.5498
     23 C           3.7959  -12.6023  -33.9321 C.3     1  UNL1       -0.0448
     24 C          -1.8972   -5.1984  -33.8034 C.ar    1  UNL1       -0.0362
     25 C          -3.1286   -6.7338  -35.2301 C.ar    1  UNL1       -0.0362
     26 C          -4.2763   -5.9356  -35.0975 C.ar    1  UNL1       -0.0598
     27 C          -3.0451   -4.4020  -33.6695 C.ar    1  UNL1       -0.0598
     28 C          -4.2351   -4.7690  -34.3178 C.ar    1  UNL1       -0.0616
     29 H           2.6363   -8.8021  -33.2374 H       1  UNL1        0.1550
     30 H           2.9984   -8.8870  -31.5851 H       1  UNL1        0.0476
     31 H           4.6831  -10.6440  -29.8433 H       1  UNL1        0.0339
     32 H           3.0031  -10.9102  -30.3681 H       1  UNL1        0.0339
     33 H           2.9168  -11.7898  -32.1560 H       1  UNL1        0.0504
     34 H          -1.3222   -6.1736  -37.0040 H       1  UNL1        0.0472
     35 H          -0.4846   -7.3193  -38.0232 H       1  UNL1        0.0472
     36 H           0.4083   -6.0543  -37.2137 H       1  UNL1        0.0472
     37 H           2.4580   -9.7686  -36.2504 H       1  UNL1        0.0293
     38 H           2.2908   -8.3593  -37.2697 H       1  UNL1        0.0293
     39 H           1.1892   -9.7036  -37.4500 H       1  UNL1        0.0293
     40 H           4.1696  -12.2404  -34.8671 H       1  UNL1        0.0245
     41 H           2.9909  -13.2844  -34.1098 H       1  UNL1        0.0245
     42 H           4.5798  -13.1052  -33.4052 H       1  UNL1        0.0245
     43 H          -1.0247   -4.9257  -33.3245 H       1  UNL1        0.0639
     44 H          -3.1637   -7.5928  -35.8009 H       1  UNL1        0.0639
     45 H          -5.1508   -6.2069  -35.5736 H       1  UNL1        0.0618
     46 H          -3.0144   -3.5460  -33.0939 H       1  UNL1        0.0618
     47 H          -5.0783   -4.1820  -34.2213 H       1  UNL1        0.0618
@<TRIPOS>BOND
     1     1     2   ar
     2     1     5   ar
     3     1     6    1
     4     2     4   ar
     5     2    12    2
     6     3     4   ar
     7     3     5   ar
     8     3    19    1
     9     4    15    1
    10     5    20    1
    11     6     7   am
    12     7    14    1
    13     7    16    2
    14     8     9    1
    15     8    10    1
    16     8    11    1
    17     9    13    1
    18    10    14    1
    19    11    17   ar
    20    11    21   ar
    21    13    18   ar
    22    13    22   ar
    23    14    23    1
    24    15    24   ar
    25    15    25   ar
    26    24    27   ar
    27    25    26   ar
    28    26    28   ar
    29    27    28   ar
    30     6    29    1
    31     8    30    1
    32     9    31    1
    33     9    32    1
    34    14    33    1
    35    19    34    1
    36    19    35    1
    37    19    36    1
    38    20    37    1
    39    20    38    1
    40    20    39    1
    41    23    40    1
    42    23    41    1
    43    23    42    1
    44    24    43    1
    45    25    44    1
    46    26    45    1
    47    27    46    1
    48    28    47    1
@<TRIPOS>SUBSTRUCTURE
     1 UNL1        1 TEMP              0 ****  ****    0 ROOT


