HTS1710-00617541-01
 OpenBabel03232612353D

 43 44  0  0  1  0  0  0  0  0999 V2000
    3.6913  -10.7044  -32.3560 C   0  0  2  0  0  0  0  0  0  0  0  0
    3.4748  -10.9921  -30.9160 N   0  0  0  0  0  0  0  0  0  0  0  0
    4.8262   -9.6749  -32.3105 C   0  0  0  0  0  0  0  0  0  0  0  0
    2.4340  -10.1930  -33.0534 C   0  0  0  0  0  0  0  0  0  0  0  0
    4.3171  -10.2557  -30.1033 C   0  0  0  0  0  0  0  0  0  0  0  0
    2.5581  -12.0577  -30.4790 C   0  0  0  0  0  0  0  0  0  0  0  0
    5.1126   -9.4254  -31.0182 C   0  0  0  0  0  0  0  0  0  0  0  0
    5.2877   -8.9690  -33.5423 C   0  0  0  0  0  0  0  0  0  0  0  0
    1.8362   -8.9924  -32.6284 C   0  0  0  0  0  0  0  0  0  0  0  0
    1.8757  -10.8999  -34.1378 C   0  0  0  0  0  0  0  0  0  0  0  0
    4.3713  -10.2943  -28.8860 O   0  0  0  0  0  0  0  0  0  0  0  0
    3.1229  -13.4652  -30.7696 C   0  0  0  0  0  0  0  0  0  0  0  0
    5.9998   -8.5213  -30.5448 O   0  5  0  0  0  0  0  0  0  0  0  0
    5.3187   -9.8028  -34.8267 C   0  0  0  0  0  0  0  0  0  0  0  0
    5.7472   -7.8411  -33.5074 O   0  0  0  0  0  0  0  0  0  0  0  0
    0.6894   -8.5040  -33.2749 C   0  0  0  0  0  0  0  0  0  0  0  0
    0.7298  -10.4123  -34.7849 C   0  0  0  0  0  0  0  0  0  0  0  0
    4.3493  -13.7923  -29.8884 C   0  0  0  0  0  0  0  0  0  0  0  0
    0.1388   -9.2158  -34.3512 C   0  0  0  0  0  0  0  0  0  0  0  0
    3.9381  -14.0967  -28.4262 C   0  0  0  0  0  0  0  0  0  0  0  0
   -0.9628   -8.7464  -34.9733 F   0  0  0  0  0  0  0  0  0  0  0  0
    4.9744  -14.9711  -27.6744 C   0  0  0  0  0  0  0  0  0  0  0  0
    6.3210  -14.2645  -27.4567 C   0  0  0  0  0  0  0  0  0  0  0  0
    6.3888  -13.0886  -27.7699 O   0  5  0  0  0  0  0  0  0  0  0  0
    7.2329  -14.9245  -26.9898 O   0  0  0  0  0  0  0  0  0  0  0  0
    3.9357  -11.5707  -32.9345 H   0  0  0  0  0  0  0  0  0  0  0  0
    1.6278  -11.9458  -30.9956 H   0  0  0  0  0  0  0  0  0  0  0  0
    2.4279  -11.9669  -29.4208 H   0  0  0  0  0  0  0  0  0  0  0  0
    2.2425   -8.4681  -31.8378 H   0  0  0  0  0  0  0  0  0  0  0  0
    2.3112  -11.7794  -34.4570 H   0  0  0  0  0  0  0  0  0  0  0  0
    3.4140  -13.5147  -31.7981 H   0  0  0  0  0  0  0  0  0  0  0  0
    2.3579  -14.1797  -30.5481 H   0  0  0  0  0  0  0  0  0  0  0  0
    4.8680  -10.7559  -34.6442 H   0  0  0  0  0  0  0  0  0  0  0  0
    6.3332   -9.9416  -35.1375 H   0  0  0  0  0  0  0  0  0  0  0  0
    4.7766   -9.2934  -35.5958 H   0  0  0  0  0  0  0  0  0  0  0  0
    0.2527   -7.6238  -32.9592 H   0  0  0  0  0  0  0  0  0  0  0  0
    0.3229  -10.9325  -35.5778 H   0  0  0  0  0  0  0  0  0  0  0  0
    5.0143  -12.9539  -29.8944 H   0  0  0  0  0  0  0  0  0  0  0  0
    4.8262  -14.6622  -30.2893 H   0  0  0  0  0  0  0  0  0  0  0  0
    3.0005  -14.6122  -28.4361 H   0  0  0  0  0  0  0  0  0  0  0  0
    3.8747  -13.1614  -27.9105 H   0  0  0  0  0  0  0  0  0  0  0  0
    5.1457  -15.8604  -28.2442 H   0  0  0  0  0  0  0  0  0  0  0  0
    4.5680  -15.1839  -26.7077 H   0  0  0  0  0  0  0  0  0  0  0  0
  1  2  1  0  0  0  0
  1  3  1  0  0  0  0
  1  4  1  0  0  0  0
  1 26  1  6  0  0  0
  2  5  1  0  0  0  0
  2  6  1  0  0  0  0
  3  7  2  0  0  0  0
  3  8  1  0  0  0  0
  4  9  2  0  0  0  0
  4 10  1  0  0  0  0
  5 11  2  0  0  0  0
  5  7  1  0  0  0  0
  6 12  1  0  0  0  0
  6 27  1  0  0  0  0
  6 28  1  0  0  0  0
  7 13  1  0  0  0  0
  8 14  1  0  0  0  0
  8 15  2  0  0  0  0
  9 16  1  0  0  0  0
  9 29  1  0  0  0  0
 10 17  2  0  0  0  0
 10 30  1  0  0  0  0
 12 18  1  0  0  0  0
 12 31  1  0  0  0  0
 12 32  1  0  0  0  0
 14 33  1  0  0  0  0
 14 34  1  0  0  0  0
 14 35  1  0  0  0  0
 16 19  2  0  0  0  0
 16 36  1  0  0  0  0
 17 19  1  0  0  0  0
 17 37  1  0  0  0  0
 18 20  1  0  0  0  0
 18 38  1  0  0  0  0
 18 39  1  0  0  0  0
 19 21  1  0  0  0  0
 20 22  1  0  0  0  0
 20 40  1  0  0  0  0
 20 41  1  0  0  0  0
 22 23  1  0  0  0  0
 22 42  1  0  0  0  0
 22 43  1  0  0  0  0
 23 24  1  0  0  0  0
 23 25  2  0  0  0  0
M  CHG  2  13  -1  24  -1
M  END
$$$$
