##########                                Name: HTS1710-04716268-01
##########                    Molecular_Weight:             370.368
##########                DOCK_Rotatable_Bonds:                   7
##########                       Formal_Charge:                  -2
##########                     HBond_Acceptors:                  10
##########                        HBond_Donors:                   1
##########                         Heavy_Atoms:                  27
##########                          Grid_Score:          -78.040924
##########                     Grid_vdw_energy:          -44.340435
##########                      Grid_es_energy:          -33.700493
##########           Internal_energy_repulsive:           11.308704

@<TRIPOS>MOLECULE
HTS1710-04716268-01
 45 48 1 0 0
SMALL
USER_CHARGES


@<TRIPOS>ATOM
      1 O          -1.1841   -7.8772  -35.0735 O.2     1  UNL1       -0.2682
      2 C          -0.5864   -7.3343  -35.9875 C.2     1  UNL1        0.2655
      3 N           0.5408   -7.9223  -36.5561 N.am    1  UNL1       -0.2778
      4 C           1.1105   -9.1369  -36.1862 C.ar    1  UNL1        0.0716
      5 C           2.3564   -9.5863  -36.6832 C.ar    1  UNL1        0.0706
      6 N           2.6670  -10.7549  -36.1491 N.ar    1  UNL1       -0.1777
      7 N           1.6146  -11.0557  -35.3128 N.ar    1  UNL1       -0.2678
      8 C           1.6520  -12.2607  -34.4697 C.3     1  UNL1        0.0602
      9 C           1.4551  -11.9538  -32.9590 C.3     1  UNL1        0.0458
     10 C           1.1042  -13.2335  -32.1550 C.3     1  UNL1       -0.0325
     11 C           2.3274  -14.1508  -31.9405 C.3     1  UNL1       -0.0499
     12 C           3.4940  -13.3576  -31.3203 C.3     1  UNL1       -0.0371
     13 C           3.8321  -12.0905  -32.1398 C.3     1  UNL1        0.0154
     14 N           2.6430  -11.2407  -32.4095 N.am    1  UNL1       -0.2915
     15 C           2.6110   -9.8429  -32.2708 C.2     1  UNL1        0.2640
     16 O           1.6107   -9.1997  -32.5457 O.2     1  UNL1       -0.2683
     17 C           3.8565   -9.1563  -31.8208 C.2     1  UNL1        0.1104
     18 C           4.3060   -8.9710  -30.5426 C.2     1  UNL1       -0.1020
     19 O           5.5347   -8.3692  -30.5337 O.co2   1  UNL1       -0.7762
     20 C           5.7486   -8.2438  -31.8878 C.2     1  UNL1       -0.0367
     21 N           4.8006   -8.7013  -32.6833 N.2     1  UNL1       -0.2660
     22 C           0.6336  -10.0785  -35.3201 C.ar    1  UNL1        0.0468
     23 C          -1.0289   -6.0344  -36.5302 C.2     1  UNL1        0.1105
     24 C          -2.0702   -5.3023  -36.0468 C.2     1  UNL1       -0.1020
     25 O          -2.2264   -4.1484  -36.7642 O.co2   1  UNL1       -0.7762
     26 C          -1.2005   -4.2924  -37.6763 C.2     1  UNL1       -0.0367
     27 N          -0.4658   -5.3875  -37.5805 N.2     1  UNL1       -0.2660
     28 H           0.9763   -7.4316  -37.2902 H       1  UNL1        0.1553
     29 H           2.9390   -9.0753  -37.3647 H       1  UNL1        0.0867
     30 H           2.6008  -12.7379  -34.5995 H       1  UNL1        0.0527
     31 H           0.8423  -12.8897  -34.7758 H       1  UNL1        0.0527
     32 H           0.6151  -11.2989  -32.8564 H       1  UNL1        0.0519
     33 H           0.3551  -13.7797  -32.6891 H       1  UNL1        0.0284
     34 H           0.7551  -12.9265  -31.1912 H       1  UNL1        0.0284
     35 H           2.6361  -14.5523  -32.8830 H       1  UNL1        0.0266
     36 H           2.0541  -14.9424  -31.2745 H       1  UNL1        0.0266
     37 H           4.3589  -13.9866  -31.2839 H       1  UNL1        0.0280
     38 H           3.1994  -13.0484  -30.3392 H       1  UNL1        0.0280
     39 H           4.2553  -12.3919  -33.0750 H       1  UNL1        0.0465
     40 H           4.5180  -11.5078  -31.5610 H       1  UNL1        0.0465
     41 H           3.7864   -9.2487  -29.6954 H       1  UNL1        0.0478
     42 H           6.6084   -7.8132  -32.2624 H       1  UNL1        0.0668
     43 H          -0.2533  -10.0650  -34.7926 H       1  UNL1        0.0845
     44 H          -2.6612   -5.5803  -35.2478 H       1  UNL1        0.0478
     45 H          -1.0156   -3.5791  -38.3987 H       1  UNL1        0.0668
@<TRIPOS>BOND
     1     1     2    2
     2     2     3   am
     3     3     4    1
     4     4     5   ar
     5     5     6   ar
     6     6     7   ar
     7     7     8    1
     8     8     9    1
     9     9    10    1
    10    10    11    1
    11    11    12    1
    12    12    13    1
    13    13    14    1
    14     9    14    1
    15    14    15   am
    16    15    16    2
    17    15    17    1
    18    17    18    2
    19    18    19    1
    20    19    20    1
    21    20    21    2
    22    17    21    1
    23     7    22   ar
    24     4    22   ar
    25     2    23    1
    26    23    24    2
    27    24    25    1
    28    25    26    1
    29    26    27    2
    30    23    27    1
    31     3    28    1
    32     5    29    1
    33     8    30    1
    34     8    31    1
    35     9    32    1
    36    10    33    1
    37    10    34    1
    38    11    35    1
    39    11    36    1
    40    12    37    1
    41    12    38    1
    42    13    39    1
    43    13    40    1
    44    18    41    1
    45    20    42    1
    46    22    43    1
    47    24    44    1
    48    26    45    1
@<TRIPOS>SUBSTRUCTURE
     1 UNL1        1 TEMP              0 ****  ****    0 ROOT


