##########                                Name: HTS1710-04659062-01
##########                    Molecular_Weight:             312.302
##########                DOCK_Rotatable_Bonds:                   5
##########                       Formal_Charge:                  -2
##########                     HBond_Acceptors:                   6
##########                        HBond_Donors:                   0
##########                         Heavy_Atoms:                  23
##########                          Grid_Score:          -77.669754
##########                     Grid_vdw_energy:          -36.718136
##########                      Grid_es_energy:          -40.951614
##########           Internal_energy_repulsive:           12.585713

@<TRIPOS>MOLECULE
HTS1710-04659062-01
 37 39 1 0 0
SMALL
USER_CHARGES


@<TRIPOS>ATOM
      1 C           4.8408  -13.7952  -29.0960 C.ar    1  UNL1        0.1263
      2 C           4.8907   -9.4230  -32.1668 C.2     1  UNL1       -0.0170
      3 C           3.8168  -10.0405  -30.3176 C.2     1  UNL1       -0.0300
      4 C           2.9301  -10.6913  -29.3053 C.2     1  UNL1        0.2331
      5 N           3.0404  -12.0831  -29.1287 N.am    1  UNL1       -0.2917
      6 C           3.8206  -10.2153  -31.6841 C.2     1  UNL1       -0.0558
      7 O           6.0176  -13.3729  -28.5089 O.2     1  UNL1       -0.4578
      8 C           4.4769  -15.1082  -28.8511 C.ar    1  UNL1       -0.0111
      9 O           4.8286   -9.2190  -29.8762 O.co2   1  UNL1       -0.7816
     10 C           4.0255  -12.8473  -29.9478 C.3     1  UNL1        0.0811
     11 C           5.4399   -8.8555  -31.0477 C.2     1  UNL1       -0.1247
     12 C           5.3271   -9.2621  -33.5663 C.2     1  UNL1        0.0706
     13 C           6.4384  -14.4944  -27.8487 C.ar    1  UNL1        0.1353
     14 C           5.5676  -15.5474  -28.0169 C.ar    1  UNL1        0.0205
     15 O           2.1523  -10.0223  -28.6444 O.2     1  UNL1       -0.2712
     16 O           5.1422  -10.1964  -34.3271 O.co2   1  UNL1       -0.5447
     17 O           5.8457   -8.2026  -33.8742 O.co2   1  UNL1       -0.5447
     18 C           2.5472  -12.7794  -27.9159 C.3     1  UNL1        0.0041
     19 C           3.3921  -13.5840  -31.1593 C.3     1  UNL1       -0.0393
     20 C           7.6024  -14.6165  -27.0813 C.ar    1  UNL1       -0.0188
     21 C           5.8045  -16.7959  -27.4293 C.ar    1  UNL1       -0.0510
     22 C           7.8644  -15.8645  -26.4776 C.ar    1  UNL1       -0.0582
     23 C           6.9707  -16.9469  -26.6512 C.ar    1  UNL1       -0.0610
     24 H           3.1780  -10.8012  -32.2398 H       1  UNL1        0.0620
     25 H           3.6491  -15.6310  -29.1773 H       1  UNL1        0.0659
     26 H           4.6852  -12.1135  -30.3617 H       1  UNL1        0.0579
     27 H           6.2443   -8.2101  -31.0836 H       1  UNL1        0.0461
     28 H           1.8503  -12.1506  -27.4022 H       1  UNL1        0.0429
     29 H           3.3719  -12.9995  -27.2707 H       1  UNL1        0.0429
     30 H           2.0633  -13.6906  -28.1997 H       1  UNL1        0.0429
     31 H           2.7174  -14.3358  -30.8064 H       1  UNL1        0.0252
     32 H           4.1642  -14.0424  -31.7414 H       1  UNL1        0.0252
     33 H           2.8584  -12.8815  -31.7647 H       1  UNL1        0.0252
     34 H           8.2477  -13.8201  -26.9610 H       1  UNL1        0.0654
     35 H           5.1469  -17.5803  -27.5615 H       1  UNL1        0.0625
     36 H           8.7142  -15.9884  -25.9053 H       1  UNL1        0.0619
     37 H           7.1738  -17.8548  -26.2045 H       1  UNL1        0.0618
@<TRIPOS>BOND
     1     2     6    1
     2     3     4    1
     3     4     5   am
     4     5    10    1
     5     3     6    2
     6     1     7   ar
     7     1     8   ar
     8     3     9    1
     9     1    10    1
    10     9    11    1
    11     2    12    1
    12     7    13   ar
    13     8    14   ar
    14     4    15    2
    15    12    16   ar
    16    12    17   ar
    17     5    18    1
    18    10    19    1
    19    13    20   ar
    20    14    21   ar
    21    20    22   ar
    22    21    23   ar
    23    13    14   ar
    24    22    23   ar
    25     2    11    2
    26     6    24    1
    27     8    25    1
    28    10    26    1
    29    11    27    1
    30    18    28    1
    31    18    29    1
    32    18    30    1
    33    19    31    1
    34    19    32    1
    35    19    33    1
    36    20    34    1
    37    21    35    1
    38    22    36    1
    39    23    37    1
@<TRIPOS>SUBSTRUCTURE
     1 UNL1        1 TEMP              0 ****  ****    0 ROOT


