##########                                Name: HTS1710-02789732-01
##########                    Molecular_Weight:             389.362
##########                DOCK_Rotatable_Bonds:                   8
##########                       Formal_Charge:                  -2
##########                     HBond_Acceptors:                   9
##########                        HBond_Donors:                   3
##########                         Heavy_Atoms:                  28
##########                          Grid_Score:          -80.061279
##########                     Grid_vdw_energy:          -44.438255
##########                      Grid_es_energy:          -35.623020
##########           Internal_energy_repulsive:           16.910379

@<TRIPOS>MOLECULE
HTS1710-02789732-01
 47 49 1 0 0
SMALL
USER_CHARGES


@<TRIPOS>ATOM
      1 C           4.2916   -9.5421  -30.3839 C.2     1  UNL1       -0.0555
      2 C           4.4159  -10.4204  -31.4478 C.2     1  UNL1       -0.1089
      3 C           5.4003   -8.4980  -32.7538 C.2     1  UNL1        0.0539
      4 C           5.2334   -7.7502  -31.6226 C.2     1  UNL1       -0.0306
      5 C           4.8882   -9.9453  -32.7969 C.3     1  UNL1        0.0319
      6 O           4.6385   -8.2160  -30.4805 O.co2   1  UNL1       -0.7688
      7 C           3.7814  -10.1487  -33.8495 C.ar    1  UNL1        0.0088
      8 C           3.7645  -10.0005  -29.0918 C.2     1  UNL1        0.1708
      9 O           4.0847  -11.7609  -31.3866 O.co2   1  UNL1       -0.7839
     10 C           3.4127  -11.4191  -29.0790 C.2     1  UNL1       -0.0241
     11 C           6.0823   -7.9765  -34.0098 C.2     1  UNL1        0.3364
     12 C           2.4513   -9.7122  -33.6222 C.ar    1  UNL1        0.1655
     13 C           3.5824  -12.2163  -30.1882 C.2     1  UNL1       -0.0886
     14 N           5.6647   -6.4455  -31.5506 N.pl3   1  UNL1       -0.3685
     15 O           3.6273   -9.2753  -28.1215 O.2     1  UNL1       -0.2886
     16 C           1.4594   -9.9264  -34.6246 C.ar    1  UNL1        0.1618
     17 O           5.7351   -8.2334  -35.1520 O.2     1  UNL1       -0.2453
     18 O           2.1928   -9.0933  -32.4049 O.3     1  UNL1       -0.4911
     19 O           7.1486   -7.1659  -33.7258 O.3     1  UNL1       -0.4646
     20 C           4.1053  -10.8032  -35.0520 C.ar    1  UNL1       -0.0540
     21 O           0.1552   -9.5028  -34.4296 O.3     1  UNL1       -0.4914
     22 C           3.2051  -13.6735  -30.1294 C.3     1  UNL1        0.0566
     23 O           1.8124  -13.8529  -30.3709 O.3     1  UNL1       -0.3915
     24 C           3.1323  -11.0135  -36.0335 C.ar    1  UNL1       -0.0578
     25 C           1.8190  -10.5785  -35.8253 C.ar    1  UNL1       -0.0163
     26 C           1.7572   -7.7401  -32.1928 C.3     1  UNL1        0.0790
     27 C           7.2514   -5.8763  -34.3559 C.3     1  UNL1        0.0820
     28 C          -0.4108   -8.3309  -35.0419 C.3     1  UNL1        0.0790
     29 H           5.7286  -10.5409  -33.0865 H       1  UNL1        0.0438
     30 H           3.0271  -11.8337  -28.2161 H       1  UNL1        0.0647
     31 H           6.4479   -6.2156  -31.0003 H       1  UNL1        0.1413
     32 H           5.1901   -5.7419  -32.0496 H       1  UNL1        0.1413
     33 H           5.0707  -11.1314  -35.2111 H       1  UNL1        0.0622
     34 H           3.4439  -14.0575  -29.1597 H       1  UNL1        0.0596
     35 H           3.7515  -14.1968  -30.8862 H       1  UNL1        0.0596
     36 H           1.6051  -14.8005  -30.3785 H       1  UNL1        0.2098
     37 H           3.3832  -11.4906  -36.9135 H       1  UNL1        0.0619
     38 H           1.1065  -10.7353  -36.5553 H       1  UNL1        0.0655
     39 H           1.6458   -7.5616  -31.1437 H       1  UNL1        0.0660
     40 H           0.8182   -7.5869  -32.6824 H       1  UNL1        0.0660
     41 H           2.4833   -7.0646  -32.5944 H       1  UNL1        0.0660
     42 H           8.1402   -5.3847  -34.0193 H       1  UNL1        0.0661
     43 H           6.3976   -5.2848  -34.0990 H       1  UNL1        0.0661
     44 H           7.2929   -6.0005  -35.4178 H       1  UNL1        0.0661
     45 H          -1.4294   -8.2233  -34.7322 H       1  UNL1        0.0660
     46 H          -0.3702   -8.4298  -36.1065 H       1  UNL1        0.0660
     47 H           0.1461   -7.4677  -34.7424 H       1  UNL1        0.0660
@<TRIPOS>BOND
     1     1     2    2
     2     1     6    1
     3     1     8    1
     4     2     5    1
     5     2     9    1
     6     3     4    2
     7     3     5    1
     8     3    11    1
     9     4     6    1
    10     4    14    1
    11     5     7    1
    12     7    12   ar
    13     7    20   ar
    14     8    10    1
    15     8    15    2
    16     9    13    1
    17    10    13    2
    18    11    17    2
    19    11    19    1
    20    12    16   ar
    21    12    18    1
    22    13    22    1
    23    16    21    1
    24    16    25   ar
    25    18    26    1
    26    19    27    1
    27    20    24   ar
    28    21    28    1
    29    22    23    1
    30    24    25   ar
    31     5    29    1
    32    10    30    1
    33    14    31    1
    34    14    32    1
    35    20    33    1
    36    22    34    1
    37    22    35    1
    38    23    36    1
    39    24    37    1
    40    25    38    1
    41    26    39    1
    42    26    40    1
    43    26    41    1
    44    27    42    1
    45    27    43    1
    46    27    44    1
    47    28    45    1
    48    28    46    1
    49    28    47    1
@<TRIPOS>SUBSTRUCTURE
     1 UNL1        1 TEMP              0 ****  ****    0 ROOT


