##########                                Name: HTS1710-01268417-01
##########                    Molecular_Weight:             401.416
##########                DOCK_Rotatable_Bonds:                   9
##########                       Formal_Charge:                  -2
##########                     HBond_Acceptors:                   8
##########                        HBond_Donors:                   0
##########                         Heavy_Atoms:                  29
##########                          Grid_Score:          -78.814407
##########                     Grid_vdw_energy:          -47.597752
##########                      Grid_es_energy:          -31.216652
##########           Internal_energy_repulsive:           17.866451

@<TRIPOS>MOLECULE
HTS1710-01268417-01
 52 53 1 0 0
SMALL
USER_CHARGES


@<TRIPOS>ATOM
      1 C           2.7211   -8.1052  -32.1454 C.ar    1  UNL1        0.0174
      2 C           2.7908   -9.0853  -33.2641 C.ar    1  UNL1        0.2550
      3 N           1.7337   -9.0132  -34.1749 N.ar    1  UNL1       -0.3070
      4 C           1.7166   -7.1519  -32.0226 C.ar    1  UNL1       -0.0978
      5 C           0.6823   -7.1427  -33.0182 C.ar    1  UNL1       -0.0498
      6 C           0.7090   -8.0654  -34.0456 C.ar    1  UNL1        0.0188
      7 C           3.8286   -8.1806  -31.0872 C.3     1  UNL1        0.0238
      8 C           1.7220   -9.9892  -35.3031 C.3     1  UNL1        0.0657
      9 O           3.6999   -9.8927  -33.3794 O.2     1  UNL1       -0.2674
     10 C           5.2218   -7.8357  -31.6946 C.3     1  UNL1        0.0559
     11 C           3.7604   -9.5137  -30.3207 C.ar    1  UNL1       -0.0391
     12 C           2.4830   -9.4301  -36.5135 C.2     1  UNL1        0.0615
     13 C           5.3457   -6.3477  -32.0445 C.2     1  UNL1        0.3077
     14 O           1.8178   -9.0012  -37.4397 O.co2   1  UNL1       -0.5480
     15 O           4.8770   -5.4528  -31.3601 O.2     1  UNL1       -0.2508
     16 O           1.6561   -6.2357  -31.0334 O.co2   1  UNL1       -0.8733
     17 C           2.8048   -9.6441  -29.2939 C.ar    1  UNL1       -0.0545
     18 C           4.5901  -10.6184  -30.6166 C.ar    1  UNL1       -0.0545
     19 O           3.3814  -13.1639  -28.2420 O.3     1  UNL1       -0.4894
     20 C           3.4824  -11.9504  -28.8999 C.ar    1  UNL1        0.1209
     21 O           3.7010   -9.4467  -36.4681 O.co2   1  UNL1       -0.5480
     22 C           2.6616  -10.8478  -28.5874 C.ar    1  UNL1       -0.0197
     23 C           4.4513  -11.8221  -29.9074 C.ar    1  UNL1       -0.0197
     24 O           6.0542   -6.1567  -33.1989 O.3     1  UNL1       -0.4679
     25 C          -0.4289   -8.0048  -35.0494 C.3     1  UNL1       -0.0242
     26 C           3.5142  -14.4508  -28.8832 C.3     1  UNL1        0.0946
     27 C           6.3721   -4.8189  -33.6180 C.3     1  UNL1        0.0817
     28 C           2.1055  -15.0806  -28.9462 C.3     1  UNL1       -0.0281
     29 C           4.4909  -15.3280  -28.0600 C.3     1  UNL1       -0.0281
     30 H          -0.0794   -6.4484  -32.9663 H       1  UNL1        0.0629
     31 H           3.6666   -7.4240  -30.3483 H       1  UNL1        0.0404
     32 H           0.7093  -10.1868  -35.5859 H       1  UNL1        0.0554
     33 H           2.2012  -10.8906  -34.9825 H       1  UNL1        0.0554
     34 H           5.3625   -8.4125  -32.5848 H       1  UNL1        0.0387
     35 H           5.9669   -8.0653  -30.9618 H       1  UNL1        0.0387
     36 H           2.2005   -8.8416  -29.0576 H       1  UNL1        0.0622
     37 H           5.3028  -10.5400  -31.3589 H       1  UNL1        0.0622
     38 H           1.9555  -10.9259  -27.8388 H       1  UNL1        0.0654
     39 H           5.0672  -12.6200  -30.1289 H       1  UNL1        0.0654
     40 H          -1.1030   -7.2196  -34.7775 H       1  UNL1        0.0292
     41 H          -0.9516   -8.9383  -35.0528 H       1  UNL1        0.0292
     42 H          -0.0339   -7.8136  -36.0253 H       1  UNL1        0.0292
     43 H           3.9102  -14.3633  -29.8734 H       1  UNL1        0.0727
     44 H           6.9249   -4.8539  -34.5334 H       1  UNL1        0.0661
     45 H           6.9607   -4.3394  -32.8639 H       1  UNL1        0.0661
     46 H           5.4674   -4.2678  -33.7685 H       1  UNL1        0.0661
     47 H           1.7093  -15.1681  -27.9561 H       1  UNL1        0.0265
     48 H           2.1683  -16.0511  -29.3924 H       1  UNL1        0.0265
     49 H           1.4628  -14.4588  -29.5338 H       1  UNL1        0.0265
     50 H           4.1203  -15.4339  -27.0618 H       1  UNL1        0.0265
     51 H           5.4541  -14.8625  -28.0355 H       1  UNL1        0.0265
     52 H           4.5728  -16.2933  -28.5144 H       1  UNL1        0.0265
@<TRIPOS>BOND
     1     1     2   ar
     2     2     3   ar
     3     1     4   ar
     4     4     5   ar
     5     5     6   ar
     6     1     7    1
     7     3     8    1
     8     2     9    2
     9     7    10    1
    10     7    11    1
    11     8    12    1
    12    10    13    1
    13    12    14   ar
    14    13    15    2
    15     4    16    1
    16    11    17   ar
    17    11    18   ar
    18    19    20    1
    19    20    23   ar
    20    12    21   ar
    21    17    22   ar
    22    18    23   ar
    23    13    24    1
    24     6    25    1
    25    19    26    1
    26    24    27    1
    27    26    28    1
    28    26    29    1
    29     3     6   ar
    30    20    22   ar
    31     5    30    1
    32     7    31    1
    33     8    32    1
    34     8    33    1
    35    10    34    1
    36    10    35    1
    37    17    36    1
    38    18    37    1
    39    22    38    1
    40    23    39    1
    41    25    40    1
    42    25    41    1
    43    25    42    1
    44    26    43    1
    45    27    44    1
    46    27    45    1
    47    27    46    1
    48    28    47    1
    49    28    48    1
    50    28    49    1
    51    29    50    1
    52    29    51    1
    53    29    52    1
@<TRIPOS>SUBSTRUCTURE
     1 UNL1        1 TEMP              0 ****  ****    0 ROOT


