HTS1710-01246511-01
 OpenBabel03232612353D

 41 43  0  0  1  0  0  0  0  0999 V2000
    4.4214   -7.2957  -31.4263 C   0  0  0  0  0  0  0  0  0  0  0  0
    4.9866   -8.2626  -32.2409 C   0  0  0  0  0  0  0  0  0  0  0  0
    3.6986   -9.9620  -30.9079 C   0  0  0  0  0  0  0  0  0  0  0  0
    3.2331   -8.9146  -30.1681 C   0  0  0  0  0  0  0  0  0  0  0  0
    3.4838   -7.6007  -30.4684 O   0  0  0  0  0  0  0  0  0  0  0  0
    4.5346   -9.6951  -32.1649 C   0  0  1  0  0  0  0  0  0  0  0  0
    4.8039   -5.8837  -31.5624 C   0  0  0  0  0  0  0  0  0  0  0  0
    5.9425   -8.0003  -33.2042 O   0  0  0  0  0  0  0  0  0  0  0  0
    5.8086   -5.6527  -32.5981 C   0  0  0  0  0  0  0  0  0  0  0  0
    3.4160  -11.4195  -30.5774 C   0  0  0  0  0  0  0  0  0  0  0  0
    6.3287   -6.6854  -33.3479 C   0  0  0  0  0  0  0  0  0  0  0  0
    3.7674  -10.0715  -33.4327 C   0  0  0  0  0  0  0  0  0  0  0  0
    2.4586   -9.1103  -29.0484 N   0  0  0  0  0  0  0  0  0  0  0  0
    4.3352   -4.9877  -30.8813 O   0  0  0  0  0  0  0  0  0  0  0  0
    2.4969  -11.8132  -29.8766 O   0  0  0  0  0  0  0  0  0  0  0  0
    2.3461  -10.7526  -35.7775 N   0  0  0  0  0  0  0  0  0  0  0  0
    4.3135  -12.2667  -31.1691 O   0  0  0  0  0  0  0  0  0  0  0  0
    7.3596   -6.4033  -34.4111 C   0  0  0  0  0  0  0  0  0  0  0  0
    6.7999   -6.4939  -35.7191 O   0  0  0  0  0  0  0  0  0  0  0  0
    1.7039  -10.2929  -34.6855 C   0  0  0  0  0  0  0  0  0  0  0  0
    3.6868  -10.8808  -35.7171 C   0  0  0  0  0  0  0  0  0  0  0  0
    4.4361  -10.5562  -34.5723 C   0  0  0  0  0  0  0  0  0  0  0  0
    2.3679   -9.9431  -33.4973 C   0  0  0  0  0  0  0  0  0  0  0  0
    4.4012  -13.6360  -30.7388 C   0  0  0  0  0  0  0  0  0  0  0  0
    4.7865  -13.6414  -29.2482 C   0  0  0  0  0  0  0  0  0  0  0  0
    5.4040  -10.3147  -32.0951 H   0  0  0  0  0  0  0  0  0  0  0  0
    6.1376   -4.6902  -32.7728 H   0  0  0  0  0  0  0  0  0  0  0  0
    2.5717   -9.9254  -28.5080 H   0  0  0  0  0  0  0  0  0  0  0  0
    1.7912   -8.4353  -28.7873 H   0  0  0  0  0  0  0  0  0  0  0  0
    8.1538   -7.1149  -34.3227 H   0  0  0  0  0  0  0  0  0  0  0  0
    7.7232   -5.4069  -34.2700 H   0  0  0  0  0  0  0  0  0  0  0  0
    6.0513   -5.8816  -35.7936 H   0  0  0  0  0  0  0  0  0  0  0  0
    0.6773  -10.1932  -34.7235 H   0  0  0  0  0  0  0  0  0  0  0  0
    4.1859  -11.2331  -36.5489 H   0  0  0  0  0  0  0  0  0  0  0  0
    5.4616  -10.6717  -34.5678 H   0  0  0  0  0  0  0  0  0  0  0  0
    1.8363   -9.5969  -32.6834 H   0  0  0  0  0  0  0  0  0  0  0  0
    5.1476  -14.1489  -31.3087 H   0  0  0  0  0  0  0  0  0  0  0  0
    3.4642  -14.1321  -30.8827 H   0  0  0  0  0  0  0  0  0  0  0  0
    5.7245  -13.1425  -29.1204 H   0  0  0  0  0  0  0  0  0  0  0  0
    4.8702  -14.6514  -28.9051 H   0  0  0  0  0  0  0  0  0  0  0  0
    4.0327  -13.1340  -28.6831 H   0  0  0  0  0  0  0  0  0  0  0  0
  1  2  2  0  0  0  0
  1  5  1  0  0  0  0
  1  7  1  0  0  0  0
  2  6  1  0  0  0  0
  2  8  1  0  0  0  0
  3  4  2  0  0  0  0
  3 10  1  0  0  0  0
  3  6  1  0  0  0  0
  4  5  1  0  0  0  0
  4 13  1  0  0  0  0
  6 12  1  0  0  0  0
  6 26  1  1  0  0  0
  7  9  1  0  0  0  0
  7 14  2  0  0  0  0
  8 11  1  0  0  0  0
  9 11  2  0  0  0  0
  9 27  1  0  0  0  0
 10 15  2  0  0  0  0
 10 17  1  0  0  0  0
 11 18  1  0  0  0  0
 12 22  2  0  0  0  0
 12 23  1  0  0  0  0
 13 28  1  0  0  0  0
 13 29  1  0  0  0  0
 16 20  1  0  0  0  0
 16 21  2  0  0  0  0
 17 24  1  0  0  0  0
 18 19  1  0  0  0  0
 18 30  1  0  0  0  0
 18 31  1  0  0  0  0
 19 32  1  0  0  0  0
 20 23  2  0  0  0  0
 20 33  1  0  0  0  0
 21 22  1  0  0  0  0
 21 34  1  0  0  0  0
 22 35  1  0  0  0  0
 23 36  1  0  0  0  0
 24 25  1  0  0  0  0
 24 37  1  0  0  0  0
 24 38  1  0  0  0  0
 25 39  1  0  0  0  0
 25 40  1  0  0  0  0
 25 41  1  0  0  0  0
M  END
$$$$
