HTS1710-01225757-01
 OpenBabel03232612343D

 44 43  0  0  0  0  0  0  0  0999 V2000
    2.0882  -11.3000  -35.4818 C   0  0  0  0  0  0  0  0  0  0  0  0
    1.9337  -14.3853  -30.4539 C   0  0  0  0  0  0  0  0  0  0  0  0
    6.0766   -8.1316  -33.7274 C   0  0  0  0  0  0  0  0  0  0  0  0
    3.6511   -9.3686  -29.2820 C   0  0  0  0  0  0  0  0  0  0  0  0
    1.7236  -10.4547  -36.2830 O   0  0  0  0  0  0  0  0  0  0  0  0
    1.1957  -14.5532  -29.4973 O   0  0  0  0  0  0  0  0  0  0  0  0
    6.3307   -7.3398  -34.6181 O   0  5  0  0  0  0  0  0  0  0  0  0
    4.6391   -9.0827  -29.9366 O   0  5  0  0  0  0  0  0  0  0  0  0
    3.1832  -13.8045  -30.2795 N   0  0  0  0  0  0  0  0  0  0  0  0
    3.4383  -11.5799  -35.3264 N   0  0  0  0  0  0  0  0  0  0  0  0
    6.2317   -7.9285  -32.5359 O   0  0  0  0  0  0  0  0  0  0  0  0
    3.0524   -8.6099  -28.5403 O   0  0  0  0  0  0  0  0  0  0  0  0
    1.5291  -14.8441  -31.8615 C   0  0  0  0  0  0  0  0  0  0  0  0
    1.0860  -12.0835  -34.6263 C   0  0  0  0  0  0  0  0  0  0  0  0
    3.1395  -10.8116  -29.3758 C   0  0  0  0  0  0  0  0  0  0  0  0
    5.5188   -9.5039  -34.1389 C   0  0  0  0  0  0  0  0  0  0  0  0
    4.4944  -10.8997  -36.0855 C   0  0  0  0  0  0  0  0  0  0  0  0
    3.6804  -13.3272  -28.9812 C   0  0  0  0  0  0  0  0  0  0  0  0
    4.7724   -9.4918  -35.5009 C   0  0  0  0  0  0  0  0  0  0  0  0
    4.2252  -11.8809  -29.0759 C   0  0  0  0  0  0  0  0  0  0  0  0
    1.7409  -12.7667  -33.4014 C   0  0  0  0  0  0  0  0  0  0  0  0
    0.7879  -13.7566  -32.6810 C   0  0  0  0  0  0  0  0  0  0  0  0
    3.7665  -13.7075  -31.0667 H   0  0  0  0  0  0  0  0  0  0  0  0
    3.7010  -12.2693  -34.6744 H   0  0  0  0  0  0  0  0  0  0  0  0
    0.8859  -15.6941  -31.7682 H   0  0  0  0  0  0  0  0  0  0  0  0
    2.4321  -15.0722  -32.3883 H   0  0  0  0  0  0  0  0  0  0  0  0
    0.6335  -12.8375  -35.2359 H   0  0  0  0  0  0  0  0  0  0  0  0
    0.3660  -11.3842  -34.2558 H   0  0  0  0  0  0  0  0  0  0  0  0
    2.7694  -10.9749  -30.3665 H   0  0  0  0  0  0  0  0  0  0  0  0
    2.3785  -10.9221  -28.6318 H   0  0  0  0  0  0  0  0  0  0  0  0
    4.8364   -9.8317  -33.3827 H   0  0  0  0  0  0  0  0  0  0  0  0
    6.3557  -10.1619  -34.2468 H   0  0  0  0  0  0  0  0  0  0  0  0
    4.1857  -10.8014  -37.1053 H   0  0  0  0  0  0  0  0  0  0  0  0
    5.3908  -11.4805  -36.0221 H   0  0  0  0  0  0  0  0  0  0  0  0
    4.4668  -13.9736  -28.6516 H   0  0  0  0  0  0  0  0  0  0  0  0
    2.8651  -13.3329  -28.2882 H   0  0  0  0  0  0  0  0  0  0  0  0
    5.3671   -8.9477  -36.2046 H   0  0  0  0  0  0  0  0  0  0  0  0
    3.8194   -9.0382  -35.3252 H   0  0  0  0  0  0  0  0  0  0  0  0
    4.6899  -11.6353  -28.1438 H   0  0  0  0  0  0  0  0  0  0  0  0
    4.9107  -11.8629  -29.8973 H   0  0  0  0  0  0  0  0  0  0  0  0
    2.0362  -12.0095  -32.7054 H   0  0  0  0  0  0  0  0  0  0  0  0
    2.5788  -13.3291  -33.7572 H   0  0  0  0  0  0  0  0  0  0  0  0
    0.1612  -13.2000  -32.0159 H   0  0  0  0  0  0  0  0  0  0  0  0
    0.2275  -14.2619  -33.4396 H   0  0  0  0  0  0  0  0  0  0  0  0
  1  5  2  0  0  0  0
  1 10  1  0  0  0  0
  1 14  1  0  0  0  0
  2 13  1  0  0  0  0
  2  6  2  0  0  0  0
  2  9  1  0  0  0  0
  3 16  1  0  0  0  0
  3  7  1  0  0  0  0
  3 11  2  0  0  0  0
  4 15  1  0  0  0  0
  4  8  1  0  0  0  0
  4 12  2  0  0  0  0
  9 18  1  0  0  0  0
  9 23  1  0  0  0  0
 10 17  1  0  0  0  0
 10 24  1  0  0  0  0
 13 22  1  0  0  0  0
 13 25  1  0  0  0  0
 13 26  1  0  0  0  0
 14 21  1  0  0  0  0
 14 27  1  0  0  0  0
 14 28  1  0  0  0  0
 15 20  1  0  0  0  0
 15 29  1  0  0  0  0
 15 30  1  0  0  0  0
 16 19  1  0  0  0  0
 16 31  1  0  0  0  0
 16 32  1  0  0  0  0
 17 19  1  0  0  0  0
 17 33  1  0  0  0  0
 17 34  1  0  0  0  0
 18 20  1  0  0  0  0
 18 35  1  0  0  0  0
 18 36  1  0  0  0  0
 19 37  1  0  0  0  0
 19 38  1  0  0  0  0
 20 39  1  0  0  0  0
 20 40  1  0  0  0  0
 21 22  1  0  0  0  0
 21 41  1  0  0  0  0
 21 42  1  0  0  0  0
 22 43  1  0  0  0  0
 22 44  1  0  0  0  0
M  CHG  2   7  -1   8  -1
M  END
$$$$
