##########                                Name: HTS1710-04762373-01
##########                    Molecular_Weight:             345.332
##########                DOCK_Rotatable_Bonds:                   8
##########                       Formal_Charge:                  -2
##########                     HBond_Acceptors:                   8
##########                        HBond_Donors:                   1
##########                         Heavy_Atoms:                  25
##########                          Grid_Score:          -78.821762
##########                     Grid_vdw_energy:          -38.015491
##########                      Grid_es_energy:          -40.806271
##########           Internal_energy_repulsive:            7.399502

@<TRIPOS>MOLECULE
HTS1710-04762373-01
 42 44 1 0 0
SMALL
USER_CHARGES


@<TRIPOS>ATOM
      1 O          -4.3057   -7.0052  -35.9445 O.co2   1  UNL1       -0.5463
      2 C          -3.5469   -7.1113  -34.9980 C.2     1  UNL1        0.0789
      3 O          -3.5246   -8.0443  -34.2131 O.co2   1  UNL1       -0.5463
      4 C          -2.5442   -5.9647  -34.7961 C.3     1  UNL1        0.1286
      5 O          -1.4531   -6.0289  -35.7401 O.3     1  UNL1       -0.4862
      6 C          -0.5545   -7.0791  -35.7709 C.ar    1  UNL1        0.1213
      7 C           0.2250   -7.2575  -36.9256 C.ar    1  UNL1       -0.0199
      8 C           1.1449   -8.3154  -37.0018 C.ar    1  UNL1       -0.0580
      9 C           1.2900   -9.2007  -35.9232 C.ar    1  UNL1       -0.0569
     10 C           0.5173   -9.0313  -34.7612 C.ar    1  UNL1       -0.0269
     11 C           0.6651   -9.9922  -33.5904 C.3     1  UNL1        0.0373
     12 N           1.9854   -9.8076  -32.9808 N.am    1  UNL1       -0.3060
     13 C           2.2864   -8.7275  -32.1604 C.2     1  UNL1        0.2618
     14 O           1.4201   -7.8979  -31.9353 O.2     1  UNL1       -0.2686
     15 C           3.6572   -8.6466  -31.6003 C.2     1  UNL1        0.1158
     16 N           4.5240   -7.6317  -31.8545 N.2     1  UNL1       -0.2657
     17 C           5.6000   -7.9693  -31.1630 C.2     1  UNL1       -0.0365
     18 O           5.5389   -9.1473  -30.4484 O.co2   1  UNL1       -0.7724
     19 C           4.2681   -9.5430  -30.7673 C.2     1  UNL1       -0.0569
     20 C           3.6852  -10.8385  -30.2396 C.3     1  UNL1        0.0731
     21 C           2.9374  -10.7474  -28.8901 C.3     1  UNL1       -0.0214
     22 C           3.2068  -12.1079  -28.2196 C.3     1  UNL1       -0.0268
     23 C           4.1541  -12.8383  -29.1900 C.3     1  UNL1        0.0485
     24 O           4.7376  -11.7717  -29.9528 O.3     1  UNL1       -0.3730
     25 C          -0.4029   -7.9704  -34.6854 C.ar    1  UNL1       -0.0153
     26 H          -2.1470   -6.0235  -33.8042 H       1  UNL1        0.0760
     27 H          -3.0621   -5.0413  -34.9510 H       1  UNL1        0.0760
     28 H           0.1211   -6.6083  -37.7212 H       1  UNL1        0.0654
     29 H           1.7153   -8.4419  -37.8526 H       1  UNL1        0.0619
     30 H           1.9658   -9.9784  -35.9830 H       1  UNL1        0.0621
     31 H           0.5695  -10.9992  -33.9393 H       1  UNL1        0.0512
     32 H          -0.0969   -9.7962  -32.8653 H       1  UNL1        0.0512
     33 H           2.6865  -10.4752  -33.1597 H       1  UNL1        0.1494
     34 H           6.4461   -7.3784  -31.1585 H       1  UNL1        0.0668
     35 H           3.0058  -11.1211  -31.0164 H       1  UNL1        0.0635
     36 H           1.8888  -10.6016  -29.0458 H       1  UNL1        0.0294
     37 H           3.2661   -9.9227  -28.2930 H       1  UNL1        0.0294
     38 H           2.2958  -12.6555  -28.0970 H       1  UNL1        0.0288
     39 H           3.6295  -12.0020  -27.2423 H       1  UNL1        0.0288
     40 H           3.6112  -13.5089  -29.8228 H       1  UNL1        0.0560
     41 H           4.8830  -13.4398  -28.6881 H       1  UNL1        0.0560
     42 H          -0.9701   -7.8425  -33.8328 H       1  UNL1        0.0657
@<TRIPOS>BOND
     1     1     2   ar
     2     2     3   ar
     3     2     4    1
     4     4     5    1
     5     5     6    1
     6     6     7   ar
     7     7     8   ar
     8     8     9   ar
     9     9    10   ar
    10    10    11    1
    11    11    12    1
    12    12    13   am
    13    13    14    2
    14    13    15    1
    15    15    16    1
    16    16    17    2
    17    17    18    1
    18    18    19    1
    19    15    19    2
    20    19    20    1
    21    20    21    1
    22    21    22    1
    23    22    23    1
    24    23    24    1
    25    20    24    1
    26    10    25   ar
    27     6    25   ar
    28     4    26    1
    29     4    27    1
    30     7    28    1
    31     8    29    1
    32     9    30    1
    33    11    31    1
    34    11    32    1
    35    12    33    1
    36    17    34    1
    37    20    35    1
    38    21    36    1
    39    21    37    1
    40    22    38    1
    41    22    39    1
    42    23    40    1
    43    23    41    1
    44    25    42    1
@<TRIPOS>SUBSTRUCTURE
     1 UNL1        1 TEMP              0 ****  ****    0 ROOT


