##########                                Name: HTS1710-01929760-01
##########                    Molecular_Weight:             321.262
##########                DOCK_Rotatable_Bonds:                  10
##########                       Formal_Charge:                  -2
##########                     HBond_Acceptors:                   8
##########                        HBond_Donors:                   2
##########                         Heavy_Atoms:                  23
##########                          Grid_Score:          -77.651093
##########                     Grid_vdw_energy:          -35.234486
##########                      Grid_es_energy:          -42.416607
##########           Internal_energy_repulsive:            3.992341

@<TRIPOS>MOLECULE
HTS1710-01929760-01
 35 35 1 0 0
SMALL
USER_CHARGES


@<TRIPOS>ATOM
      1 C           3.3768  -10.9132  -29.7035 C.2     1  UNL1        0.1120
      2 C           3.3901   -9.5653  -29.3917 C.2     1  UNL1       -0.0970
      3 C           1.8783   -8.0041  -30.6487 C.2     1  UNL1       -0.0226
      4 C           3.1155   -8.4690  -30.3296 C.2     1  UNL1       -0.1119
      5 C           3.0742  -11.4048  -31.1132 C.2     1  UNL1        0.2478
      6 C           3.6709  -12.0164  -28.6859 C.2     1  UNL1        0.3436
      7 C           1.5236   -6.8942  -31.5928 C.2     1  UNL1        0.1855
      8 C           0.3072   -7.0570  -32.4673 C.ar    1  UNL1        0.0218
      9 O           3.6270  -10.9649  -32.1062 O.2     1  UNL1       -0.2702
     10 O           2.9014  -12.3430  -27.7950 O.2     1  UNL1       -0.2448
     11 O           2.1933   -5.8787  -31.6711 O.2     1  UNL1       -0.2873
     12 C          -0.9417   -6.5140  -32.0983 C.ar    1  UNL1       -0.0482
     13 C           0.4083   -7.7931  -33.6665 C.ar    1  UNL1       -0.0482
     14 O           3.6476   -9.0991  -28.1462 O.co2   1  UNL1       -0.8734
     15 N           2.1259  -12.3803  -31.3569 N.am    1  UNL1       -0.3252
     16 O           4.2124   -7.8869  -30.8676 O.co2   1  UNL1       -0.8739
     17 O           4.8885  -12.6168  -28.8515 O.3     1  UNL1       -0.4613
     18 C          -1.9458   -7.4134  -34.1197 C.ar    1  UNL1        0.1234
     19 C          -0.7128   -7.9678  -34.4927 C.ar    1  UNL1       -0.0258
     20 C          -2.0639   -6.6896  -32.9244 C.ar    1  UNL1       -0.0258
     21 F          -3.0260   -7.5826  -34.9121 F       1  UNL1       -0.2055
     22 C           5.0677  -13.9981  -28.4879 C.3     1  UNL1        0.0900
     23 C           6.0964  -14.0586  -27.3433 C.3     1  UNL1       -0.0306
     24 H           1.0853   -8.4729  -30.1837 H       1  UNL1        0.0650
     25 H          -1.0311   -5.9850  -31.2168 H       1  UNL1        0.0625
     26 H           1.3139   -8.2064  -33.9385 H       1  UNL1        0.0625
     27 H           1.9518  -12.6782  -32.2790 H       1  UNL1        0.1453
     28 H           1.6245  -12.7772  -30.6084 H       1  UNL1        0.1453
     29 H          -0.6301   -8.5025  -35.3715 H       1  UNL1        0.0646
     30 H          -2.9741   -6.2866  -32.6521 H       1  UNL1        0.0646
     31 H           5.4281  -14.5515  -29.3299 H       1  UNL1        0.0695
     32 H           4.1374  -14.4241  -28.1750 H       1  UNL1        0.0695
     33 H           7.0202  -13.6296  -27.6710 H       1  UNL1        0.0262
     34 H           6.2569  -15.0783  -27.0615 H       1  UNL1        0.0262
     35 H           5.7268  -13.5100  -26.5023 H       1  UNL1        0.0262
@<TRIPOS>BOND
     1     1     2    2
     2     1     5    1
     3     1     6    1
     4     2     4    1
     5     2    14    1
     6     3     4    2
     7     3     7    1
     8     4    16    1
     9     5     9    2
    10     5    15   am
    11     6    10    2
    12     6    17    1
    13     7     8    1
    14     7    11    2
    15     8    12   ar
    16     8    13   ar
    17    12    20   ar
    18    13    19   ar
    19    17    22    1
    20    18    19   ar
    21    18    20   ar
    22    18    21    1
    23    22    23    1
    24     3    24    1
    25    12    25    1
    26    13    26    1
    27    15    27    1
    28    15    28    1
    29    19    29    1
    30    20    30    1
    31    22    31    1
    32    22    32    1
    33    23    33    1
    34    23    34    1
    35    23    35    1
@<TRIPOS>SUBSTRUCTURE
     1 UNL1        1 TEMP              0 ****  ****    0 ROOT


