HTS1710-04760755-01
 OpenBabel03232612363D

 36 38  0  0  1  0  0  0  0  0999 V2000
    2.2218  -11.4655  -35.6564 C   0  0  0  0  0  0  0  0  0  0  0  0
    3.3896  -10.4787  -35.8865 C   0  0  2  0  0  0  0  0  0  0  0  0
    3.6965   -9.7912  -34.6231 N   0  0  0  0  0  0  0  0  0  0  0  0
    4.5721  -10.3061  -33.6745 C   0  0  0  0  0  0  0  0  0  0  0  0
    5.1497  -11.3532  -33.9132 O   0  0  0  0  0  0  0  0  0  0  0  0
    4.7910   -9.5049  -32.4399 C   0  0  0  0  0  0  0  0  0  0  0  0
    5.3517   -8.2672  -32.4606 N   0  0  0  0  0  0  0  0  0  0  0  0
    5.5216   -7.9717  -31.1816 C   0  0  0  0  0  0  0  0  0  0  0  0
    5.1237   -8.9192  -30.2609 O   0  0  0  0  0  0  0  0  0  0  0  0
    4.6281   -9.8557  -31.1229 C   0  0  0  0  0  0  0  0  0  0  0  0
    3.8897  -11.0222  -30.5983 C   0  0  0  0  0  0  0  0  0  0  0  0
    2.9261  -11.6395  -31.4243 C   0  0  0  0  0  0  0  0  0  0  0  0
    2.2055  -12.7610  -30.9823 C   0  0  0  0  0  0  0  0  0  0  0  0
    2.4621  -13.2976  -29.7142 C   0  0  0  0  0  0  0  0  0  0  0  0
    1.7459  -14.3848  -29.2628 O   0  0  0  0  0  0  0  0  0  0  0  0
    1.8041  -14.7270  -27.8621 C   0  0  0  0  0  0  0  0  0  0  0  0
    3.2760  -14.6364  -27.3966 C   0  0  0  0  0  0  0  0  0  0  0  0
    3.7721  -13.3149  -27.6938 O   0  0  0  0  0  0  0  0  0  0  0  0
    3.4713  -12.7411  -28.9104 C   0  0  0  0  0  0  0  0  0  0  0  0
    4.1826  -11.6136  -29.3491 C   0  0  0  0  0  0  0  0  0  0  0  0
    3.0732   -9.4453  -36.9807 C   0  0  0  0  0  0  0  0  0  0  0  0
    1.9185   -9.0696  -37.0922 O   0  5  0  0  0  0  0  0  0  0  0  0
    4.0060   -9.0684  -37.6691 O   0  0  0  0  0  0  0  0  0  0  0  0
    2.4891  -12.1618  -34.8892 H   0  0  0  0  0  0  0  0  0  0  0  0
    2.0184  -11.9952  -36.5636 H   0  0  0  0  0  0  0  0  0  0  0  0
    1.3497  -10.9225  -35.3573 H   0  0  0  0  0  0  0  0  0  0  0  0
    4.2359  -11.0424  -36.2198 H   0  0  0  0  0  0  0  0  0  0  0  0
    3.2618   -8.9268  -34.4411 H   0  0  0  0  0  0  0  0  0  0  0  0
    5.9331   -7.0726  -30.8862 H   0  0  0  0  0  0  0  0  0  0  0  0
    2.7483  -11.2610  -32.3678 H   0  0  0  0  0  0  0  0  0  0  0  0
    1.4892  -13.1884  -31.5899 H   0  0  0  0  0  0  0  0  0  0  0  0
    1.4406  -15.7230  -27.7183 H   0  0  0  0  0  0  0  0  0  0  0  0
    1.1974  -14.0529  -27.2942 H   0  0  0  0  0  0  0  0  0  0  0  0
    3.8632  -15.3665  -27.9134 H   0  0  0  0  0  0  0  0  0  0  0  0
    3.3388  -14.8225  -26.3448 H   0  0  0  0  0  0  0  0  0  0  0  0
    4.9253  -11.2135  -28.7548 H   0  0  0  0  0  0  0  0  0  0  0  0
  1  2  1  0  0  0  0
  1 24  1  0  0  0  0
  1 25  1  0  0  0  0
  1 26  1  0  0  0  0
  2  3  1  0  0  0  0
  2 21  1  0  0  0  0
  2 27  1  6  0  0  0
  3  4  1  0  0  0  0
  3 28  1  0  0  0  0
  4  5  2  0  0  0  0
  4  6  1  0  0  0  0
  6  7  1  0  0  0  0
  6 10  2  0  0  0  0
  7  8  2  0  0  0  0
  8  9  1  0  0  0  0
  8 29  1  0  0  0  0
  9 10  1  0  0  0  0
 10 11  1  0  0  0  0
 11 12  2  0  0  0  0
 11 20  1  0  0  0  0
 12 13  1  0  0  0  0
 12 30  1  0  0  0  0
 13 14  2  0  0  0  0
 13 31  1  0  0  0  0
 14 15  1  0  0  0  0
 14 19  1  0  0  0  0
 15 16  1  0  0  0  0
 16 17  1  0  0  0  0
 16 32  1  0  0  0  0
 16 33  1  0  0  0  0
 17 18  1  0  0  0  0
 17 34  1  0  0  0  0
 17 35  1  0  0  0  0
 18 19  1  0  0  0  0
 19 20  2  0  0  0  0
 20 36  1  0  0  0  0
 21 22  1  0  0  0  0
 21 23  2  0  0  0  0
M  CHG  1  22  -1
M  END
$$$$
