##########                                Name: HTS1710-00606779-01
##########                    Molecular_Weight:             395.414
##########                DOCK_Rotatable_Bonds:                   9
##########                       Formal_Charge:                  -2
##########                     HBond_Acceptors:                  10
##########                        HBond_Donors:                   1
##########                         Heavy_Atoms:                  26
##########                          Grid_Score:          -76.956009
##########                     Grid_vdw_energy:          -39.239918
##########                      Grid_es_energy:          -37.716095
##########           Internal_energy_repulsive:           14.259008

@<TRIPOS>MOLECULE
HTS1710-00606779-01
 39 40 1 0 0
SMALL
USER_CHARGES


@<TRIPOS>ATOM
      1 N           2.9652  -10.3584  -32.4272 N.am    1  UNL1       -0.2466
      2 C           2.1605   -9.5328  -33.2106 C.2     1  UNL1        0.2589
      3 C           3.7199   -9.8383  -31.2531 C.3     1  UNL1        0.0718
      4 C           3.0248  -11.6760  -32.8686 C.2     1  UNL1        0.1211
      5 C           1.5586  -10.3071  -34.3214 C.2     1  UNL1        0.0772
      6 O           1.9847   -8.3428  -33.0025 O.2     1  UNL1       -0.2690
      7 C           2.8109   -9.0454  -30.2632 C.3     1  UNL1       -0.0235
      8 C           4.9764   -9.0701  -31.7231 C.2     1  UNL1        0.0626
      9 S           2.0403  -11.9908  -34.3266 S.3     1  UNL1       -0.0610
     10 S           3.9442  -12.9017  -32.1884 S.2     1  UNL1       -0.0272
     11 C           0.7016   -9.7153  -35.2278 C.2     1  UNL1       -0.0356
     12 C           3.2415   -9.2140  -28.7841 C.3     1  UNL1       -0.0112
     13 O           5.5160   -9.4718  -32.7402 O.co2   1  UNL1       -0.5479
     14 O           5.3581   -8.1207  -31.0585 O.co2   1  UNL1       -0.5479
     15 C           0.1410   -8.3450  -35.4463 C.ar    1  UNL1       -0.0201
     16 C           3.2188  -10.6827  -28.3438 C.2     1  UNL1        0.0418
     17 C          -0.5755   -7.7444  -34.3888 C.ar    1  UNL1       -0.0091
     18 C           0.2967   -7.6238  -36.6496 C.ar    1  UNL1       -0.0509
     19 O           2.1713  -11.1134  -27.8927 O.co2   1  UNL1       -0.5498
     20 O           4.2428  -11.3277  -28.4933 O.co2   1  UNL1       -0.5498
     21 C          -1.1331   -6.4539  -34.5277 C.ar    1  UNL1        0.1618
     22 C          -0.2515   -6.3398  -36.7905 C.ar    1  UNL1       -0.0160
     23 C          -0.9645   -5.7538  -35.7359 C.ar    1  UNL1        0.1585
     24 O          -1.8461   -5.8486  -33.5069 O.3     1  UNL1       -0.4914
     25 O          -1.4939   -4.5035  -35.8889 O.3     1  UNL1       -0.5033
     26 C          -2.4219   -6.5762  -32.4079 C.3     1  UNL1        0.0790
     27 H           4.0694  -10.6674  -30.6742 H       1  UNL1        0.0566
     28 H           1.8051   -9.3951  -30.3681 H       1  UNL1        0.0290
     29 H           2.8984   -8.0073  -30.5073 H       1  UNL1        0.0290
     30 H           0.3617  -10.3879  -35.9329 H       1  UNL1        0.0636
     31 H           2.5713   -8.6568  -28.1634 H       1  UNL1        0.0325
     32 H           4.2452   -8.8555  -28.6888 H       1  UNL1        0.0325
     33 H          -0.6938   -8.2561  -33.5004 H       1  UNL1        0.0661
     34 H           0.8189   -8.0450  -37.4338 H       1  UNL1        0.0625
     35 H          -0.1288   -5.8240  -37.6759 H       1  UNL1        0.0655
     36 H          -1.4055   -4.0542  -36.7063 H       1  UNL1        0.2923
     37 H          -2.9211   -5.8945  -31.7513 H       1  UNL1        0.0660
     38 H          -1.6479   -7.0850  -31.8724 H       1  UNL1        0.0660
     39 H          -3.1252   -7.2903  -32.7825 H       1  UNL1        0.0660
@<TRIPOS>BOND
     1     1     2   am
     2     1     3    1
     3     1     4    1
     4     2     5    1
     5     2     6    2
     6     3     7    1
     7     3     8    1
     8     4     9    1
     9     4    10    2
    10     5    11    2
    11     7    12    1
    12     8    13   ar
    13     8    14   ar
    14    11    15    1
    15    12    16    1
    16    15    17   ar
    17    15    18   ar
    18    16    19   ar
    19    16    20   ar
    20    17    21   ar
    21    18    22   ar
    22    21    23   ar
    23    21    24    1
    24    23    25    1
    25    24    26    1
    26     5     9    1
    27    22    23   ar
    28     3    27    1
    29     7    28    1
    30     7    29    1
    31    11    30    1
    32    12    31    1
    33    12    32    1
    34    17    33    1
    35    18    34    1
    36    22    35    1
    37    25    36    1
    38    26    37    1
    39    26    38    1
    40    26    39    1
@<TRIPOS>SUBSTRUCTURE
     1 UNL1        1 TEMP              0 ****  ****    0 ROOT


