##########                                Name: HTS1710-01037680-01
##########                    Molecular_Weight:             214.094
##########                DOCK_Rotatable_Bonds:                   3
##########                       Formal_Charge:                  -3
##########                     HBond_Acceptors:                   6
##########                        HBond_Donors:                   1
##########                         Heavy_Atoms:                  14
##########                          Grid_Score:          -80.988495
##########                     Grid_vdw_energy:          -21.728239
##########                      Grid_es_energy:          -59.260258
##########           Internal_energy_repulsive:            2.699080

@<TRIPOS>MOLECULE
HTS1710-01037680-01
 19 19 1 0 0
SMALL
USER_CHARGES


@<TRIPOS>ATOM
      1 O           6.0026   -7.9596  -30.8681 O.co2   1  UNL1       -0.5446
      2 C           4.9181   -8.0740  -31.4126 C.2     1  UNL1        0.0734
      3 O           4.0554   -7.2141  -31.4585 O.co2   1  UNL1       -0.5446
      4 C           4.6203   -9.3745  -32.1139 C.ar    1  UNL1        0.0184
      5 C           5.3589   -9.6892  -33.2730 C.ar    1  UNL1       -0.0511
      6 C           5.1241  -10.8818  -33.9697 C.ar    1  UNL1       -0.0610
      7 C           4.1408  -11.7720  -33.5207 C.ar    1  UNL1       -0.0600
      8 C           3.3937  -11.4709  -32.3719 C.ar    1  UNL1       -0.0400
      9 C           3.6254  -10.2760  -31.6545 C.ar    1  UNL1        0.0387
     10 N           2.8826   -9.9735  -30.5237 N.pl3   1  UNL1       -0.3302
     11 P           3.2776   -9.9982  -28.8946 P.3     1  UNL1       -0.0671
     12 O           4.5504  -10.7645  -28.8132 O.2     1  UNL1       -0.6439
     13 O           2.1615  -10.7450  -28.2544 O.co2   1  UNL1       -0.5839
     14 O           3.3819   -8.5758  -28.4764 O.co2   1  UNL1       -0.5839
     15 H           6.0805   -9.0338  -33.6118 H       1  UNL1        0.0625
     16 H           5.6754  -11.1040  -34.8133 H       1  UNL1        0.0618
     17 H           3.9657  -12.6495  -34.0349 H       1  UNL1        0.0618
     18 H           2.6677  -12.1287  -32.0477 H       1  UNL1        0.0636
     19 H           1.9573   -9.6941  -30.7109 H       1  UNL1        0.1501
@<TRIPOS>BOND
     1     1     2   ar
     2     2     3   ar
     3     2     4    1
     4     4     5   ar
     5     5     6   ar
     6     6     7   ar
     7     7     8   ar
     8     8     9   ar
     9     4     9   ar
    10     9    10    1
    11    10    11    1
    12    11    12    2
    13    11    13    1
    14    11    14    1
    15     5    15    1
    16     6    16    1
    17     7    17    1
    18     8    18    1
    19    10    19    1
@<TRIPOS>SUBSTRUCTURE
     1 UNL1        1 TEMP              0 ****  ****    0 ROOT


