HTS1710-00176608-01
 OpenBabel03232612343D

 29 30  0  0  0  0  0  0  0  0999 V2000
    1.5827   -8.4996  -32.9359 C   0  0  0  0  0  0  0  0  0  0  0  0
    1.1545   -8.5844  -34.2953 C   0  0  0  0  0  0  0  0  0  0  0  0
    2.9188   -8.9613  -32.6257 C   0  0  0  0  0  0  0  0  0  0  0  0
    0.6312   -7.9624  -32.0021 C   0  0  0  0  0  0  0  0  0  0  0  0
    1.9848   -9.1082  -35.2960 C   0  0  0  0  0  0  0  0  0  0  0  0
   -0.1208   -8.1492  -34.6971 C   0  0  0  0  0  0  0  0  0  0  0  0
    3.7215   -9.4849  -33.6696 C   0  0  0  0  0  0  0  0  0  0  0  0
    3.7090   -8.9424  -30.9653 S   0  0  0  0  0  0  0  0  0  0  0  0
   -0.6387   -7.5344  -32.4302 C   0  0  0  0  0  0  0  0  0  0  0  0
    0.8441   -7.8207  -30.6544 N   0  0  0  0  0  0  0  0  0  0  0  0
    3.2688   -9.5574  -34.9911 C   0  0  0  0  0  0  0  0  0  0  0  0
   -1.0246   -7.6243  -33.7703 C   0  0  0  0  0  0  0  0  0  0  0  0
    5.0610   -9.4368  -31.2431 O   0  0  0  0  0  1  0  0  0  0  0  0
    2.8583   -9.8454  -30.1835 O   0  0  0  0  0  0  0  0  0  0  0  0
    3.6601   -7.5449  -30.5243 O   0  0  0  0  0  0  0  0  0  0  0  0
    4.3166  -10.2691  -36.2820 S   0  0  0  0  0  0  0  0  0  0  0  0
   -2.6477   -7.0353  -34.3011 S   0  0  0  0  0  0  0  0  0  0  0  0
    3.5156  -11.3800  -36.8040 O   0  0  0  0  0  0  0  0  0  0  0  0
    5.5369  -10.6549  -35.5660 O   0  0  0  0  0  0  0  0  0  0  0  0
    4.4738   -9.1386  -37.2012 O   0  0  0  0  0  1  0  0  0  0  0  0
   -2.4322   -6.6367  -35.6960 O   0  0  0  0  0  0  0  0  0  0  0  0
   -2.9405   -5.9407  -33.3703 O   0  0  0  0  0  0  0  0  0  0  0  0
   -3.4770   -8.2323  -34.1240 O   0  0  0  0  0  1  0  0  0  0  0  0
    1.6422   -9.1617  -36.2680 H   0  0  0  0  0  0  0  0  0  0  0  0
   -0.3927   -8.2186  -35.6902 H   0  0  0  0  0  0  0  0  0  0  0  0
    4.6708   -9.8237  -33.4477 H   0  0  0  0  0  0  0  0  0  0  0  0
   -1.2997   -7.1455  -31.7397 H   0  0  0  0  0  0  0  0  0  0  0  0
    1.7043   -8.0933  -30.2606 H   0  0  0  0  0  0  0  0  0  0  0  0
    0.1368   -7.4464  -30.0810 H   0  0  0  0  0  0  0  0  0  0  0  0
  1  2  1  0  0  0  0
  1  3  2  0  0  0  0
  1  4  1  0  0  0  0
  2  5  2  0  0  0  0
  2  6  1  0  0  0  0
  3  7  1  0  0  0  0
  3  8  1  0  0  0  0
  4  9  2  0  0  0  0
  4 10  1  0  0  0  0
  5 11  1  0  0  0  0
  5 24  1  0  0  0  0
  6 12  2  0  0  0  0
  6 25  1  0  0  0  0
  7 11  2  0  0  0  0
  7 26  1  0  0  0  0
  8 13  1  0  0  0  0
  8 14  2  0  0  0  0
  8 15  2  0  0  0  0
  9 12  1  0  0  0  0
  9 27  1  0  0  0  0
 10 28  1  0  0  0  0
 10 29  1  0  0  0  0
 11 16  1  0  0  0  0
 12 17  1  0  0  0  0
 16 18  2  0  0  0  0
 16 19  2  0  0  0  0
 16 20  1  0  0  0  0
 17 21  2  0  0  0  0
 17 22  2  0  0  0  0
 17 23  1  0  0  0  0
M  END
$$$$
