##########                                Name: HTS1710-01721973-01
##########                    Molecular_Weight:             242.252
##########                DOCK_Rotatable_Bonds:                   5
##########                       Formal_Charge:                  -3
##########                     HBond_Acceptors:                   6
##########                        HBond_Donors:                   0
##########                         Heavy_Atoms:                  16
##########                          Grid_Score:          -79.899162
##########                     Grid_vdw_energy:          -29.313019
##########                      Grid_es_energy:          -50.586143
##########           Internal_energy_repulsive:            3.141225

@<TRIPOS>MOLECULE
HTS1710-01721973-01
 26 26 1 0 0
SMALL
USER_CHARGES


@<TRIPOS>ATOM
      1 C           5.4558   -8.3452  -32.8499 C.2     1  UNL1       -0.0144
      2 C           6.0280   -7.8224  -33.9936 C.2     1  UNL1       -0.1120
      3 O           5.8928   -8.5860  -35.1245 O.co2   1  UNL1       -0.7849
      4 C           4.9025   -9.5796  -33.2813 C.2     1  UNL1       -0.0637
      5 C           5.4026   -7.7948  -31.4729 C.2     1  UNL1        0.0708
      6 C           5.2040   -9.6524  -34.6155 C.2     1  UNL1       -0.1074
      7 C           1.6338  -10.5453  -33.9736 C.2     1  UNL1        0.0544
      8 S           3.1813  -10.6018  -36.2918 S.3     1  UNL1       -0.1482
      9 O           4.9881   -6.6602  -31.3146 O.co2   1  UNL1       -0.5447
     10 O           1.5414   -9.3655  -34.2607 O.co2   1  UNL1       -0.5487
     11 C           2.1025  -11.4982  -35.0835 C.3     1  UNL1        0.0420
     12 C           4.8387  -10.8072  -35.5074 C.3     1  UNL1        0.0064
     13 O           5.7798   -8.5219  -30.5701 O.co2   1  UNL1       -0.5447
     14 O           1.3692  -11.0302  -32.8861 O.co2   1  UNL1       -0.5487
     15 C           6.7752   -6.5165  -34.0831 C.3     1  UNL1       -0.0524
     16 C           0.9008  -12.1374  -35.8110 C.3     1  UNL1       -0.0481
     17 H           4.3865  -10.2703  -32.7141 H       1  UNL1        0.0615
     18 H           2.6712  -12.2818  -34.6278 H       1  UNL1        0.0470
     19 H           5.5750  -10.8903  -36.2792 H       1  UNL1        0.0414
     20 H           4.8026  -11.6871  -34.8997 H       1  UNL1        0.0414
     21 H           6.7902   -6.0476  -33.1215 H       1  UNL1        0.0266
     22 H           6.2872   -5.8738  -34.7858 H       1  UNL1        0.0266
     23 H           7.7786   -6.7010  -34.4057 H       1  UNL1        0.0266
     24 H           0.3162  -11.3709  -36.2754 H       1  UNL1        0.0244
     25 H           0.2970  -12.6676  -35.1044 H       1  UNL1        0.0244
     26 H           1.2559  -12.8168  -36.5575 H       1  UNL1        0.0244
@<TRIPOS>BOND
     1     1     2    2
     2     2     3    1
     3     1     4    1
     4     1     5    1
     5     4     6    2
     6     7    11    1
     7     8    12    1
     8     5     9   ar
     9     7    10   ar
    10     8    11    1
    11     6    12    1
    12     5    13   ar
    13     7    14   ar
    14     2    15    1
    15    11    16    1
    16     3     6    1
    17     4    17    1
    18    11    18    1
    19    12    19    1
    20    12    20    1
    21    15    21    1
    22    15    22    1
    23    15    23    1
    24    16    24    1
    25    16    25    1
    26    16    26    1
@<TRIPOS>SUBSTRUCTURE
     1 UNL1        1 TEMP              0 ****  ****    0 ROOT


