##########                                Name: HTS1710-01161306-01
##########                    Molecular_Weight:             379.371
##########                DOCK_Rotatable_Bonds:                   6
##########                       Formal_Charge:                  -2
##########                     HBond_Acceptors:                  10
##########                        HBond_Donors:                   0
##########                         Heavy_Atoms:                  25
##########                          Grid_Score:          -76.681213
##########                     Grid_vdw_energy:          -38.418205
##########                      Grid_es_energy:          -38.263008
##########           Internal_energy_repulsive:           10.015616

@<TRIPOS>MOLECULE
HTS1710-01161306-01
 34 36 1 0 0
SMALL
USER_CHARGES


@<TRIPOS>ATOM
      1 N           2.8830  -10.2042  -32.4982 N.am    1  UNL1       -0.2463
      2 C           2.8284  -11.5388  -32.8871 C.2     1  UNL1        0.1211
      3 C           2.0070   -9.3741  -33.1968 C.2     1  UNL1        0.2589
      4 C           1.2342  -10.1605  -34.1867 C.2     1  UNL1        0.0772
      5 S           1.6385  -11.8641  -34.1794 S.3     1  UNL1       -0.0610
      6 C           3.8358   -9.6669  -31.4886 C.3     1  UNL1        0.0765
      7 C           3.1095   -9.2003  -30.1920 C.3     1  UNL1        0.0111
      8 C           0.3049   -9.5619  -35.0116 C.2     1  UNL1       -0.0356
      9 C           4.7576   -8.5999  -32.1256 C.2     1  UNL1        0.0629
     10 S           3.7932  -12.7767  -32.2967 S.2     1  UNL1       -0.0272
     11 C          -0.5818   -6.1620  -36.5054 C.ar    1  UNL1        0.1668
     12 C           3.4012  -10.1249  -29.0019 C.2     1  UNL1        0.0439
     13 C          -1.2285   -5.5782  -35.4558 C.ar    1  UNL1        0.1663
     14 O           1.9020   -8.1716  -33.0151 O.2     1  UNL1       -0.2690
     15 O          -0.5314   -5.3131  -37.5684 O.3     1  UNL1       -0.4526
     16 C          -0.2168   -8.1757  -35.2189 C.ar    1  UNL1       -0.0201
     17 O          -1.6340   -4.3194  -35.7762 O.3     1  UNL1       -0.4526
     18 C          -1.2034   -4.0874  -37.1507 C.3     1  UNL1        0.2332
     19 C          -0.0604   -7.4572  -36.4324 C.ar    1  UNL1       -0.0090
     20 O           5.6530   -8.9742  -32.8651 O.co2   1  UNL1       -0.5479
     21 O           2.4453  -10.5857  -28.4033 O.co2   1  UNL1       -0.5497
     22 C          -1.4089   -6.2439  -34.2431 C.ar    1  UNL1       -0.0156
     23 O           4.5206   -7.4364  -31.8494 O.co2   1  UNL1       -0.5479
     24 C          -0.8952   -7.5519  -34.1346 C.ar    1  UNL1       -0.0509
     25 O           4.5724  -10.3212  -28.7233 O.co2   1  UNL1       -0.5497
     26 H           4.4789  -10.4582  -31.1642 H       1  UNL1        0.0570
     27 H           2.0547   -9.1914  -30.3715 H       1  UNL1        0.0347
     28 H           3.4698   -8.2233  -29.9461 H       1  UNL1        0.0347
     29 H          -0.1433  -10.2418  -35.6455 H       1  UNL1        0.0636
     30 H          -2.0482   -3.8932  -37.7781 H       1  UNL1        0.1166
     31 H          -0.5558   -3.2387  -37.2228 H       1  UNL1        0.1166
     32 H           0.4250   -7.8793  -37.2394 H       1  UNL1        0.0661
     33 H          -1.9004   -5.7950  -33.4543 H       1  UNL1        0.0655
     34 H          -1.0136   -8.0687  -33.2492 H       1  UNL1        0.0625
@<TRIPOS>BOND
     1     1     2    1
     2     1     3   am
     3     3     4    1
     4     2     5    1
     5     1     6    1
     6     6     7    1
     7     4     8    2
     8     6     9    1
     9     2    10    2
    10    11    19   ar
    11     7    12    1
    12    13    22   ar
    13     3    14    2
    14    11    15    1
    15     8    16    1
    16    13    17    1
    17    15    18    1
    18    16    19   ar
    19     9    20   ar
    20    12    21   ar
    21    22    24   ar
    22     9    23   ar
    23    16    24   ar
    24    12    25   ar
    25     4     5    1
    26    11    13   ar
    27    17    18    1
    28     6    26    1
    29     7    27    1
    30     7    28    1
    31     8    29    1
    32    18    30    1
    33    18    31    1
    34    19    32    1
    35    22    33    1
    36    24    34    1
@<TRIPOS>SUBSTRUCTURE
     1 UNL1        1 TEMP              0 ****  ****    0 ROOT


