##########                                Name: HTS1710-01238952-01
##########                    Molecular_Weight:             284.246
##########                DOCK_Rotatable_Bonds:                   3
##########                       Formal_Charge:                  -3
##########                     HBond_Acceptors:                   8
##########                        HBond_Donors:                   0
##########                         Heavy_Atoms:                  19
##########                          Grid_Score:          -80.280457
##########                     Grid_vdw_energy:          -32.465416
##########                      Grid_es_energy:          -47.815041
##########           Internal_energy_repulsive:           15.008481

@<TRIPOS>MOLECULE
HTS1710-01238952-01
 27 28 1 0 0
SMALL
USER_CHARGES


@<TRIPOS>ATOM
      1 C           5.4846   -9.0255  -34.0079 C.2     1  UNL1       -0.0069
      2 S           3.4937  -11.4031  -28.8142 S.3     1  UNL1       -0.0477
      3 C           4.0507  -10.7704  -30.4224 C.ar    1  UNL1        0.1176
      4 C           4.9265   -9.7786  -32.8957 C.ar    1  UNL1       -0.0202
      5 C           6.0055   -7.9221  -33.3375 C.2     1  UNL1       -0.1113
      6 C           5.1613   -9.0750  -31.7373 C.ar    1  UNL1       -0.0844
      7 O           5.8342   -7.9085  -31.9704 O.co2   1  UNL1       -0.7823
      8 C           4.7403   -9.5372  -30.4886 C.ar    1  UNL1       -0.0404
      9 C           4.2526  -11.0083  -32.8665 C.ar    1  UNL1       -0.0109
     10 C           3.8135  -11.5124  -31.6156 C.ar    1  UNL1        0.1444
     11 C           5.4910   -9.3503  -35.4591 C.2     1  UNL1        0.0714
     12 O           2.4466  -12.3740  -29.1488 O.2     1  UNL1       -0.1802
     13 O           3.0224  -10.1865  -28.1468 O.2     1  UNL1       -0.1802
     14 O           4.7162  -11.9791  -28.2437 O.co2   1  UNL1       -0.7201
     15 O           5.2567  -10.5002  -35.7837 O.co2   1  UNL1       -0.5446
     16 O           5.7293   -8.4532  -36.2477 O.co2   1  UNL1       -0.5446
     17 O           3.1547  -12.7265  -31.5306 O.3     1  UNL1       -0.4932
     18 C           6.7259   -6.7670  -33.9870 C.3     1  UNL1       -0.0524
     19 C           3.0156  -13.6319  -32.6396 C.3     1  UNL1        0.0789
     20 H           4.9281   -8.9912  -29.6333 H       1  UNL1        0.0632
     21 H           4.0798  -11.5352  -33.7369 H       1  UNL1        0.0661
     22 H           6.7762   -6.9269  -35.0438 H       1  UNL1        0.0266
     23 H           7.7168   -6.6958  -33.5895 H       1  UNL1        0.0266
     24 H           6.1958   -5.8590  -33.7885 H       1  UNL1        0.0266
     25 H           2.4701  -14.4977  -32.3269 H       1  UNL1        0.0660
     26 H           3.9852  -13.9262  -32.9835 H       1  UNL1        0.0660
     27 H           2.4881  -13.1454  -33.4332 H       1  UNL1        0.0660
@<TRIPOS>BOND
     1     2     3    1
     2     3    10   ar
     3     1     4    1
     4     1     5    2
     5     4     6   ar
     6     5     7    1
     7     6     8   ar
     8     4     9   ar
     9     9    10   ar
    10     1    11    1
    11     2    12    2
    12     2    13    2
    13     2    14    1
    14    11    15   ar
    15    11    16   ar
    16    10    17    1
    17     5    18    1
    18    17    19    1
    19     6     7    1
    20     3     8   ar
    21     8    20    1
    22     9    21    1
    23    18    22    1
    24    18    23    1
    25    18    24    1
    26    19    25    1
    27    19    26    1
    28    19    27    1
@<TRIPOS>SUBSTRUCTURE
     1 UNL1        1 TEMP              0 ****  ****    0 ROOT


