##########                                Name: HTS1710-02655717-01
##########                    Molecular_Weight:             380.441
##########                DOCK_Rotatable_Bonds:                   9
##########                       Formal_Charge:                  -2
##########                     HBond_Acceptors:                   8
##########                        HBond_Donors:                   2
##########                         Heavy_Atoms:                  27
##########                          Grid_Score:          -76.329590
##########                     Grid_vdw_energy:          -39.594982
##########                      Grid_es_energy:          -36.734604
##########           Internal_energy_repulsive:           16.798111

@<TRIPOS>MOLECULE
HTS1710-02655717-01
 55 56 1 0 0
SMALL
USER_CHARGES


@<TRIPOS>ATOM
      1 C           0.5389   -9.1068  -33.7861 C.2     1  UNL1        0.2170
      2 C           0.3900   -7.5987  -34.0883 C.3     1  UNL1        0.0434
      3 C           3.1771  -12.2938  -31.2977 C.2     1  UNL1        0.2168
      4 C           2.7201  -12.2340  -29.8228 C.3     1  UNL1        0.0434
      5 C           0.5226   -6.6583  -32.8447 C.3     1  UNL1        0.0096
      6 C           3.7815  -11.5670  -28.8901 C.3     1  UNL1        0.0096
      7 C           1.8619   -6.8620  -32.1012 C.2     1  UNL1        0.0455
      8 C           4.2259  -10.1772  -29.3958 C.2     1  UNL1        0.0455
      9 N           1.2870   -9.8634  -34.6814 N.am    1  UNL1       -0.3110
     10 N           2.4481  -11.5682  -32.2304 N.am    1  UNL1       -0.3133
     11 O           0.0516   -9.6422  -32.8051 O.2     1  UNL1       -0.2755
     12 O           4.1073  -12.9883  -31.6740 O.2     1  UNL1       -0.2755
     13 O           2.4443   -5.8535  -31.7423 O.co2   1  UNL1       -0.5495
     14 O           4.8547  -10.1489  -30.4392 O.co2   1  UNL1       -0.5495
     15 O           3.8844   -9.1959  -28.7568 O.co2   1  UNL1       -0.5495
     16 O           2.2335   -8.0010  -31.8767 O.co2   1  UNL1       -0.5495
     17 C           2.7806  -11.5433  -33.6607 C.3     1  UNL1        0.0298
     18 C           1.5140  -11.3089  -34.5229 C.3     1  UNL1        0.0358
     19 C          -0.9406   -7.3261  -34.8436 C.3     1  UNL1       -0.0413
     20 C          -0.7261   -6.7124  -31.9117 C.3     1  UNL1       -0.0444
     21 C           4.9826  -12.5156  -28.6143 C.3     1  UNL1       -0.0444
     22 C           2.2832  -13.6253  -29.2717 C.3     1  UNL1       -0.0413
     23 C           1.6558  -11.9474  -35.9199 C.3     1  UNL1       -0.0452
     24 C          -2.0419   -6.4759  -32.6913 C.3     1  UNL1       -0.0524
     25 C           4.5165  -13.8607  -28.0119 C.3     1  UNL1       -0.0524
     26 C           3.4684  -14.5608  -28.9073 C.3     1  UNL1       -0.0523
     27 C          -2.1739   -7.4177  -33.9116 C.3     1  UNL1       -0.0523
     28 H           1.2241   -7.3520  -34.7114 H       1  UNL1        0.0400
     29 H           1.8542  -11.6054  -29.8177 H       1  UNL1        0.0400
     30 H           0.5471   -5.6552  -33.2165 H       1  UNL1        0.0368
     31 H           3.3020  -11.3947  -27.9492 H       1  UNL1        0.0368
     32 H           1.6843   -9.4098  -35.4597 H       1  UNL1        0.1490
     33 H           1.6733  -11.0469  -31.9189 H       1  UNL1        0.1488
     34 H           3.2211  -12.4794  -33.9337 H       1  UNL1        0.0480
     35 H           3.4655  -10.7403  -33.8369 H       1  UNL1        0.0480
     36 H           0.6866  -11.7662  -34.0218 H       1  UNL1        0.0511
     37 H          -1.0462   -8.0481  -35.6263 H       1  UNL1        0.0273
     38 H          -0.8979   -6.3308  -35.2338 H       1  UNL1        0.0273
     39 H          -0.6291   -5.9569  -31.1603 H       1  UNL1        0.0272
     40 H          -0.7710   -7.6883  -31.4753 H       1  UNL1        0.0272
     41 H           5.6506  -12.0398  -27.9271 H       1  UNL1        0.0272
     42 H           5.4719  -12.7163  -29.5444 H       1  UNL1        0.0272
     43 H           1.6882  -14.1107  -30.0169 H       1  UNL1        0.0273
     44 H           1.7422  -13.4439  -28.3666 H       1  UNL1        0.0273
     45 H           2.4804  -11.5000  -36.4345 H       1  UNL1        0.0248
     46 H           0.7574  -11.7867  -36.4783 H       1  UNL1        0.0248
     47 H           1.8280  -12.9983  -35.8160 H       1  UNL1        0.0248
     48 H          -2.0623   -5.4625  -33.0340 H       1  UNL1        0.0265
     49 H          -2.8578   -6.6788  -32.0293 H       1  UNL1        0.0265
     50 H           4.0835  -13.6777  -27.0507 H       1  UNL1        0.0265
     51 H           5.3690  -14.5029  -27.9349 H       1  UNL1        0.0265
     52 H           3.9455  -14.8791  -29.8106 H       1  UNL1        0.0265
     53 H           3.0731  -15.3907  -28.3598 H       1  UNL1        0.0265
     54 H          -2.2708   -8.4248  -33.5631 H       1  UNL1        0.0265
     55 H          -3.0363   -7.1198  -34.4704 H       1  UNL1        0.0265
@<TRIPOS>BOND
     1     1     2    1
     2     1     9   am
     3     1    11    2
     4     2     5    1
     5     2    19    1
     6     3     4    1
     7     3    10   am
     8     3    12    2
     9     4     6    1
    10     4    22    1
    11     5     7    1
    12     5    20    1
    13     6     8    1
    14     6    21    1
    15     7    13   ar
    16     7    16   ar
    17     8    14   ar
    18     8    15   ar
    19     9    18    1
    20    10    17    1
    21    17    18    1
    22    18    23    1
    23    19    27    1
    24    20    24    1
    25    21    25    1
    26    22    26    1
    27    24    27    1
    28    25    26    1
    29     2    28    1
    30     4    29    1
    31     5    30    1
    32     6    31    1
    33     9    32    1
    34    10    33    1
    35    17    34    1
    36    17    35    1
    37    18    36    1
    38    19    37    1
    39    19    38    1
    40    20    39    1
    41    20    40    1
    42    21    41    1
    43    21    42    1
    44    22    43    1
    45    22    44    1
    46    23    45    1
    47    23    46    1
    48    23    47    1
    49    24    48    1
    50    24    49    1
    51    25    50    1
    52    25    51    1
    53    26    52    1
    54    26    53    1
    55    27    54    1
    56    27    55    1
@<TRIPOS>SUBSTRUCTURE
     1 UNL1        1 TEMP              0 ****  ****    0 ROOT


