##########                                Name: HTS1710-05397714-01
##########                    Molecular_Weight:             308.354
##########                DOCK_Rotatable_Bonds:                   6
##########                       Formal_Charge:                  -2
##########                     HBond_Acceptors:                   6
##########                        HBond_Donors:                   0
##########                         Heavy_Atoms:                  22
##########                          Grid_Score:          -75.385483
##########                     Grid_vdw_energy:          -37.307919
##########                      Grid_es_energy:          -38.077560
##########           Internal_energy_repulsive:           10.109596

@<TRIPOS>MOLECULE
HTS1710-05397714-01
 44 45 1 0 0
SMALL
USER_CHARGES


@<TRIPOS>ATOM
      1 C           5.0778  -13.0326  -35.5238 C.3     1  UNL1        0.0365
      2 O           4.2524  -12.4568  -36.5470 O.3     1  UNL1       -0.3820
      3 C           2.9158  -12.1345  -36.1147 C.3     1  UNL1        0.0595
      4 C           2.8791  -10.6921  -35.5241 C.3     1  UNL1        0.0505
      5 C           1.4764  -10.0574  -35.7369 C.3     1  UNL1       -0.0228
      6 C           1.3104   -9.0716  -34.5689 C.3     1  UNL1        0.0160
      7 N           2.1729   -9.5658  -33.4799 N.am    1  UNL1       -0.2966
      8 C           2.9781  -10.6938  -33.9772 C.3     1  UNL1        0.0279
      9 C           1.9926   -9.3278  -32.1148 C.2     1  UNL1        0.2458
     10 O           1.0959   -8.6068  -31.7114 O.2     1  UNL1       -0.2700
     11 C           2.9795   -9.9188  -31.1716 C.2     1  UNL1        0.0252
     12 C           2.9139  -11.2555  -30.6959 C.2     1  UNL1       -0.0610
     13 C           4.0235  -11.4145  -29.9123 C.2     1  UNL1       -0.1146
     14 O           4.8500  -10.3282  -29.8456 O.co2   1  UNL1       -0.7852
     15 C           4.1763   -9.4477  -30.6553 C.2     1  UNL1       -0.1088
     16 C           4.9387   -8.2404  -31.1430 C.3     1  UNL1       -0.0523
     17 C           4.3713  -12.6915  -29.1842 C.3     1  UNL1       -0.0347
     18 C           4.4610  -13.8810  -30.1669 C.3     1  UNL1       -0.0597
     19 C           3.3599  -12.9796  -28.0500 C.3     1  UNL1       -0.0597
     20 C           4.0234   -9.8062  -36.1138 C.2     1  UNL1        0.0516
     21 O           3.7914   -9.1449  -37.1122 O.co2   1  UNL1       -0.5491
     22 O           5.1012   -9.8316  -35.5458 O.co2   1  UNL1       -0.5491
     23 H           6.0480  -13.2413  -35.9237 H       1  UNL1        0.0523
     24 H           4.6325  -13.9411  -35.1756 H       1  UNL1        0.0523
     25 H           5.1681  -12.3446  -34.7093 H       1  UNL1        0.0523
     26 H           2.6081  -12.8325  -35.3644 H       1  UNL1        0.0569
     27 H           2.2532  -12.1874  -36.9533 H       1  UNL1        0.0569
     28 H           0.7146  -10.8082  -35.7078 H       1  UNL1        0.0290
     29 H           1.3914   -9.5747  -36.6881 H       1  UNL1        0.0290
     30 H           0.2896   -9.0454  -34.2493 H       1  UNL1        0.0465
     31 H           1.5828   -8.0782  -34.8585 H       1  UNL1        0.0465
     32 H           2.5963  -11.6146  -33.5879 H       1  UNL1        0.0474
     33 H           3.9968  -10.5956  -33.6650 H       1  UNL1        0.0474
     34 H           2.1846  -11.9570  -30.8983 H       1  UNL1        0.0616
     35 H           5.8254   -8.1177  -30.5568 H       1  UNL1        0.0266
     36 H           4.3250   -7.3689  -31.0483 H       1  UNL1        0.0266
     37 H           5.2061   -8.3784  -32.1698 H       1  UNL1        0.0266
     38 H           5.3344  -12.5628  -28.7360 H       1  UNL1        0.0332
     39 H           3.5089  -14.0329  -30.6309 H       1  UNL1        0.0235
     40 H           4.7424  -14.7644  -29.6328 H       1  UNL1        0.0235
     41 H           5.1937  -13.6693  -30.9173 H       1  UNL1        0.0235
     42 H           2.3841  -13.1135  -28.4679 H       1  UNL1        0.0235
     43 H           3.3455  -12.1558  -27.3673 H       1  UNL1        0.0235
     44 H           3.6505  -13.8686  -27.5303 H       1  UNL1        0.0235
@<TRIPOS>BOND
     1     1     2    1
     2     2     3    1
     3     3     4    1
     4     4     5    1
     5     5     6    1
     6     6     7    1
     7     7     8    1
     8     4     8    1
     9     7     9   am
    10     9    10    2
    11     9    11    1
    12    11    12    1
    13    12    13    2
    14    13    14    1
    15    14    15    1
    16    11    15    2
    17    15    16    1
    18    13    17    1
    19    17    18    1
    20    17    19    1
    21     4    20    1
    22    20    21   ar
    23    20    22   ar
    24     1    23    1
    25     1    24    1
    26     1    25    1
    27     3    26    1
    28     3    27    1
    29     5    28    1
    30     5    29    1
    31     6    30    1
    32     6    31    1
    33     8    32    1
    34     8    33    1
    35    12    34    1
    36    16    35    1
    37    16    36    1
    38    16    37    1
    39    17    38    1
    40    18    39    1
    41    18    40    1
    42    18    41    1
    43    19    42    1
    44    19    43    1
    45    19    44    1
@<TRIPOS>SUBSTRUCTURE
     1 UNL1        1 TEMP              0 ****  ****    0 ROOT


