##########                                Name: HTS1710-00590388-01
##########                    Molecular_Weight:             365.299
##########                DOCK_Rotatable_Bonds:                   6
##########                       Formal_Charge:                  -2
##########                     HBond_Acceptors:                   8
##########                        HBond_Donors:                   0
##########                         Heavy_Atoms:                  27
##########                          Grid_Score:          -75.084923
##########                     Grid_vdw_energy:          -43.171913
##########                      Grid_es_energy:          -31.913010
##########           Internal_energy_repulsive:            5.819271

@<TRIPOS>MOLECULE
HTS1710-00590388-01
 38 40 1 0 0
SMALL
USER_CHARGES


@<TRIPOS>ATOM
      1 C           2.9192  -11.5687  -32.9922 C.ar    1  UNL1        0.0501
      2 C           2.0305  -12.6282  -33.0194 C.ar    1  UNL1        0.0494
      3 C           3.8347  -11.7634  -31.8357 C.2     1  UNL1        0.2539
      4 C           2.8644  -10.5389  -33.9374 C.ar    1  UNL1       -0.0380
      5 C           2.3504  -13.5312  -31.8816 C.2     1  UNL1        0.2538
      6 C           1.0379  -12.7245  -34.0004 C.ar    1  UNL1       -0.0482
      7 N           3.4399  -12.9566  -31.2382 N.am    1  UNL1       -0.2338
      8 O           4.7326  -11.0218  -31.4760 O.2     1  UNL1       -0.2695
      9 C           1.8617  -10.5984  -34.9323 C.ar    1  UNL1        0.0230
     10 O           1.7750  -14.5610  -31.5740 O.2     1  UNL1       -0.2695
     11 C           0.9622  -11.6975  -34.9637 C.ar    1  UNL1       -0.0502
     12 C           4.0495  -13.5065  -30.0141 C.3     1  UNL1        0.0280
     13 C           1.7748   -9.5059  -35.9648 C.2     1  UNL1        0.1932
     14 C           3.2421  -13.1592  -28.7422 C.3     1  UNL1        0.0031
     15 C           0.7116   -8.4485  -35.8149 C.ar    1  UNL1        0.0223
     16 O           2.5545   -9.4773  -36.9021 O.2     1  UNL1       -0.2867
     17 C           3.4133  -11.6970  -28.3129 C.2     1  UNL1        0.0432
     18 C          -0.0004   -8.3328  -34.6069 C.ar    1  UNL1       -0.0503
     19 C           0.3854   -7.5895  -36.8812 C.ar    1  UNL1       -0.0503
     20 O           4.5198  -11.2025  -28.4430 O.co2   1  UNL1       -0.5498
     21 O           2.4377  -11.1376  -27.8426 O.co2   1  UNL1       -0.5498
     22 C          -1.0046   -7.3625  -34.4594 C.ar    1  UNL1       -0.0522
     23 C          -0.6177   -6.6190  -36.7351 C.ar    1  UNL1       -0.0522
     24 C          -1.3261   -6.4910  -35.5208 C.ar    1  UNL1       -0.0026
     25 C          -2.4089   -5.4449  -35.3634 C.2     1  UNL1        0.0717
     26 O          -2.1546   -4.4672  -34.6803 O.co2   1  UNL1       -0.5446
     27 O          -3.4704   -5.6420  -35.9298 O.co2   1  UNL1       -0.5446
     28 H           3.5374   -9.7570  -33.9091 H       1  UNL1        0.0632
     29 H           0.3823  -13.5213  -34.0186 H       1  UNL1        0.0625
     30 H           0.2429  -11.7450  -35.7021 H       1  UNL1        0.0625
     31 H           5.0369  -13.1068  -29.9133 H       1  UNL1        0.0473
     32 H           4.0637  -14.5721  -30.1088 H       1  UNL1        0.0473
     33 H           3.5721  -13.7910  -27.9442 H       1  UNL1        0.0340
     34 H           2.2067  -13.3112  -28.9652 H       1  UNL1        0.0340
     35 H           0.2173   -8.9668  -33.8222 H       1  UNL1        0.0625
     36 H           0.8882   -7.6742  -37.7784 H       1  UNL1        0.0625
     37 H          -1.5130   -7.2862  -33.5646 H       1  UNL1        0.0624
     38 H          -0.8400   -5.9920  -37.5241 H       1  UNL1        0.0624
@<TRIPOS>BOND
     1     1     2   ar
     2     1     3    1
     3     1     4   ar
     4     2     5    1
     5     2     6   ar
     6     3     7   am
     7     3     8    2
     8     4     9   ar
     9     5    10    2
    10     6    11   ar
    11     7    12    1
    12     9    13    1
    13    12    14    1
    14    13    15    1
    15    13    16    2
    16    14    17    1
    17    15    18   ar
    18    15    19   ar
    19    17    20   ar
    20    17    21   ar
    21    18    22   ar
    22    19    23   ar
    23    22    24   ar
    24    24    25    1
    25    25    26   ar
    26    25    27   ar
    27     5     7   am
    28     9    11   ar
    29    23    24   ar
    30     4    28    1
    31     6    29    1
    32    11    30    1
    33    12    31    1
    34    12    32    1
    35    14    33    1
    36    14    34    1
    37    18    35    1
    38    19    36    1
    39    22    37    1
    40    23    38    1
@<TRIPOS>SUBSTRUCTURE
     1 UNL1        1 TEMP              0 ****  ****    0 ROOT


