##########                                Name: HTS1710-05326295-01
##########                    Molecular_Weight:             331.733
##########                DOCK_Rotatable_Bonds:                   4
##########                       Formal_Charge:                  -2
##########                     HBond_Acceptors:                   9
##########                        HBond_Donors:                   0
##########                         Heavy_Atoms:                  21
##########                          Grid_Score:          -74.803154
##########                     Grid_vdw_energy:          -38.647282
##########                      Grid_es_energy:          -36.155872
##########           Internal_energy_repulsive:           12.226168

@<TRIPOS>MOLECULE
HTS1710-05326295-01
 31 32 1 0 0
SMALL
USER_CHARGES


@<TRIPOS>ATOM
      1 C           2.2945  -14.5298  -29.8532 C.3     1  UNL1       -0.0383
      2 C           2.4455  -13.1532  -30.4967 C.ar    1  UNL1       -0.0297
      3 C           1.9086  -12.9267  -31.7764 C.ar    1  UNL1       -0.0310
      4 C           2.0359  -11.6711  -32.3919 C.ar    1  UNL1        0.1064
      5 C           2.7096  -10.6343  -31.7260 C.ar    1  UNL1       -0.0251
      6 C           3.2492  -10.8390  -30.4438 C.ar    1  UNL1        0.0177
      7 C           3.9582   -9.6975  -29.7721 C.2     1  UNL1        0.0731
      8 O           4.6870   -9.0046  -30.4601 O.co2   1  UNL1       -0.5446
      9 O           3.7668   -9.5585  -28.5769 O.co2   1  UNL1       -0.5446
     10 C           3.1196  -12.1062  -29.8285 C.ar    1  UNL1        0.0528
     11 CL          3.8299  -12.4024  -28.2423 Cl      1  UNL1       -0.0826
     12 S           1.3608  -11.4029  -34.0407 S.O2    1  UNL1        0.0614
     13 O           0.7420  -10.0739  -34.1058 O.2     1  UNL1       -0.1528
     14 O           0.6366  -12.6133  -34.4412 O.2     1  UNL1       -0.1528
     15 N           2.7738  -11.3554  -34.9856 N.3     1  UNL1       -0.1680
     16 C           4.0354  -11.8946  -34.4075 C.3     1  UNL1        0.0230
     17 C           4.7381  -10.9337  -35.4166 C.3     1  UNL1       -0.0160
     18 C           3.4517  -10.0491  -35.1870 C.3     1  UNL1        0.0722
     19 C           3.4836   -9.4926  -36.6555 C.2     1  UNL1        0.0606
     20 O           4.5405   -9.1365  -37.1489 O.co2   1  UNL1       -0.5481
     21 O           2.4541   -9.3919  -37.3025 O.co2   1  UNL1       -0.5481
     22 H           1.7577  -15.1762  -30.5157 H       1  UNL1        0.0278
     23 H           1.7570  -14.4363  -28.9328 H       1  UNL1        0.0278
     24 H           3.2631  -14.9416  -29.6604 H       1  UNL1        0.0278
     25 H           1.4168  -13.6897  -32.2674 H       1  UNL1        0.0640
     26 H           2.8096   -9.7138  -32.1818 H       1  UNL1        0.0644
     27 H           4.2056  -12.9374  -34.5758 H       1  UNL1        0.0445
     28 H           4.2448  -11.8974  -33.3582 H       1  UNL1        0.0445
     29 H           4.8637  -11.3169  -36.4077 H       1  UNL1        0.0297
     30 H           5.7388  -10.5735  -35.2998 H       1  UNL1        0.0297
     31 H           3.1792   -9.2686  -34.5078 H       1  UNL1        0.0541
@<TRIPOS>BOND
     1     1     2    1
     2     2     3   ar
     3     3     4   ar
     4     4     5   ar
     5     5     6   ar
     6     6     7    1
     7     7     8   ar
     8     7     9   ar
     9     6    10   ar
    10     2    10   ar
    11    10    11    1
    12     4    12    1
    13    12    13    2
    14    12    14    2
    15    12    15    1
    16    15    16    1
    17    16    17    1
    18    17    18    1
    19    15    18    1
    20    18    19    1
    21    19    20   ar
    22    19    21   ar
    23     1    22    1
    24     1    23    1
    25     1    24    1
    26     3    25    1
    27     5    26    1
    28    16    27    1
    29    16    28    1
    30    17    29    1
    31    17    30    1
    32    18    31    1
@<TRIPOS>SUBSTRUCTURE
     1 UNL1        1 TEMP              0 ****  ****    0 ROOT


