##########                                Name: HTS1710-00529481-01
##########                    Molecular_Weight:             330.321
##########                DOCK_Rotatable_Bonds:                   7
##########                       Formal_Charge:                  -2
##########                     HBond_Acceptors:                   8
##########                        HBond_Donors:                   1
##########                         Heavy_Atoms:                  23
##########                          Grid_Score:          -74.972130
##########                     Grid_vdw_energy:          -40.122059
##########                      Grid_es_energy:          -34.850071
##########           Internal_energy_repulsive:            7.366251

@<TRIPOS>MOLECULE
HTS1710-00529481-01
 33 34 1 0 0
SMALL
USER_CHARGES


@<TRIPOS>ATOM
      1 C           3.5414  -13.0853  -29.5688 C.ar    1  UNL1        0.0346
      2 C           2.7603  -13.2620  -30.7225 C.ar    1  UNL1       -0.0316
      3 C           3.8510  -11.7780  -29.1400 C.ar    1  UNL1       -0.0316
      4 N           3.8982  -14.2221  -28.8465 N.am    1  UNL1       -0.2848
      5 C           2.3100  -12.1556  -31.4714 C.ar    1  UNL1       -0.0003
      6 C           3.4031  -10.6543  -29.8625 C.ar    1  UNL1       -0.0003
      7 C           5.1537  -14.4558  -28.2993 C.2     1  UNL1        0.2274
      8 C           2.6402  -10.8563  -31.0331 C.ar    1  UNL1       -0.0439
      9 C           1.4757  -12.3614  -32.7176 C.2     1  UNL1        0.0717
     10 C           3.7190   -9.2551  -29.3749 C.2     1  UNL1        0.0717
     11 C           5.3673  -15.7613  -27.5360 C.3     1  UNL1        0.0765
     12 O           6.0535  -13.6443  -28.4395 O.2     1  UNL1       -0.2746
     13 O           1.1520  -13.5026  -32.9989 O.co2   1  UNL1       -0.5446
     14 O           1.1782  -11.3717  -33.3658 O.co2   1  UNL1       -0.5446
     15 O           4.3684   -8.5336  -30.1125 O.co2   1  UNL1       -0.5446
     16 O           3.3084   -8.9347  -28.2727 O.co2   1  UNL1       -0.5446
     17 S           6.9915  -15.6996  -26.6596 S.3     1  UNL1       -0.0966
     18 C           6.9829  -17.1867  -25.6689 C.ar    1  UNL1        0.0973
     19 C           5.7906  -17.9169  -25.4961 C.ar    1  UNL1       -0.0298
     20 N           8.1392  -17.5427  -25.0703 N.ar    1  UNL1       -0.2488
     21 C           5.7978  -19.0474  -24.6644 C.ar    1  UNL1       -0.0578
     22 C           8.1439  -18.6292  -24.2706 C.ar    1  UNL1        0.0288
     23 C           6.9982  -19.4088  -24.0354 C.ar    1  UNL1       -0.0435
     24 H           2.5122  -14.2164  -31.0267 H       1  UNL1        0.0642
     25 H           4.4132  -11.6425  -28.2852 H       1  UNL1        0.0642
     26 H           3.2084  -14.9120  -28.7139 H       1  UNL1        0.1548
     27 H           2.3191  -10.0401  -31.5768 H       1  UNL1        0.0630
     28 H           5.3632  -16.5815  -28.2232 H       1  UNL1        0.0475
     29 H           4.5805  -15.8914  -26.8227 H       1  UNL1        0.0475
     30 H           4.9241  -17.6247  -25.9744 H       1  UNL1        0.0644
     31 H           4.9387  -19.6005  -24.5188 H       1  UNL1        0.0619
     32 H           9.0275  -18.8999  -23.8113 H       1  UNL1        0.0830
     33 H           7.0395  -20.2306  -23.4124 H       1  UNL1        0.0633
@<TRIPOS>BOND
     1     1     2   ar
     2     1     3   ar
     3     1     4    1
     4     2     5   ar
     5     3     6   ar
     6     4     7   am
     7     5     8   ar
     8     5     9    1
     9     6    10    1
    10     7    11    1
    11     7    12    2
    12     9    13   ar
    13     9    14   ar
    14    10    15   ar
    15    10    16   ar
    16    11    17    1
    17    17    18    1
    18    18    19   ar
    19    18    20   ar
    20    19    21   ar
    21    20    22   ar
    22    21    23   ar
    23     6     8   ar
    24    22    23   ar
    25     2    24    1
    26     3    25    1
    27     4    26    1
    28     8    27    1
    29    11    28    1
    30    11    29    1
    31    19    30    1
    32    21    31    1
    33    22    32    1
    34    23    33    1
@<TRIPOS>SUBSTRUCTURE
     1 UNL1        1 TEMP              0 ****  ****    0 ROOT


