##########                                Name: HTS1710-02743408-01
##########                    Molecular_Weight:              475.44
##########                DOCK_Rotatable_Bonds:                   7
##########                       Formal_Charge:                  -1
##########                     HBond_Acceptors:                  12
##########                        HBond_Donors:                   3
##########                         Heavy_Atoms:                  35
##########                          Grid_Score:          -76.987930
##########                     Grid_vdw_energy:          -53.545593
##########                      Grid_es_energy:          -23.442339
##########           Internal_energy_repulsive:           16.012089

@<TRIPOS>MOLECULE
HTS1710-02743408-01
 54 57 1 0 0
SMALL
USER_CHARGES


@<TRIPOS>ATOM
      1 N          -0.2442   -7.8238  -35.6144 N.ar    1  UNL1       -0.2761
      2 C           0.3945   -8.9108  -34.9952 C.ar    1  UNL1        0.1277
      3 C           1.4445   -9.5489  -35.6407 C.ar    1  UNL1        0.1394
      4 N           3.7815  -11.9567  -32.6069 N.ar    1  UNL1       -0.2194
      5 N           4.1406  -10.8907  -31.8302 N.ar    1  UNL1       -0.1659
      6 C           0.1794   -7.3655  -36.8694 C.ar    1  UNL1        0.3310
      7 C           3.9290  -10.8678  -30.5158 C.ar    1  UNL1        0.1144
      8 N           1.2289   -7.9888  -37.5249 N.ar    1  UNL1       -0.2733
      9 C           1.8779   -9.0776  -36.9765 C.ar    1  UNL1        0.2774
     10 C           3.1709  -13.1130  -32.1452 C.ar    1  UNL1        0.2755
     11 C           4.1017  -11.7828  -34.0399 C.3     1  UNL1        0.1219
     12 N           2.1321  -10.6453  -35.0981 N.am    1  UNL1       -0.2658
     13 C           3.4415  -10.5105  -34.6153 C.2     1  UNL1        0.2413
     14 C           3.2702  -12.0419  -29.8555 C.ar    1  UNL1        0.0162
     15 C           2.8994  -13.1434  -30.6693 C.ar    1  UNL1        0.0502
     16 C           4.3935   -9.6159  -29.8165 C.2     1  UNL1        0.0922
     17 C          -1.3958   -7.1529  -34.9531 C.3     1  UNL1        0.0543
     18 O          -0.3371   -6.4212  -37.4419 O.2     1  UNL1       -0.2464
     19 O           2.7619   -9.6011  -37.6336 O.2     1  UNL1       -0.2656
     20 N           0.0215   -9.3118  -33.7281 N.pl3   1  UNL1       -0.3427
     21 O           2.8706  -14.0405  -32.8805 O.2     1  UNL1       -0.2655
     22 O           4.0406   -9.4476  -34.6695 O.2     1  UNL1       -0.2732
     23 O           3.8108   -9.2203  -28.8253 O.co2   1  UNL1       -0.5430
     24 O           5.3603   -9.0372  -30.2875 O.co2   1  UNL1       -0.5430
     25 C          -0.9578   -6.0871  -33.9547 C.ar    1  UNL1       -0.0276
     26 C           2.9873  -12.1343  -28.4660 C.ar    1  UNL1       -0.0517
     27 C           1.4395  -11.9537  -35.0564 C.3     1  UNL1        0.0086
     28 C           2.2715  -14.2762  -30.1107 C.ar    1  UNL1       -0.0487
     29 C          -0.9090   -6.3755  -32.5774 C.ar    1  UNL1       -0.0569
     30 C          -0.5959   -4.8016  -34.4028 C.ar    1  UNL1       -0.0569
     31 C           2.0036  -14.3386  -28.7407 C.ar    1  UNL1       -0.0610
     32 C           2.3635  -13.2670  -27.9211 C.ar    1  UNL1       -0.0611
     33 C          -0.1966   -3.8167  -33.4853 C.ar    1  UNL1       -0.0614
     34 C          -0.5099   -5.3898  -31.6605 C.ar    1  UNL1       -0.0614
     35 C          -0.1545   -4.1098  -32.1139 C.ar    1  UNL1       -0.0617
     36 H           1.5187   -7.6477  -38.4018 H       1  UNL1        0.1735
     37 H           3.7467  -12.6345  -34.5817 H       1  UNL1        0.0606
     38 H           5.1627  -11.6850  -34.1381 H       1  UNL1        0.0606
     39 H          -1.9718   -7.8914  -34.4355 H       1  UNL1        0.0543
     40 H          -1.9699   -6.6679  -35.7146 H       1  UNL1        0.0543
     41 H          -0.7230   -8.8607  -33.2682 H       1  UNL1        0.1437
     42 H           0.4999  -10.0489  -33.2844 H       1  UNL1        0.1437
     43 H           3.2460  -11.3521  -27.8447 H       1  UNL1        0.0624
     44 H           0.4571  -11.8505  -35.4677 H       1  UNL1        0.0433
     45 H           1.3684  -12.2873  -34.0422 H       1  UNL1        0.0433
     46 H           1.9926  -12.6685  -35.6290 H       1  UNL1        0.0433
     47 H           2.0073  -15.0664  -30.7197 H       1  UNL1        0.0625
     48 H          -1.1678   -7.3159  -32.2402 H       1  UNL1        0.0621
     49 H          -0.6245   -4.5825  -35.4108 H       1  UNL1        0.0621
     50 H           1.5436  -15.1700  -28.3380 H       1  UNL1        0.0618
     51 H           2.1696  -13.3082  -26.9084 H       1  UNL1        0.0618
     52 H           0.0662   -2.8765  -33.8199 H       1  UNL1        0.0618
     53 H          -0.4778   -5.6066  -30.6521 H       1  UNL1        0.0618
     54 H           0.1374   -3.3853  -31.4395 H       1  UNL1        0.0618
@<TRIPOS>BOND
     1     1     2   ar
     2     1     6   ar
     3     1    17    1
     4     2     3   ar
     5     2    20    1
     6     3     9   ar
     7     3    12    1
     8     4     5   ar
     9     4    10   ar
    10     4    11    1
    11     5     7   ar
    12     6     8   ar
    13     6    18    2
    14     7    14   ar
    15     7    16    1
    16     8     9   ar
    17     9    19    2
    18    10    15   ar
    19    10    21    2
    20    11    13    1
    21    12    13   am
    22    12    27    1
    23    13    22    2
    24    14    15   ar
    25    14    26   ar
    26    15    28   ar
    27    16    23   ar
    28    16    24   ar
    29    17    25    1
    30    25    29   ar
    31    25    30   ar
    32    26    32   ar
    33    28    31   ar
    34    29    34   ar
    35    30    33   ar
    36    31    32   ar
    37    33    35   ar
    38    34    35   ar
    39     8    36    1
    40    11    37    1
    41    11    38    1
    42    17    39    1
    43    17    40    1
    44    20    41    1
    45    20    42    1
    46    26    43    1
    47    27    44    1
    48    27    45    1
    49    27    46    1
    50    28    47    1
    51    29    48    1
    52    30    49    1
    53    31    50    1
    54    32    51    1
    55    33    52    1
    56    34    53    1
    57    35    54    1
@<TRIPOS>SUBSTRUCTURE
     1 UNL1        1 TEMP              0 ****  ****    0 ROOT


