##########                                Name: HTS1710-02671560-01
##########                    Molecular_Weight:             365.387
##########                DOCK_Rotatable_Bonds:                   8
##########                       Formal_Charge:                  -2
##########                     HBond_Acceptors:                   9
##########                        HBond_Donors:                   1
##########                         Heavy_Atoms:                  24
##########                          Grid_Score:          -79.720459
##########                     Grid_vdw_energy:          -45.095520
##########                      Grid_es_energy:          -34.624939
##########           Internal_energy_repulsive:           11.355741

@<TRIPOS>MOLECULE
HTS1710-02671560-01
 35 36 1 0 0
SMALL
USER_CHARGES


@<TRIPOS>ATOM
      1 N           2.8170  -12.9648  -29.9536 N.am    1  UNL1       -0.2466
      2 C           1.8246  -13.9281  -29.8245 C.2     1  UNL1        0.1211
      3 C           2.9593  -12.4705  -31.2517 C.2     1  UNL1        0.2589
      4 C           1.9722  -13.1109  -32.1538 C.2     1  UNL1        0.0772
      5 S           0.9440  -14.2723  -31.3410 S.3     1  UNL1       -0.0610
      6 C           3.6227  -12.4965  -28.7927 C.3     1  UNL1        0.0718
      7 C           1.9253  -12.8027  -33.4988 C.2     1  UNL1       -0.0357
      8 C           3.6171  -10.9516  -28.7009 C.2     1  UNL1        0.0626
      9 S           1.4960  -14.7942  -28.4259 S.2     1  UNL1       -0.0272
     10 C           5.0327  -13.1566  -28.7959 C.3     1  UNL1       -0.0235
     11 O           3.7927  -11.6493  -31.5963 O.2     1  UNL1       -0.2690
     12 C           6.6151  -14.6204  -27.3846 C.2     1  UNL1        0.0418
     13 O           4.5439  -10.3713  -29.2406 O.co2   1  UNL1       -0.5479
     14 O           7.3370  -13.6514  -27.2254 O.co2   1  UNL1       -0.5498
     15 C           2.6600  -11.8833  -34.4222 C.ar    1  UNL1       -0.0236
     16 C           5.1668  -14.3578  -27.8229 C.3     1  UNL1       -0.0112
     17 O           2.6978  -10.4059  -28.1139 O.co2   1  UNL1       -0.5479
     18 C           3.9260  -10.0809  -36.2024 C.ar    1  UNL1        0.1169
     19 O           6.9458  -15.7819  -27.2185 O.co2   1  UNL1       -0.5498
     20 C           4.0516  -11.9539  -34.6511 C.ar    1  UNL1       -0.0511
     21 C           1.9180  -10.8950  -35.1017 C.ar    1  UNL1       -0.0511
     22 C           2.5440   -9.9994  -35.9841 C.ar    1  UNL1       -0.0196
     23 C           4.6782  -11.0597  -35.5355 C.ar    1  UNL1       -0.0196
     24 O           4.5362   -9.2130  -37.0608 O.3     1  UNL1       -0.5068
     25 H           3.1676  -12.8238  -27.8813 H       1  UNL1        0.0566
     26 H           1.1987  -13.3442  -33.9925 H       1  UNL1        0.0636
     27 H           5.7524  -12.4154  -28.5174 H       1  UNL1        0.0290
     28 H           5.1953  -13.5367  -29.7828 H       1  UNL1        0.0290
     29 H           4.7947  -15.2343  -28.3109 H       1  UNL1        0.0325
     30 H           4.6059  -14.1196  -26.9434 H       1  UNL1        0.0325
     31 H           4.6140  -12.6691  -34.1642 H       1  UNL1        0.0625
     32 H           0.8996  -10.8288  -34.9482 H       1  UNL1        0.0625
     33 H           1.9862   -9.2812  -36.4720 H       1  UNL1        0.0654
     34 H           5.6958  -11.1231  -35.6952 H       1  UNL1        0.0654
     35 H           5.2882   -9.4869  -37.5481 H       1  UNL1        0.2921
@<TRIPOS>BOND
     1     1     2    1
     2     1     3   am
     3     1     6    1
     4     2     5    1
     5     2     9    2
     6     3     4    1
     7     3    11    2
     8     4     5    1
     9     4     7    2
    10     6     8    1
    11     6    10    1
    12     7    15    1
    13     8    13   ar
    14     8    17   ar
    15    10    16    1
    16    12    14   ar
    17    12    16    1
    18    12    19   ar
    19    15    20   ar
    20    15    21   ar
    21    18    22   ar
    22    18    23   ar
    23    18    24    1
    24    20    23   ar
    25    21    22   ar
    26     6    25    1
    27     7    26    1
    28    10    27    1
    29    10    28    1
    30    16    29    1
    31    16    30    1
    32    20    31    1
    33    21    32    1
    34    22    33    1
    35    23    34    1
    36    24    35    1
@<TRIPOS>SUBSTRUCTURE
     1 UNL1        1 TEMP              0 ****  ****    0 ROOT


