##########                                Name: HTS1710-04282216-01
##########                    Molecular_Weight:             374.393
##########                DOCK_Rotatable_Bonds:                   9
##########                       Formal_Charge:                  -2
##########                     HBond_Acceptors:                   8
##########                        HBond_Donors:                   1
##########                         Heavy_Atoms:                  27
##########                          Grid_Score:          -77.377945
##########                     Grid_vdw_energy:          -43.284599
##########                      Grid_es_energy:          -34.093349
##########           Internal_energy_repulsive:           13.277511

@<TRIPOS>MOLECULE
HTS1710-04282216-01
 49 51 1 0 0
SMALL
USER_CHARGES


@<TRIPOS>ATOM
      1 C           2.0295  -10.5991  -34.5548 C.2     1  UNL1        0.2455
      2 C           3.0891   -9.9812  -35.4195 C.2     1  UNL1        0.0219
      3 C           6.4409  -16.6094  -26.2070 C.2     1  UNL1        0.0217
      4 N           2.3447  -11.6531  -33.6678 N.am    1  UNL1       -0.2975
      5 C           6.1027  -15.5834  -27.2086 C.2     1  UNL1        0.2430
      6 C           3.3072  -12.7059  -30.2575 C.2     1  UNL1        0.3106
      7 N           4.7630  -15.3852  -27.5082 N.am    1  UNL1       -0.3079
      8 O           2.5278  -12.9121  -29.1530 O.3     1  UNL1       -0.4599
      9 C           4.2537   -9.4644  -34.9004 C.2     1  UNL1       -0.1218
     10 C           7.6791  -16.8857  -25.6841 C.2     1  UNL1       -0.1218
     11 C           3.2395   -9.7799  -36.8270 C.2     1  UNL1       -0.0647
     12 C           5.5649  -17.5212  -25.5670 C.2     1  UNL1       -0.0647
     13 C           2.9058  -13.6093  -31.4418 C.3     1  UNL1        0.0593
     14 O           5.1219   -8.9338  -35.8163 O.co2   1  UNL1       -0.7897
     15 O           7.6876  -17.8995  -24.7610 O.co2   1  UNL1       -0.7897
     16 O           0.8863  -10.1795  -34.6428 O.2     1  UNL1       -0.2700
     17 C           3.7086  -12.2324  -33.5100 C.3     1  UNL1        0.0157
     18 C           1.3036  -12.0015  -32.6516 C.3     1  UNL1        0.0157
     19 O           4.2263  -11.9063  -30.3160 O.2     1  UNL1       -0.2505
     20 O           6.9562  -14.9113  -27.7633 O.2     1  UNL1       -0.2702
     21 C           6.3636  -18.2533  -24.7283 C.2     1  UNL1       -0.1335
     22 C           4.4472   -9.1540  -36.9821 C.2     1  UNL1       -0.1335
     23 C           1.4706  -13.3535  -31.9275 C.3     1  UNL1       -0.0242
     24 C           3.8516  -13.5213  -32.6558 C.3     1  UNL1       -0.0242
     25 C           4.3049  -14.3908  -28.4899 C.3     1  UNL1        0.0488
     26 C           2.8898  -13.8705  -28.1378 C.3     1  UNL1        0.1157
     27 C           1.8305  -15.0040  -28.0784 C.3     1  UNL1       -0.0262
     28 H           4.0901  -15.9337  -27.0439 H       1  UNL1        0.1491
     29 H           4.4590   -9.4759  -33.8890 H       1  UNL1        0.0462
     30 H           8.5313  -16.3741  -25.9619 H       1  UNL1        0.0462
     31 H           2.5766  -10.0499  -37.5704 H       1  UNL1        0.0613
     32 H           4.5461  -17.6138  -25.7031 H       1  UNL1        0.0613
     33 H           2.9791  -14.5952  -31.0324 H       1  UNL1        0.0414
     34 H           4.3246  -11.4816  -33.0608 H       1  UNL1        0.0465
     35 H           3.9915  -12.5302  -34.4980 H       1  UNL1        0.0465
     36 H           0.3562  -12.0143  -33.1488 H       1  UNL1        0.0465
     37 H           1.3955  -11.2586  -31.8871 H       1  UNL1        0.0465
     38 H           5.9997  -19.0065  -24.1238 H       1  UNL1        0.0455
     39 H           4.8165   -8.8722  -37.9037 H       1  UNL1        0.0455
     40 H           0.8176  -13.3678  -31.0800 H       1  UNL1        0.0288
     41 H           1.2327  -14.1223  -32.6326 H       1  UNL1        0.0288
     42 H           4.8581  -13.5707  -32.2961 H       1  UNL1        0.0288
     43 H           3.5884  -14.3355  -33.2983 H       1  UNL1        0.0288
     44 H           4.2798  -14.8428  -29.4595 H       1  UNL1        0.0498
     45 H           4.9838  -13.5638  -28.4779 H       1  UNL1        0.0498
     46 H           2.9108  -13.4317  -27.1621 H       1  UNL1        0.0747
     47 H           1.7656  -15.4819  -29.0334 H       1  UNL1        0.0266
     48 H           0.8782  -14.5891  -27.8218 H       1  UNL1        0.0266
     49 H           2.1177  -15.7221  -27.3389 H       1  UNL1        0.0266
@<TRIPOS>BOND
     1     1     2    1
     2     3     5    1
     3     1     4   am
     4     5     7   am
     5     6    13    1
     6     7    25    1
     7     6     8    1
     8     2     9    2
     9     3    10    2
    10     2    11    1
    11     3    12    1
    12    13    23    1
    13     9    14    1
    14    10    15    1
    15     1    16    2
    16     4    17    1
    17     4    18    1
    18     6    19    2
    19     5    20    2
    20    12    21    2
    21    11    22    2
    22    18    23    1
    23    17    24    1
    24    25    26    1
    25     8    26    1
    26    26    27    1
    27    14    22    1
    28    13    24    1
    29    15    21    1
    30     7    28    1
    31     9    29    1
    32    10    30    1
    33    11    31    1
    34    12    32    1
    35    13    33    1
    36    17    34    1
    37    17    35    1
    38    18    36    1
    39    18    37    1
    40    21    38    1
    41    22    39    1
    42    23    40    1
    43    23    41    1
    44    24    42    1
    45    24    43    1
    46    25    44    1
    47    25    45    1
    48    26    46    1
    49    27    47    1
    50    27    48    1
    51    27    49    1
@<TRIPOS>SUBSTRUCTURE
     1 UNL1        1 TEMP              0 ****  ****    0 ROOT


