##########                                Name: HTS1710-01057672-01
##########                    Molecular_Weight:             274.233
##########                DOCK_Rotatable_Bonds:                   5
##########                       Formal_Charge:                  -2
##########                     HBond_Acceptors:                   7
##########                        HBond_Donors:                   2
##########                         Heavy_Atoms:                  20
##########                          Grid_Score:          -75.587921
##########                     Grid_vdw_energy:          -34.423576
##########                      Grid_es_energy:          -41.164345
##########           Internal_energy_repulsive:           14.847132

@<TRIPOS>MOLECULE
HTS1710-01057672-01
 30 31 1 0 0
SMALL
USER_CHARGES


@<TRIPOS>ATOM
      1 C           5.3700   -9.0033  -32.8768 C.ar    1  UNL1        0.0547
      2 C           5.1703   -9.4201  -34.3152 C.ar    1  UNL1        0.2601
      3 N           4.6080  -10.6854  -34.5281 N.ar    1  UNL1       -0.3072
      4 C           4.9957   -9.8325  -31.8096 C.ar    1  UNL1       -0.0848
      5 C           4.3646  -11.1253  -32.1302 C.ar    1  UNL1       -0.0084
      6 C           4.1655  -11.5344  -33.4639 C.ar    1  UNL1        0.0515
      7 C           6.0012   -7.6481  -32.5961 C.2     1  UNL1        0.0763
      8 C           4.5050  -11.1669  -35.9349 C.3     1  UNL1        0.0349
      9 C           3.0684  -11.0358  -36.4934 C.3     1  UNL1        0.0418
     10 C           2.8238   -9.6536  -37.1028 C.2     1  UNL1        0.2122
     11 O           5.4743   -8.7108  -35.2625 O.2     1  UNL1       -0.2670
     12 O           6.0774   -7.2578  -31.4437 O.co2   1  UNL1       -0.5445
     13 O           5.1498   -9.5354  -30.4991 O.co2   1  UNL1       -0.8727
     14 O           3.6358   -9.1090  -37.8289 O.2     1  UNL1       -0.2760
     15 N           1.6493   -8.9880  -36.8132 N.am    1  UNL1       -0.3293
     16 O           6.4154   -6.9834  -33.5286 O.co2   1  UNL1       -0.5445
     17 C           3.9378  -11.9768  -31.0791 C.ar    1  UNL1       -0.0532
     18 C           3.5224  -12.7750  -33.7159 C.ar    1  UNL1       -0.0375
     19 C           3.3174  -13.2022  -31.3451 C.ar    1  UNL1       -0.0611
     20 C           3.1058  -13.5997  -32.6655 C.ar    1  UNL1       -0.0598
     21 H           4.7954  -12.1963  -35.9690 H       1  UNL1        0.0497
     22 H           5.1485  -10.5607  -36.5376 H       1  UNL1        0.0497
     23 H           2.3709  -11.1925  -35.6973 H       1  UNL1        0.0376
     24 H           2.9411  -11.7679  -37.2634 H       1  UNL1        0.0376
     25 H           1.4798   -8.0981  -37.1989 H       1  UNL1        0.1449
     26 H           0.9814   -9.4031  -36.2210 H       1  UNL1        0.1449
     27 H           4.0877  -11.6870  -30.1001 H       1  UNL1        0.0624
     28 H           3.3596  -13.0733  -34.6904 H       1  UNL1        0.0638
     29 H           3.0173  -13.8101  -30.5670 H       1  UNL1        0.0618
     30 H           2.6430  -14.4999  -32.8668 H       1  UNL1        0.0618
@<TRIPOS>BOND
     1     1     2   ar
     2     2     3   ar
     3     1     4   ar
     4     4     5   ar
     5     5     6   ar
     6     1     7    1
     7     3     8    1
     8     8     9    1
     9     9    10    1
    10     2    11    2
    11     7    12   ar
    12     4    13    1
    13    10    14    2
    14    10    15   am
    15     7    16   ar
    16     5    17   ar
    17     6    18   ar
    18    17    19   ar
    19    19    20   ar
    20     3     6   ar
    21    18    20   ar
    22     8    21    1
    23     8    22    1
    24     9    23    1
    25     9    24    1
    26    15    25    1
    27    15    26    1
    28    17    27    1
    29    18    28    1
    30    19    29    1
    31    20    30    1
@<TRIPOS>SUBSTRUCTURE
     1 UNL1        1 TEMP              0 ****  ****    0 ROOT


