##########                                Name: HTS1710-00593851-01
##########                    Molecular_Weight:             401.353
##########                DOCK_Rotatable_Bonds:                   6
##########                       Formal_Charge:                  -2
##########                     HBond_Acceptors:                  10
##########                        HBond_Donors:                   0
##########                         Heavy_Atoms:                  28
##########                          Grid_Score:          -76.574249
##########                     Grid_vdw_energy:          -44.421501
##########                      Grid_es_energy:          -32.152748
##########           Internal_energy_repulsive:            9.597374

@<TRIPOS>MOLECULE
HTS1710-00593851-01
 39 41 1 0 0
SMALL
USER_CHARGES


@<TRIPOS>ATOM
      1 C           3.1390  -12.3151  -32.3325 C.ar    1  UNL1        0.0512
      2 C           1.9881  -13.0827  -32.3025 C.ar    1  UNL1        0.0495
      3 C           3.3995  -11.4216  -33.3767 C.ar    1  UNL1       -0.0236
      4 C           3.9376  -12.6317  -31.1168 C.2     1  UNL1        0.2539
      5 C           2.0176  -13.9130  -31.0684 C.2     1  UNL1        0.2538
      6 C           1.0239  -12.9964  -33.3123 C.ar    1  UNL1       -0.0471
      7 C           2.4457  -11.3226  -34.4144 C.ar    1  UNL1        0.0943
      8 N           3.2130  -13.5992  -30.4308 N.am    1  UNL1       -0.2338
      9 O           5.0052  -12.1449  -30.7902 O.2     1  UNL1       -0.2695
     10 O           1.1647  -14.6988  -30.6906 O.2     1  UNL1       -0.2695
     11 C           1.2619  -12.1025  -34.3755 C.ar    1  UNL1       -0.0357
     12 S           2.7185  -10.1794  -35.7795 S.O2    1  UNL1        0.0251
     13 C           3.6284  -14.1644  -29.1338 C.3     1  UNL1        0.0280
     14 C           1.3408   -9.0350  -35.5853 C.ar    1  UNL1        0.0936
     15 O           2.5169  -10.9173  -37.0313 O.2     1  UNL1       -0.1643
     16 O           3.9605   -9.4451  -35.5174 O.2     1  UNL1       -0.1643
     17 C           2.9009  -13.5030  -27.9398 C.3     1  UNL1        0.0031
     18 C           0.6591   -8.9505  -34.3593 C.ar    1  UNL1       -0.0359
     19 C           0.9252   -8.2374  -36.6645 C.ar    1  UNL1       -0.0359
     20 C           3.1240  -11.9866  -27.8775 C.2     1  UNL1        0.0432
     21 C          -0.4201   -8.0662  -34.2095 C.ar    1  UNL1       -0.0511
     22 C          -0.1542   -7.3522  -36.5152 C.ar    1  UNL1       -0.0511
     23 O           4.2406  -11.5750  -28.1428 O.co2   1  UNL1       -0.5498
     24 O           2.1611  -11.2940  -27.5971 O.co2   1  UNL1       -0.5498
     25 C          -0.8393   -7.2544  -35.2850 C.ar    1  UNL1       -0.0026
     26 C          -2.0015   -6.3001  -35.1241 C.2     1  UNL1        0.0717
     27 O          -2.1602   -5.7836  -34.0306 O.co2   1  UNL1       -0.5446
     28 O          -2.7096   -6.1055  -36.0974 O.co2   1  UNL1       -0.5446
     29 H           4.2606  -10.8529  -33.3888 H       1  UNL1        0.0644
     30 H           0.1659  -13.5690  -33.2797 H       1  UNL1        0.0626
     31 H           0.5674  -12.0144  -35.1337 H       1  UNL1        0.0637
     32 H           4.6820  -14.0183  -29.0175 H       1  UNL1        0.0473
     33 H           3.3733  -15.2035  -29.1352 H       1  UNL1        0.0473
     34 H           3.2639  -13.9401  -27.0331 H       1  UNL1        0.0340
     35 H           1.8518  -13.6706  -28.0673 H       1  UNL1        0.0340
     36 H           0.9533   -9.5413  -33.5659 H       1  UNL1        0.0637
     37 H           1.4151   -8.3024  -37.5704 H       1  UNL1        0.0637
     38 H          -0.9121   -8.0089  -33.3041 H       1  UNL1        0.0625
     39 H          -0.4495   -6.7674  -37.3125 H       1  UNL1        0.0625
@<TRIPOS>BOND
     1     1     2   ar
     2     1     3   ar
     3     1     4    1
     4     2     5    1
     5     2     6   ar
     6     3     7   ar
     7     4     8   am
     8     4     9    2
     9     5    10    2
    10     6    11   ar
    11     7    12    1
    12     8    13    1
    13    12    14    1
    14    12    15    2
    15    12    16    2
    16    13    17    1
    17    14    18   ar
    18    14    19   ar
    19    17    20    1
    20    18    21   ar
    21    19    22   ar
    22    20    23   ar
    23    20    24   ar
    24    21    25   ar
    25    25    26    1
    26    26    27   ar
    27    26    28   ar
    28     5     8   am
    29     7    11   ar
    30    22    25   ar
    31     3    29    1
    32     6    30    1
    33    11    31    1
    34    13    32    1
    35    13    33    1
    36    17    34    1
    37    17    35    1
    38    18    36    1
    39    19    37    1
    40    21    38    1
    41    22    39    1
@<TRIPOS>SUBSTRUCTURE
     1 UNL1        1 TEMP              0 ****  ****    0 ROOT


