##########                                Name: HTS1710-05328725-01
##########                    Molecular_Weight:             329.332
##########                DOCK_Rotatable_Bonds:                   8
##########                       Formal_Charge:                  -2
##########                     HBond_Acceptors:                   7
##########                        HBond_Donors:                   1
##########                         Heavy_Atoms:                  24
##########                          Grid_Score:          -77.226303
##########                     Grid_vdw_energy:          -39.325333
##########                      Grid_es_energy:          -37.900974
##########           Internal_energy_repulsive:            7.304006

@<TRIPOS>MOLECULE
HTS1710-05328725-01
 41 43 1 0 0
SMALL
USER_CHARGES


@<TRIPOS>ATOM
      1 O           4.9088   -6.3404  -31.4877 O.co2   1  UNL1       -0.5431
      2 C           5.7597   -7.0503  -31.9956 C.2     1  UNL1        0.0890
      3 OXT         6.3462   -7.9419  -31.4073 O.co2   1  UNL1       -0.5431
      4 CA          6.0865   -6.8011  -33.4258 C.2     1  UNL1        0.0763
      5 N           6.4715   -5.5934  -33.9148 N.2     1  UNL1       -0.2691
      6 C           6.6586   -5.8254  -35.2027 C.2     1  UNL1       -0.0366
      7 O           6.4308   -7.1119  -35.6460 O.co2   1  UNL1       -0.7726
      8 C           6.0663   -7.6956  -34.4636 C.2     1  UNL1       -0.0634
      9 C           5.7376   -9.1706  -34.4209 C.3     1  UNL1        0.0625
     10 O           4.3139   -9.3568  -34.2964 O.3     1  UNL1       -0.3671
     11 C           3.8958  -10.6832  -33.9227 C.3     1  UNL1        0.1240
     12 C           3.7250  -10.7580  -32.4058 C.2     1  UNL1        0.2390
     13 O           4.0622   -9.8406  -31.6767 O.2     1  UNL1       -0.2733
     14 N           3.1621  -11.9059  -31.8674 N.am    1  UNL1       -0.3105
     15 C           2.9560  -12.0746  -30.4250 C.3     1  UNL1        0.0243
     16 C           2.9467  -13.5724  -29.9844 C.3     1  UNL1       -0.0276
     17 C           3.6574  -13.0577  -28.6831 C.3     1  UNL1       -0.0125
     18 C           4.2869  -11.9635  -29.6180 C.3     1  UNL1       -0.0276
     19 C           4.6934  -14.0557  -28.1561 C.ar    1  UNL1       -0.0442
     20 C           4.4965  -15.4444  -28.3054 C.ar    1  UNL1       -0.0583
     21 C           5.4590  -16.3542  -27.8368 C.ar    1  UNL1       -0.0615
     22 C           6.6305  -15.8860  -27.2251 C.ar    1  UNL1       -0.0617
     23 C           6.8443  -14.5063  -27.0887 C.ar    1  UNL1       -0.0615
     24 C           5.8831  -13.5955  -27.5567 C.ar    1  UNL1       -0.0583
     25 H           6.9612   -5.0783  -35.8472 H       1  UNL1        0.0668
     26 H           6.2279   -9.6185  -33.5819 H       1  UNL1        0.0599
     27 H           6.0734   -9.6308  -35.3267 H       1  UNL1        0.0599
     28 H           4.6361  -11.3907  -34.2330 H       1  UNL1        0.0657
     29 H           2.9637  -10.9090  -34.3970 H       1  UNL1        0.0657
     30 H           2.8917  -12.6324  -32.4744 H       1  UNL1        0.1490
     31 H           2.1225  -11.4220  -30.2697 H       1  UNL1        0.0498
     32 H           3.5327  -14.2290  -30.5930 H       1  UNL1        0.0289
     33 H           2.0577  -14.1674  -29.9650 H       1  UNL1        0.0289
     34 H           3.1354  -12.8210  -27.7795 H       1  UNL1        0.0350
     35 H           5.1660  -12.2681  -30.1466 H       1  UNL1        0.0289
     36 H           4.6686  -11.0339  -29.2505 H       1  UNL1        0.0289
     37 H           3.6397  -15.7945  -28.7618 H       1  UNL1        0.0620
     38 H           5.3035  -17.3689  -27.9431 H       1  UNL1        0.0618
     39 H           7.3343  -16.5552  -26.8759 H       1  UNL1        0.0618
     40 H           7.7088  -14.1601  -26.6440 H       1  UNL1        0.0618
     41 H           6.0492  -12.5814  -27.4609 H       1  UNL1        0.0620
@<TRIPOS>BOND
     1     1     2   ar
     2     2     3   ar
     3     2     4    1
     4     4     5    1
     5     5     6    2
     6     6     7    1
     7     7     8    1
     8     4     8    2
     9     8     9    1
    10     9    10    1
    11    10    11    1
    12    11    12    1
    13    12    13    2
    14    12    14   am
    15    14    15    1
    16    15    16    1
    17    16    17    1
    18    17    18    1
    19    15    18    1
    20    17    19    1
    21    19    20   ar
    22    20    21   ar
    23    21    22   ar
    24    22    23   ar
    25    23    24   ar
    26    19    24   ar
    27     6    25    1
    28     9    26    1
    29     9    27    1
    30    11    28    1
    31    11    29    1
    32    14    30    1
    33    15    31    1
    34    16    32    1
    35    16    33    1
    36    17    34    1
    37    18    35    1
    38    18    36    1
    39    20    37    1
    40    21    38    1
    41    22    39    1
    42    23    40    1
    43    24    41    1
@<TRIPOS>SUBSTRUCTURE
     1 UNL1        1 TEMP              0 ****  ****    0 ROOT


