##########                                Name: HTS1710-00109905-01
##########                    Molecular_Weight:             356.288
##########                DOCK_Rotatable_Bonds:                   9
##########                       Formal_Charge:                  -2
##########                     HBond_Acceptors:                   8
##########                        HBond_Donors:                   0
##########                         Heavy_Atoms:                  26
##########                          Grid_Score:          -79.573349
##########                     Grid_vdw_energy:          -40.521648
##########                      Grid_es_energy:          -39.051701
##########           Internal_energy_repulsive:           10.329040

@<TRIPOS>MOLECULE
HTS1710-00109905-01
 38 39 1 0 0
SMALL
USER_CHARGES


@<TRIPOS>ATOM
      1 C           2.9700  -11.2168  -30.0670 C.3     1  UNL1        0.1842
      2 C           3.4790  -10.6412  -31.4252 C.3     1  UNL1        0.1842
      3 O           3.9738  -12.1165  -29.5347 O.3     1  UNL1       -0.4477
      4 O           3.7131  -11.7511  -32.3245 O.3     1  UNL1       -0.4477
      5 C           3.6428  -13.3465  -29.0347 C.2     1  UNL1        0.3399
      6 C           2.7836  -12.0924  -33.2683 C.2     1  UNL1        0.3399
      7 C           4.7384   -9.7647  -31.2559 C.2     1  UNL1        0.0861
      8 C           2.6778  -10.1144  -29.0292 C.2     1  UNL1        0.0861
      9 O           2.5273  -13.8364  -29.1079 O.2     1  UNL1       -0.2449
     10 O           1.9606  -12.9823  -33.1236 O.2     1  UNL1       -0.2449
     11 C           2.8786  -11.2666  -34.5272 C.ar    1  UNL1        0.0590
     12 C           4.7974  -14.0472  -28.3588 C.ar    1  UNL1        0.0590
     13 O           5.1371   -9.5355  -30.1254 O.co2   1  UNL1       -0.5459
     14 O           2.3077   -9.0358  -29.4611 O.co2   1  UNL1       -0.5459
     15 O           5.2902   -9.4010  -32.2801 O.co2   1  UNL1       -0.5459
     16 O           2.7424  -10.4093  -27.8471 O.co2   1  UNL1       -0.5459
     17 C           4.1046  -11.1824  -35.2210 C.ar    1  UNL1       -0.0478
     18 C           1.7615  -10.5628  -35.0322 C.ar    1  UNL1       -0.0478
     19 C           5.9074  -13.3258  -27.8632 C.ar    1  UNL1       -0.0478
     20 C           4.7762  -15.4493  -28.2078 C.ar    1  UNL1       -0.0478
     21 C           4.2132  -10.4141  -36.3903 C.ar    1  UNL1       -0.0610
     22 C           1.8737   -9.7950  -36.2034 C.ar    1  UNL1       -0.0610
     23 C           6.9665  -13.9955  -27.2297 C.ar    1  UNL1       -0.0610
     24 C           5.8370  -16.1164  -27.5731 C.ar    1  UNL1       -0.0610
     25 C           6.9323  -15.3895  -27.0828 C.ar    1  UNL1       -0.0617
     26 C           3.0983   -9.7199  -36.8828 C.ar    1  UNL1       -0.0617
     27 H           2.0503  -11.7302  -30.2555 H       1  UNL1        0.0839
     28 H           2.7341   -9.9918  -31.8355 H       1  UNL1        0.0839
     29 H           4.9292  -11.6906  -34.8650 H       1  UNL1        0.0626
     30 H           0.8573  -10.6134  -34.5371 H       1  UNL1        0.0626
     31 H           5.9395  -12.2996  -27.9677 H       1  UNL1        0.0626
     32 H           3.9740  -15.9900  -28.5670 H       1  UNL1        0.0626
     33 H           5.1152  -10.3599  -36.8889 H       1  UNL1        0.0618
     34 H           1.0527   -9.2847  -36.5649 H       1  UNL1        0.0618
     35 H           7.7726  -13.4600  -26.8712 H       1  UNL1        0.0618
     36 H           5.8107  -17.1427  -27.4673 H       1  UNL1        0.0618
     37 H           7.7109  -15.8796  -26.6152 H       1  UNL1        0.0618
     38 H           3.1790   -9.1554  -37.7429 H       1  UNL1        0.0618
@<TRIPOS>BOND
     1     1     2    1
     2     1     3    1
     3     2     4    1
     4     3     5    1
     5     4     6    1
     6     2     7    1
     7     1     8    1
     8     5     9    2
     9     6    10    2
    10     6    11    1
    11     5    12    1
    12     7    13   ar
    13     8    14   ar
    14     7    15   ar
    15     8    16   ar
    16    11    17   ar
    17    11    18   ar
    18    12    19   ar
    19    12    20   ar
    20    17    21   ar
    21    18    22   ar
    22    19    23   ar
    23    20    24   ar
    24    24    25   ar
    25    22    26   ar
    26    23    25   ar
    27    21    26   ar
    28     1    27    1
    29     2    28    1
    30    17    29    1
    31    18    30    1
    32    19    31    1
    33    20    32    1
    34    21    33    1
    35    22    34    1
    36    23    35    1
    37    24    36    1
    38    25    37    1
    39    26    38    1
@<TRIPOS>SUBSTRUCTURE
     1 UNL1        1 TEMP              0 ****  ****    0 ROOT


