##########                                Name: HTS1710-05395472-01
##########                    Molecular_Weight:             317.321
##########                DOCK_Rotatable_Bonds:                   7
##########                       Formal_Charge:                  -2
##########                     HBond_Acceptors:                   7
##########                        HBond_Donors:                   1
##########                         Heavy_Atoms:                  23
##########                          Grid_Score:          -75.367737
##########                     Grid_vdw_energy:          -41.625755
##########                      Grid_es_energy:          -33.741982
##########           Internal_energy_repulsive:            6.630406

@<TRIPOS>MOLECULE
HTS1710-05395472-01
 40 41 1 0 0
SMALL
USER_CHARGES


@<TRIPOS>ATOM
      1 C           3.0985  -13.4161  -32.5316 C.3     1  UNL1       -0.0281
      2 C           2.0546  -13.9935  -31.5501 C.3     1  UNL1        0.0947
      3 C           0.6101  -13.6949  -32.0207 C.3     1  UNL1       -0.0281
      4 O           2.2771  -13.3491  -30.2807 O.3     1  UNL1       -0.4871
      5 C           3.3165  -13.6125  -29.4061 C.ar    1  UNL1        0.1512
      6 C           3.6400  -14.9358  -29.0346 C.ar    1  UNL1       -0.0162
      7 C           4.7009  -15.1515  -28.1470 C.ar    1  UNL1       -0.0401
      8 C           5.4058  -14.0433  -27.6573 C.ar    1  UNL1        0.0287
      9 N           5.1114  -12.7776  -28.0106 N.ar    1  UNL1       -0.2468
     10 C           4.0934  -12.5438  -28.8727 C.ar    1  UNL1        0.1668
     11 C           3.8476  -11.0821  -29.2183 C.2     1  UNL1        0.2662
     12 O           2.9095  -10.4674  -28.7358 O.2     1  UNL1       -0.2684
     13 N           4.6975  -10.4119  -30.0883 N.am    1  UNL1       -0.3070
     14 C           4.5265   -9.0081  -30.4683 C.3     1  UNL1        0.0243
     15 C           5.0763   -8.8244  -31.8579 C.2     1  UNL1       -0.1000
     16 C           5.7027   -7.6889  -32.3002 C.2     1  UNL1       -0.0630
     17 C           6.0049   -7.9461  -33.6646 C.2     1  UNL1       -0.0144
     18 C           6.6857   -7.0199  -34.6011 C.2     1  UNL1        0.0708
     19 O           6.3933   -7.1108  -35.7806 O.co2   1  UNL1       -0.5447
     20 O           7.4927   -6.2256  -34.1504 O.co2   1  UNL1       -0.5447
     21 C           5.5151   -9.2205  -33.8767 C.2     1  UNL1       -0.1120
     22 C           5.5658   -9.9783  -35.1782 C.3     1  UNL1       -0.0524
     23 O           4.9312   -9.8165  -32.7889 O.co2   1  UNL1       -0.7845
     24 H           2.9717  -13.8674  -33.4934 H       1  UNL1        0.0265
     25 H           4.0832  -13.6232  -32.1675 H       1  UNL1        0.0265
     26 H           2.9639  -12.3578  -32.6136 H       1  UNL1        0.0265
     27 H           2.1623  -15.0563  -31.4891 H       1  UNL1        0.0727
     28 H           0.4698  -12.6365  -32.0920 H       1  UNL1        0.0265
     29 H          -0.0855  -14.1002  -31.3158 H       1  UNL1        0.0265
     30 H           0.4477  -14.1417  -32.9792 H       1  UNL1        0.0265
     31 H           3.1026  -15.7319  -29.4118 H       1  UNL1        0.0655
     32 H           4.9591  -16.1083  -27.8588 H       1  UNL1        0.0634
     33 H           6.1833  -14.2042  -26.9980 H       1  UNL1        0.0830
     34 H           5.4571  -10.9079  -30.4707 H       1  UNL1        0.1494
     35 H           5.0573   -8.3805  -29.7832 H       1  UNL1        0.0500
     36 H           3.4902   -8.7430  -30.4437 H       1  UNL1        0.0500
     37 H           5.9096   -6.8339  -31.7606 H       1  UNL1        0.0615
     38 H           6.0493   -9.3791  -35.9213 H       1  UNL1        0.0266
     39 H           4.5703  -10.2071  -35.4968 H       1  UNL1        0.0266
     40 H           6.1139  -10.8869  -35.0408 H       1  UNL1        0.0266
@<TRIPOS>BOND
     1     1     2    1
     2     2     3    1
     3     2     4    1
     4     4     5    1
     5     5     6   ar
     6     6     7   ar
     7     7     8   ar
     8     8     9   ar
     9     9    10   ar
    10     5    10   ar
    11    10    11    1
    12    11    12    2
    13    11    13   am
    14    13    14    1
    15    14    15    1
    16    15    16    2
    17    16    17    1
    18    17    18    1
    19    18    19   ar
    20    18    20   ar
    21    17    21    2
    22    21    22    1
    23    21    23    1
    24    15    23    1
    25     1    24    1
    26     1    25    1
    27     1    26    1
    28     2    27    1
    29     3    28    1
    30     3    29    1
    31     3    30    1
    32     6    31    1
    33     7    32    1
    34     8    33    1
    35    13    34    1
    36    14    35    1
    37    14    36    1
    38    16    37    1
    39    22    38    1
    40    22    39    1
    41    22    40    1
@<TRIPOS>SUBSTRUCTURE
     1 UNL1        1 TEMP              0 ****  ****    0 ROOT


