##########                                Name: HTS1710-02663795-01
##########                    Molecular_Weight:             241.177
##########                DOCK_Rotatable_Bonds:                   4
##########                       Formal_Charge:                  -3
##########                     HBond_Acceptors:                   7
##########                        HBond_Donors:                   0
##########                         Heavy_Atoms:                  17
##########                          Grid_Score:          -83.925079
##########                     Grid_vdw_energy:          -28.029411
##########                      Grid_es_energy:          -55.895664
##########           Internal_energy_repulsive:            2.106171

@<TRIPOS>MOLECULE
HTS1710-02663795-01
 26 27 1 0 0
SMALL
USER_CHARGES


@<TRIPOS>ATOM
      1 C           4.3824  -10.0212  -30.6316 C.ar    1  UNL1        0.1437
      2 C           4.3665  -10.5741  -32.7208 C.ar    1  UNL1        0.2048
      3 C           4.9538   -8.9749  -31.3113 C.ar    1  UNL1       -0.0548
      4 C           4.9594   -9.3421  -32.6564 C.ar    1  UNL1       -0.0495
      5 O           3.9907  -11.0474  -31.4767 O.2     1  UNL1       -0.4483
      6 C           4.1600  -10.1104  -29.1684 C.2     1  UNL1        0.1063
      7 C           4.1352  -11.3616  -33.9484 C.2     1  UNL1        0.3743
      8 O           5.4462   -7.7727  -30.8876 O.co2   1  UNL1       -0.8003
      9 O           5.4818   -8.5401  -33.6314 O.co2   1  UNL1       -0.8002
     10 O           3.3375   -9.3625  -28.6668 O.co2   1  UNL1       -0.5416
     11 O           4.4918  -12.5222  -34.0751 O.2     1  UNL1       -0.2415
     12 O           4.8155  -10.9301  -28.5496 O.co2   1  UNL1       -0.5416
     13 O           3.4870  -10.6626  -34.9311 O.3     1  UNL1       -0.4593
     14 C           6.3109   -7.4399  -33.1794 C.3     1  UNL1       -0.1106
     15 C           5.6762   -6.7730  -31.9150 C.3     1  UNL1       -0.1106
     16 C           2.6623  -11.3675  -35.8768 C.3     1  UNL1        0.0901
     17 C           1.3612  -11.7842  -35.1667 C.3     1  UNL1       -0.0306
     18 H           6.3910   -6.7129  -33.9604 H       1  UNL1        0.0130
     19 H           7.2818   -7.8130  -32.9285 H       1  UNL1        0.0130
     20 H           6.3412   -6.0243  -31.5380 H       1  UNL1        0.0130
     21 H           4.7422   -6.3266  -32.1855 H       1  UNL1        0.0130
     22 H           3.1771  -12.2371  -36.2283 H       1  UNL1        0.0695
     23 H           2.4406  -10.7386  -36.7135 H       1  UNL1        0.0695
     24 H           1.5954  -12.4122  -34.3326 H       1  UNL1        0.0262
     25 H           0.7367  -12.3189  -35.8515 H       1  UNL1        0.0262
     26 H           0.8473  -10.9110  -34.8226 H       1  UNL1        0.0262
@<TRIPOS>BOND
     1     1     3   ar
     2     1     5   ar
     3     1     6    1
     4     2     4   ar
     5     2     5   ar
     6     2     7    1
     7     3     4   ar
     8     3     8    1
     9     4     9    1
    10     6    10   ar
    11     6    12   ar
    12     7    11    2
    13     7    13    1
    14     8    15    1
    15     9    14    1
    16    13    16    1
    17    14    15    1
    18    16    17    1
    19    14    18    1
    20    14    19    1
    21    15    20    1
    22    15    21    1
    23    16    22    1
    24    16    23    1
    25    17    24    1
    26    17    25    1
    27    17    26    1
@<TRIPOS>SUBSTRUCTURE
     1 UNL1        1 TEMP              0 ****  ****    0 ROOT


