HTS1710-00225085-01
 OpenBabel03232612343D

 49 51  0  0  1  0  0  0  0  0999 V2000
   -1.3123   -7.4446  -33.4437 N   0  0  0  0  0  0  0  0  0  0  0  0
   -1.2282   -6.5238  -35.6532 N   0  0  0  0  0  0  0  0  0  0  0  0
    0.2841   -8.2791  -35.0485 C   0  0  0  0  0  0  0  0  0  0  0  0
   -0.2252   -7.3552  -36.0127 C   0  0  0  0  0  0  0  0  0  0  0  0
   -0.3076   -8.2780  -33.7675 C   0  0  0  0  0  0  0  0  0  0  0  0
   -1.7277   -6.5989  -34.4024 C   0  0  0  0  0  0  0  0  0  0  0  0
    1.2755   -9.1441  -35.3511 N   0  0  0  0  0  0  0  0  0  0  0  0
    2.4550  -13.5673  -31.3998 C   0  0  0  0  0  0  0  0  0  0  0  0
    0.3003   -7.3468  -37.2601 N   0  0  0  0  0  0  0  0  0  0  0  0
    3.2645  -12.8999  -30.4904 N   0  0  0  0  0  0  0  0  0  0  0  0
    3.5821  -12.0479  -28.2135 C   0  0  0  0  0  0  0  0  0  0  0  0
    3.3970  -13.3037  -29.0832 C   0  0  2  0  0  0  0  0  0  0  0  0
    2.3901  -13.0713  -32.8207 C   0  0  0  0  0  0  0  0  0  0  0  0
    1.7591   -9.1341  -36.6051 C   0  0  0  0  0  0  0  0  0  0  0  0
    6.4454  -14.3052  -27.0902 C   0  0  0  0  0  0  0  0  0  0  0  0
    1.8103  -14.5398  -31.0375 O   0  0  0  0  0  0  0  0  0  0  0  0
    4.5405  -11.3309  -28.4494 O   0  5  0  0  0  0  0  0  0  0  0  0
    2.2161  -11.5400  -36.7316 N   0  0  0  0  0  0  0  0  0  0  0  0
    6.9704  -13.3121  -27.5638 O   0  5  0  0  0  0  0  0  0  0  0  0
    1.2732   -8.2285  -37.5571 C   0  0  0  0  0  0  0  0  0  0  0  0
   -2.7513   -5.7431  -34.0843 N   0  0  0  0  0  0  0  0  0  0  0  0
    4.5830  -14.2944  -28.9139 C   0  0  0  0  0  0  0  0  0  0  0  0
    3.5761  -12.7684  -33.5196 C   0  0  0  0  0  0  0  0  0  0  0  0
    1.1510  -12.8995  -33.4722 C   0  0  0  0  0  0  0  0  0  0  0  0
    0.1172   -9.1493  -32.8042 O   0  0  0  0  0  0  0  0  0  0  0  0
    2.7929  -10.1995  -36.9570 C   0  0  0  0  0  0  0  0  0  0  0  0
    2.2855  -12.0985  -35.4729 C   0  0  0  0  0  0  0  0  0  0  0  0
    4.9702  -14.5716  -27.4333 C   0  0  0  0  0  0  0  0  0  0  0  0
    2.7521  -11.8501  -27.3433 O   0  0  0  0  0  0  0  0  0  0  0  0
    6.9946  -15.1133  -26.3617 O   0  0  0  0  0  0  0  0  0  0  0  0
    1.1005  -12.4243  -34.7918 C   0  0  0  0  0  0  0  0  0  0  0  0
    3.5253  -12.2783  -34.8341 C   0  0  0  0  0  0  0  0  0  0  0  0
    3.7746  -12.1182  -30.8032 H   0  0  0  0  0  0  0  0  0  0  0  0
    2.5098  -13.8110  -28.7664 H   0  0  0  0  0  0  0  0  0  0  0  0
    1.7874  -12.0288  -37.4708 H   0  0  0  0  0  0  0  0  0  0  0  0
    1.6708   -8.2375  -38.5093 H   0  0  0  0  0  0  0  0  0  0  0  0
   -3.0875   -5.1065  -34.7559 H   0  0  0  0  0  0  0  0  0  0  0  0
   -3.1499   -5.7653  -33.1844 H   0  0  0  0  0  0  0  0  0  0  0  0
    5.4364  -13.8860  -29.4139 H   0  0  0  0  0  0  0  0  0  0  0  0
    4.2682  -15.2280  -29.3312 H   0  0  0  0  0  0  0  0  0  0  0  0
    4.4899  -12.9082  -33.0608 H   0  0  0  0  0  0  0  0  0  0  0  0
    0.2753  -13.1247  -32.9749 H   0  0  0  0  0  0  0  0  0  0  0  0
    0.1486   -8.8778  -31.9079 H   0  0  0  0  0  0  0  0  0  0  0  0
    3.0718  -10.0998  -37.9852 H   0  0  0  0  0  0  0  0  0  0  0  0
    3.6572  -10.0751  -36.3388 H   0  0  0  0  0  0  0  0  0  0  0  0
    4.3656  -13.9474  -26.8090 H   0  0  0  0  0  0  0  0  0  0  0  0
    4.8078  -15.6166  -27.2708 H   0  0  0  0  0  0  0  0  0  0  0  0
    0.1894  -12.3139  -35.2638 H   0  0  0  0  0  0  0  0  0  0  0  0
    4.3995  -12.0494  -35.3326 H   0  0  0  0  0  0  0  0  0  0  0  0
  1  5  2  0  0  0  0
  1  6  1  0  0  0  0
  2  6  2  0  0  0  0
  2  4  1  0  0  0  0
  3  5  1  0  0  0  0
  3  7  2  0  0  0  0
  3  4  1  0  0  0  0
  4  9  2  0  0  0  0
  5 25  1  0  0  0  0
  6 21  1  0  0  0  0
  7 14  1  0  0  0  0
  8 13  1  0  0  0  0
  8 10  1  0  0  0  0
  8 16  2  0  0  0  0
  9 20  1  0  0  0  0
 10 12  1  0  0  0  0
 10 33  1  0  0  0  0
 11 12  1  0  0  0  0
 11 17  1  0  0  0  0
 11 29  2  0  0  0  0
 12 22  1  0  0  0  0
 12 34  1  1  0  0  0
 13 24  2  0  0  0  0
 13 23  1  0  0  0  0
 14 26  1  0  0  0  0
 14 20  2  0  0  0  0
 15 28  1  0  0  0  0
 15 19  1  0  0  0  0
 15 30  2  0  0  0  0
 18 26  1  0  0  0  0
 18 27  1  0  0  0  0
 18 35  1  0  0  0  0
 20 36  1  0  0  0  0
 21 37  1  0  0  0  0
 21 38  1  0  0  0  0
 22 28  1  0  0  0  0
 22 39  1  0  0  0  0
 22 40  1  0  0  0  0
 23 32  2  0  0  0  0
 23 41  1  0  0  0  0
 24 31  1  0  0  0  0
 24 42  1  0  0  0  0
 25 43  1  0  0  0  0
 26 44  1  0  0  0  0
 26 45  1  0  0  0  0
 27 31  2  0  0  0  0
 27 32  1  0  0  0  0
 28 46  1  0  0  0  0
 28 47  1  0  0  0  0
 31 48  1  0  0  0  0
 32 49  1  0  0  0  0
M  CHG  2  17  -1  19  -1
M  END
$$$$
