##########                                Name: HTS1710-01525857-01
##########                    Molecular_Weight:             377.358
##########                DOCK_Rotatable_Bonds:                   5
##########                       Formal_Charge:                  -2
##########                     HBond_Acceptors:                  11
##########                        HBond_Donors:                   1
##########                         Heavy_Atoms:                  25
##########                          Grid_Score:          -75.386887
##########                     Grid_vdw_energy:          -41.271553
##########                      Grid_es_energy:          -34.115334
##########           Internal_energy_repulsive:            6.523654

@<TRIPOS>MOLECULE
HTS1710-01525857-01
 32 34 1 0 0
SMALL
USER_CHARGES


@<TRIPOS>ATOM
      1 S           2.0614  -13.8101  -31.6601 S.O2    1  UNL1        0.0745
      2 S           1.1204  -15.1839  -27.1576 S.3     1  UNL1        0.1165
      3 C           3.0102  -13.8610  -30.1230 C.ar    1  UNL1        0.1365
      4 C           2.4864  -14.3152  -28.8973 C.ar    1  UNL1        0.1264
      5 N           1.2519  -14.7914  -28.6601 N.2     1  UNL1       -0.1888
      6 N           2.5583  -14.7953  -26.7028 N.2     1  UNL1       -0.1907
      7 N           1.7753  -12.1550  -31.9061 N.pl3   1  UNL1       -0.2162
      8 C           3.2435  -14.3181  -27.7538 C.ar    1  UNL1        0.1018
      9 C           3.7206  -10.3765  -34.5058 C.ar    1  UNL1       -0.0003
     10 C           4.3545   -9.5375  -32.2816 C.ar    1  UNL1       -0.0003
     11 C           5.1863   -8.6172  -31.4113 C.2     1  UNL1        0.0717
     12 C           3.9114  -10.3825  -36.0078 C.2     1  UNL1        0.0717
     13 C           2.6555  -11.2804  -32.5018 C.ar    1  UNL1        0.0493
     14 C           4.4887   -9.5191  -33.6879 C.ar    1  UNL1       -0.0439
     15 O           2.9595  -14.1202  -32.7780 O.2     1  UNL1       -0.1499
     16 O           0.7382  -14.4314  -31.5512 O.2     1  UNL1       -0.1499
     17 C           2.7904  -11.2447  -33.9002 C.ar    1  UNL1       -0.0304
     18 C           3.4388  -10.4372  -31.6986 C.ar    1  UNL1       -0.0304
     19 O           6.0234   -7.9238  -31.9634 O.co2   1  UNL1       -0.5446
     20 O           4.3245   -9.3584  -36.5258 O.co2   1  UNL1       -0.5446
     21 C           4.3467  -13.4020  -30.1308 C.ar    1  UNL1       -0.0328
     22 O           4.9694   -8.6240  -30.2116 O.co2   1  UNL1       -0.5446
     23 O           3.6342  -11.4056  -36.6084 O.co2   1  UNL1       -0.5446
     24 C           4.5688  -13.8681  -27.7401 C.ar    1  UNL1       -0.0334
     25 C           5.1206  -13.4061  -28.9498 C.ar    1  UNL1       -0.0577
     26 H           0.9130  -11.7927  -31.5988 H       1  UNL1        0.1737
     27 H           5.1596   -8.8680  -34.1248 H       1  UNL1        0.0630
     28 H           2.2044  -11.8583  -34.4875 H       1  UNL1        0.0643
     29 H           3.3437  -10.4761  -30.6717 H       1  UNL1        0.0643
     30 H           4.7624  -13.0594  -31.0110 H       1  UNL1        0.0638
     31 H           5.1240  -13.8748  -26.8702 H       1  UNL1        0.0640
     32 H           6.0957  -13.0688  -28.9737 H       1  UNL1        0.0619
@<TRIPOS>BOND
     1     2     5    2
     2     1     3    1
     3     3     4   ar
     4     4     5    1
     5     6     8    1
     6     1     7    1
     7     4     8   ar
     8     9    17   ar
     9    10    18   ar
    10    10    11    1
    11     9    12    1
    12     7    13    1
    13    10    14   ar
    14     1    15    2
    15     1    16    2
    16    13    17   ar
    17    13    18   ar
    18    11    19   ar
    19    12    20   ar
    20     3    21   ar
    21    11    22   ar
    22    12    23   ar
    23    24    25   ar
    24    21    25   ar
    25     8    24   ar
    26     2     6    2
    27     9    14   ar
    28     7    26    1
    29    14    27    1
    30    17    28    1
    31    18    29    1
    32    21    30    1
    33    24    31    1
    34    25    32    1
@<TRIPOS>SUBSTRUCTURE
     1 UNL1        1 TEMP              0 ****  ****    0 ROOT


