##########                                Name: HTS1710-00453231-01
##########                    Molecular_Weight:             343.316
##########                DOCK_Rotatable_Bonds:                   3
##########                       Formal_Charge:                  -2
##########                     HBond_Acceptors:                   8
##########                        HBond_Donors:                   1
##########                         Heavy_Atoms:                  24
##########                          Grid_Score:          -74.859451
##########                     Grid_vdw_energy:          -40.389301
##########                      Grid_es_energy:          -34.470146
##########           Internal_energy_repulsive:            8.050966

@<TRIPOS>MOLECULE
HTS1710-00453231-01
 33 35 1 0 0
SMALL
USER_CHARGES


@<TRIPOS>ATOM
      1 C           3.5317  -11.8063  -30.0915 C.ar    1  UNL1        0.1505
      2 S           2.9030  -12.7596  -28.6801 S.O2    1  UNL1        0.0296
      3 C           4.1130  -10.5478  -29.9565 C.ar    1  UNL1       -0.0678
      4 C           3.4177  -12.4494  -31.4260 C.ar    1  UNL1        0.2740
      5 N           3.8759  -11.7872  -32.5466 N.ar    1  UNL1       -0.3205
      6 C           4.5933   -9.9057  -31.2008 C.ar    1  UNL1       -0.0073
      7 C           4.4591  -10.5402  -32.4528 C.ar    1  UNL1        0.0493
      8 C           6.0156   -7.9735  -34.8460 C.2     1  UNL1        0.0717
      9 C           4.9171   -9.9176  -33.6275 C.ar    1  UNL1       -0.0289
     10 C           5.5227   -8.6456  -33.5825 C.ar    1  UNL1       -0.0007
     11 C           5.2018   -8.6327  -31.1603 C.ar    1  UNL1       -0.0525
     12 O           1.8784  -13.6768  -29.1882 O.2     1  UNL1       -0.1642
     13 O           2.6047  -11.8415  -27.5765 O.2     1  UNL1       -0.1642
     14 C           4.3322  -13.7429  -28.1909 C.ar    1  UNL1        0.0937
     15 O           2.9369  -13.5555  -31.6023 O.2     1  UNL1       -0.2658
     16 C           5.6606   -8.0121  -32.3321 C.ar    1  UNL1       -0.0522
     17 O           5.7532   -8.5097  -35.9089 O.co2   1  UNL1       -0.5446
     18 O           4.2694   -9.8820  -28.7916 O.co2   1  UNL1       -0.8719
     19 O           6.6457   -6.9368  -34.7239 O.co2   1  UNL1       -0.5446
     20 C           4.2846  -15.1497  -28.2131 C.ar    1  UNL1       -0.0365
     21 C           5.5144  -13.0914  -27.7934 C.ar    1  UNL1       -0.0365
     22 C           6.6407  -13.8417  -27.4178 C.ar    1  UNL1       -0.0599
     23 C           5.4123  -15.8973  -27.8375 C.ar    1  UNL1       -0.0599
     24 C           6.5896  -15.2444  -27.4390 C.ar    1  UNL1       -0.0616
     25 H           3.7850  -12.2126  -33.4297 H       1  UNL1        0.1690
     26 H           4.8084  -10.3981  -34.5343 H       1  UNL1        0.0645
     27 H           5.3110   -8.1507  -30.2543 H       1  UNL1        0.0624
     28 H           6.1036   -7.0818  -32.2772 H       1  UNL1        0.0624
     29 H           3.4203  -15.6318  -28.5055 H       1  UNL1        0.0637
     30 H           5.5539  -12.0603  -27.7779 H       1  UNL1        0.0637
     31 H           7.5064  -13.3615  -27.1261 H       1  UNL1        0.0618
     32 H           5.3757  -16.9285  -27.8544 H       1  UNL1        0.0618
     33 H           7.4170  -15.7954  -27.1619 H       1  UNL1        0.0618
@<TRIPOS>BOND
     1     1     2    1
     2     1     3   ar
     3     1     4   ar
     4     4     5   ar
     5     3     6   ar
     6     5     7   ar
     7     8    10    1
     8     7     9   ar
     9     9    10   ar
    10     6    11   ar
    11     2    12    2
    12     2    13    2
    13     2    14    1
    14     4    15    2
    15    11    16   ar
    16     8    17   ar
    17     3    18    1
    18     8    19   ar
    19    14    20   ar
    20    14    21   ar
    21    21    22   ar
    22    20    23   ar
    23    22    24   ar
    24     6     7   ar
    25    10    16   ar
    26    23    24   ar
    27     5    25    1
    28     9    26    1
    29    11    27    1
    30    16    28    1
    31    20    29    1
    32    21    30    1
    33    22    31    1
    34    23    32    1
    35    24    33    1
@<TRIPOS>SUBSTRUCTURE
     1 UNL1        1 TEMP              0 ****  ****    0 ROOT


