HTS1710-01362259-01
 OpenBabel03232612353D

 48 50  0  0  1  0  0  0  0  0999 V2000
    2.6474  -12.3159  -31.7398 C   0  0  0  0  0  0  0  0  0  0  0  0
    2.7146  -10.4262  -30.4720 N   0  0  0  0  0  0  0  0  0  0  0  0
    2.1671  -11.0122  -31.6319 C   0  0  0  0  0  0  0  0  0  0  0  0
    3.5092  -12.5255  -30.6048 C   0  0  0  0  0  0  0  0  0  0  0  0
    3.5203  -11.3768  -29.8770 C   0  0  0  0  0  0  0  0  0  0  0  0
    2.2267  -13.2504  -32.8460 C   0  0  2  0  0  0  0  0  0  0  0  0
    2.6905  -12.7444  -34.1608 N   0  3  2  0  0  0  0  0  0  0  0  0
    0.7086  -13.4480  -32.8620 C   0  0  0  0  0  0  0  0  0  0  0  0
    2.4308   -9.0775  -29.9579 C   0  0  0  0  0  0  0  0  0  0  0  0
    4.4273   -9.5677  -35.4010 C   0  0  0  0  0  0  0  0  0  0  0  0
    4.2546  -11.2525  -28.6907 C   0  0  0  0  0  0  0  0  0  0  0  0
    3.4389   -8.0392  -30.4603 C   0  0  0  0  0  0  0  0  0  0  0  0
    4.2325  -13.6575  -30.2072 C   0  0  0  0  0  0  0  0  0  0  0  0
    3.9539  -10.8721  -36.0761 C   0  0  1  0  0  0  0  0  0  0  0  0
    4.1622  -12.5621  -34.1384 C   0  0  0  0  0  0  0  0  0  0  0  0
    2.0303  -11.4607  -34.5042 C   0  0  0  0  0  0  0  0  0  0  0  0
    0.1349  -13.3615  -31.7923 O   0  5  0  0  0  0  0  0  0  0  0  0
    4.0713   -9.3483  -34.2558 O   0  5  0  0  0  0  0  0  0  0  0  0
    4.5645   -8.4338  -30.7102 O   0  5  0  0  0  0  0  0  0  0  0  0
    4.6827  -12.1324  -35.5316 C   0  0  0  0  0  0  0  0  0  0  0  0
    2.4223  -11.0355  -35.9347 C   0  0  0  0  0  0  0  0  0  0  0  0
    4.9964  -13.5699  -29.0164 C   0  0  0  0  0  0  0  0  0  0  0  0
    5.0008  -12.3699  -28.2662 C   0  0  0  0  0  0  0  0  0  0  0  0
    0.1824  -13.6843  -33.9355 O   0  0  0  0  0  0  0  0  0  0  0  0
    5.1621   -8.8483  -36.0554 O   0  0  0  0  0  0  0  0  0  0  0  0
    3.0467   -6.8904  -30.5795 O   0  0  0  0  0  0  0  0  0  0  0  0
    5.7484  -14.6313  -28.5524 O   0  0  0  0  0  0  0  0  0  0  0  0
    6.4949  -14.5798  -27.3241 C   0  0  0  0  0  0  0  0  0  0  0  0
    1.5191  -10.5526  -32.2905 H   0  0  0  0  0  0  0  0  0  0  0  0
    2.6831  -14.2000  -32.6595 H   0  0  0  0  0  0  0  0  0  0  0  0
    2.4413  -13.4314  -34.8724 H   0  0  0  0  0  0  0  0  0  0  0  0
    2.4665   -9.1023  -28.8888 H   0  0  0  0  0  0  0  0  0  0  0  0
    1.4622   -8.7902  -30.3103 H   0  0  0  0  0  0  0  0  0  0  0  0
    4.2492  -10.3750  -28.1476 H   0  0  0  0  0  0  0  0  0  0  0  0
    4.2098  -14.5267  -30.7631 H   0  0  0  0  0  0  0  0  0  0  0  0
    4.2068  -10.7884  -37.1124 H   0  0  0  0  0  0  0  0  0  0  0  0
    4.6261  -13.4852  -33.8598 H   0  0  0  0  0  0  0  0  0  0  0  0
    4.4028  -11.7965  -33.4307 H   0  0  0  0  0  0  0  0  0  0  0  0
    2.3403  -10.7059  -33.8121 H   0  0  0  0  0  0  0  0  0  0  0  0
    0.9689  -11.5851  -34.4519 H   0  0  0  0  0  0  0  0  0  0  0  0
    4.5323  -12.9393  -36.2181 H   0  0  0  0  0  0  0  0  0  0  0  0
    5.7200  -11.8901  -35.4308 H   0  0  0  0  0  0  0  0  0  0  0  0
    2.0869  -11.7820  -36.6239 H   0  0  0  0  0  0  0  0  0  0  0  0
    1.9627  -10.0919  -36.1430 H   0  0  0  0  0  0  0  0  0  0  0  0
    5.5567  -12.3125  -27.3986 H   0  0  0  0  0  0  0  0  0  0  0  0
    6.9959  -15.5129  -27.1718 H   0  0  0  0  0  0  0  0  0  0  0  0
    5.8272  -14.3963  -26.5084 H   0  0  0  0  0  0  0  0  0  0  0  0
    7.2169  -13.7920  -27.3782 H   0  0  0  0  0  0  0  0  0  0  0  0
  1  3  2  0  0  0  0
  1  4  1  0  0  0  0
  1  6  1  0  0  0  0
  2  3  1  0  0  0  0
  2  9  1  0  0  0  0
  2  5  1  0  0  0  0
  3 29  1  0  0  0  0
  4  5  2  0  0  0  0
  4 13  1  0  0  0  0
  5 11  1  0  0  0  0
  6  7  1  0  0  0  0
  6  8  1  0  0  0  0
  6 30  1  1  0  0  0
  7 15  1  0  0  0  0
  7 16  1  0  0  0  0
  7 31  1  6  0  0  0
  8 17  1  0  0  0  0
  8 24  2  0  0  0  0
  9 12  1  0  0  0  0
  9 32  1  0  0  0  0
  9 33  1  0  0  0  0
 10 14  1  0  0  0  0
 10 18  1  0  0  0  0
 10 25  2  0  0  0  0
 11 23  2  0  0  0  0
 11 34  1  0  0  0  0
 12 19  1  0  0  0  0
 12 26  2  0  0  0  0
 13 22  2  0  0  0  0
 13 35  1  0  0  0  0
 14 21  1  0  0  0  0
 14 20  1  0  0  0  0
 14 36  1  6  0  0  0
 15 20  1  0  0  0  0
 15 37  1  0  0  0  0
 15 38  1  0  0  0  0
 16 21  1  0  0  0  0
 16 39  1  0  0  0  0
 16 40  1  0  0  0  0
 20 41  1  0  0  0  0
 20 42  1  0  0  0  0
 21 43  1  0  0  0  0
 21 44  1  0  0  0  0
 22 23  1  0  0  0  0
 22 27  1  0  0  0  0
 23 45  1  0  0  0  0
 27 28  1  0  0  0  0
 28 46  1  0  0  0  0
 28 47  1  0  0  0  0
 28 48  1  0  0  0  0
M  CHG  4   7   1  17  -1  18  -1  19  -1
M  END
$$$$
