##########                                Name: HTS1710-00207045-01
##########                    Molecular_Weight:             238.244
##########                DOCK_Rotatable_Bonds:                   2
##########                       Formal_Charge:                  -3
##########                     HBond_Acceptors:                   6
##########                        HBond_Donors:                   0
##########                         Heavy_Atoms:                  16
##########                          Grid_Score:          -81.425720
##########                     Grid_vdw_energy:          -24.181591
##########                      Grid_es_energy:          -57.244125
##########           Internal_energy_repulsive:            1.755890

@<TRIPOS>MOLECULE
HTS1710-00207045-01
 24 25 1 0 0
SMALL
USER_CHARGES


@<TRIPOS>ATOM
      1 CA          4.1892   -9.2350  -30.8193 C.2     1  UNL1        0.0644
      2 N           4.1023  -10.3634  -31.5731 N.2     1  UNL1       -0.2612
      3 C           4.5877   -9.9586  -32.7314 C.2     1  UNL1        0.0162
      4 C           4.7236   -8.2276  -31.5846 C.2     1  UNL1       -0.1474
      5 O           5.0062   -8.6537  -32.8569 O.co2   1  UNL1       -0.7755
      6 C           3.7584   -9.1513  -29.3979 C.2     1  UNL1        0.0881
      7 C           4.6424  -10.9079  -33.8082 C.ar    1  UNL1        0.0239
      8 S           4.7932  -10.5421  -35.5221 S.2     1  UNL1       -0.0963
      9 C           4.5818  -12.2543  -33.5540 C.ar    1  UNL1       -0.0466
     10 C           4.7765  -12.2671  -35.8898 C.ar    1  UNL1       -0.0237
     11 O           3.0675   -8.2075  -29.0558 O.co2   1  UNL1       -0.5431
     12 C           4.6593  -13.0271  -34.7488 C.ar    1  UNL1       -0.0541
     13 O           4.9443   -6.9475  -31.1526 O.co2   1  UNL1       -0.8105
     14 OXT         4.1262  -10.0409  -28.6503 O.co2   1  UNL1       -0.5431
     15 C           5.5083   -5.9843  -32.0590 C.3     1  UNL1       -0.1039
     16 C           5.6087   -4.6328  -31.3281 C.3     1  UNL1       -0.0753
     17 H           4.4907  -12.6597  -32.6093 H       1  UNL1        0.0629
     18 H           4.8460  -12.6578  -36.8424 H       1  UNL1        0.0693
     19 H           4.6303  -14.0586  -34.7575 H       1  UNL1        0.0623
     20 H           4.8789   -5.8848  -32.9186 H       1  UNL1        0.0136
     21 H           6.4783   -6.3033  -32.3788 H       1  UNL1        0.0136
     22 H           4.6338   -4.3243  -31.0132 H       1  UNL1        0.0221
     23 H           6.0187   -3.8989  -31.9901 H       1  UNL1        0.0221
     24 H           6.2436   -4.7361  -30.4730 H       1  UNL1        0.0221
@<TRIPOS>BOND
     1     1     2    1
     2     2     3    2
     3     1     4    2
     4     4     5    1
     5     1     6    1
     6     3     7    1
     7     7     8   ar
     8     7     9   ar
     9     8    10   ar
    10     6    11   ar
    11     9    12   ar
    12     4    13    1
    13     6    14   ar
    14    13    15    1
    15    15    16    1
    16     3     5    1
    17    10    12   ar
    18     9    17    1
    19    10    18    1
    20    12    19    1
    21    15    20    1
    22    15    21    1
    23    16    22    1
    24    16    23    1
    25    16    24    1
@<TRIPOS>SUBSTRUCTURE
     1 UNL1        1 TEMP              0 ****  ****    0 ROOT


