##########                                Name: HTS1710-01866675-01
##########                    Molecular_Weight:             353.309
##########                DOCK_Rotatable_Bonds:                   6
##########                       Formal_Charge:                  -2
##########                     HBond_Acceptors:                  10
##########                        HBond_Donors:                   0
##########                         Heavy_Atoms:                  24
##########                          Grid_Score:          -77.844208
##########                     Grid_vdw_energy:          -40.292561
##########                      Grid_es_energy:          -37.551647
##########           Internal_energy_repulsive:            7.923747

@<TRIPOS>MOLECULE
HTS1710-01866675-01
 35 36 1 0 0
SMALL
USER_CHARGES


@<TRIPOS>ATOM
      1 N           2.9890  -12.0157  -31.0581 N.am    1  UNL1       -0.2254
      2 C           3.7887  -11.1273  -31.7712 C.2     1  UNL1        0.2544
      3 C           1.9092  -12.4677  -31.8185 C.2     1  UNL1        0.2544
      4 C           3.1559  -10.9882  -33.1093 C.ar    1  UNL1        0.0500
      5 C           2.0325  -11.7919  -33.1375 C.ar    1  UNL1        0.0495
      6 C           3.3084  -12.4413  -29.6696 C.3     1  UNL1        0.0749
      7 S           4.7980  -14.7712  -27.3278 S.O2    1  UNL1       -0.0337
      8 C           3.5328  -10.2108  -34.2110 C.ar    1  UNL1       -0.0400
      9 C           3.0797  -11.2916  -28.6599 C.2     1  UNL1        0.0627
     10 C           2.7273  -10.2592  -35.3770 C.ar    1  UNL1       -0.0019
     11 C           4.7012  -13.1358  -29.5807 C.3     1  UNL1       -0.0092
     12 C           3.0880   -9.4303  -36.5886 C.2     1  UNL1        0.0717
     13 C           1.2175  -11.8665  -34.2691 C.ar    1  UNL1       -0.0483
     14 O           4.8010  -10.5725  -31.3783 O.2     1  UNL1       -0.2695
     15 O           1.0268  -13.2356  -31.4755 O.2     1  UNL1       -0.2695
     16 O           3.4591  -14.8130  -26.7647 O.2     1  UNL1       -0.1746
     17 O           5.7424  -13.7726  -26.8565 O.2     1  UNL1       -0.1746
     18 C           4.6538  -14.6175  -29.1286 C.3     1  UNL1        0.0675
     19 C           1.5737  -11.0931  -35.3922 C.ar    1  UNL1       -0.0521
     20 O           3.8018  -10.3101  -28.7178 O.co2   1  UNL1       -0.5479
     21 O           4.2705   -9.3107  -36.8576 O.co2   1  UNL1       -0.5446
     22 O           2.1875  -11.4536  -27.8454 O.co2   1  UNL1       -0.5479
     23 O           2.1735   -8.9300  -37.2224 O.co2   1  UNL1       -0.5446
     24 C           5.5502  -16.4012  -27.1033 C.3     1  UNL1        0.0544
     25 H           2.6160  -13.2028  -29.3773 H       1  UNL1        0.0567
     26 H           4.3762   -9.6170  -34.1754 H       1  UNL1        0.0632
     27 H           5.3015  -12.5921  -28.8814 H       1  UNL1        0.0302
     28 H           5.1059  -13.1331  -30.5712 H       1  UNL1        0.0302
     29 H           0.3801  -12.4694  -34.2825 H       1  UNL1        0.0625
     30 H           3.7242  -15.0461  -29.4403 H       1  UNL1        0.0500
     31 H           5.4800  -15.1301  -29.5752 H       1  UNL1        0.0500
     32 H           0.9878  -11.1321  -36.2408 H       1  UNL1        0.0624
     33 H           5.6806  -16.5931  -26.0588 H       1  UNL1        0.0464
     34 H           6.5019  -16.4252  -27.5919 H       1  UNL1        0.0464
     35 H           4.9130  -17.1494  -27.5266 H       1  UNL1        0.0464
@<TRIPOS>BOND
     1     1     2   am
     2     1     3   am
     3     1     6    1
     4     2     4    1
     5     2    14    2
     6     3     5    1
     7     3    15    2
     8     4     5   ar
     9     4     8   ar
    10     5    13   ar
    11     6     9    1
    12     6    11    1
    13     7    16    2
    14     7    17    2
    15     7    18    1
    16     7    24    1
    17     8    10   ar
    18     9    20   ar
    19     9    22   ar
    20    10    12    1
    21    10    19   ar
    22    11    18    1
    23    12    21   ar
    24    12    23   ar
    25    13    19   ar
    26     6    25    1
    27     8    26    1
    28    11    27    1
    29    11    28    1
    30    13    29    1
    31    18    30    1
    32    18    31    1
    33    19    32    1
    34    24    33    1
    35    24    34    1
    36    24    35    1
@<TRIPOS>SUBSTRUCTURE
     1 UNL1        1 TEMP              0 ****  ****    0 ROOT


