##########                                Name: HTS1710-00015783-01
##########                    Molecular_Weight:             330.297
##########                DOCK_Rotatable_Bonds:                  10
##########                       Formal_Charge:                  -2
##########                     HBond_Acceptors:                   8
##########                        HBond_Donors:                   1
##########                         Heavy_Atoms:                  24
##########                          Grid_Score:          -75.152443
##########                     Grid_vdw_energy:          -41.649231
##########                      Grid_es_energy:          -33.503212
##########           Internal_energy_repulsive:            6.556894

@<TRIPOS>MOLECULE
HTS1710-00015783-01
 38 38 1 0 0
SMALL
USER_CHARGES


@<TRIPOS>ATOM
      1 C           2.5658   -9.1660  -31.2335 C.2     1  UNL1        0.1284
      2 C           3.0993   -9.5293  -30.0132 C.2     1  UNL1       -0.0762
      3 C           2.1919  -10.0458  -32.4089 C.2     1  UNL1        0.3490
      4 C           2.4228   -7.7601  -31.4787 C.1     1  UNL1        0.1057
      5 N           2.3149   -6.6348  -31.7268 N.1     1  UNL1       -0.1907
      6 C           3.4705  -10.8983  -29.4788 C.ar    1  UNL1       -0.0312
      7 C           5.7688  -15.0740  -27.4448 C.2     1  UNL1        0.2175
      8 C           7.1437  -17.8723  -25.1471 C.2     1  UNL1        0.0422
      9 N           4.5087  -14.7138  -27.9147 N.am    1  UNL1       -0.2855
     10 O           2.2450  -11.2666  -32.3756 O.2     1  UNL1       -0.2442
     11 O           6.6817  -14.2675  -27.3873 O.2     1  UNL1       -0.2755
     12 O           6.3206  -18.7355  -25.3980 O.co2   1  UNL1       -0.5498
     13 C           2.8187  -11.3987  -28.3272 C.ar    1  UNL1       -0.0534
     14 C           4.4996  -11.6927  -30.0359 C.ar    1  UNL1       -0.0534
     15 O           3.3449   -8.5619  -29.0956 O.co2   1  UNL1       -0.8723
     16 C           4.1249  -13.4615  -28.3923 C.ar    1  UNL1        0.0334
     17 C           5.9630  -16.5168  -26.9663 C.3     1  UNL1        0.0293
     18 C           7.2493  -16.6969  -26.1250 C.3     1  UNL1       -0.0049
     19 O           1.7858   -9.3419  -33.5119 O.3     1  UNL1       -0.4610
     20 O           7.9022  -17.8717  -24.1918 O.co2   1  UNL1       -0.5498
     21 C           3.1351  -12.6572  -27.7927 C.ar    1  UNL1       -0.0399
     22 C           4.8187  -12.9502  -29.4991 C.ar    1  UNL1       -0.0399
     23 C           1.8858   -9.9014  -34.8378 C.3     1  UNL1        0.0900
     24 C           0.5761  -10.6428  -35.1836 C.3     1  UNL1       -0.0306
     25 H           3.8178  -15.4152  -27.9092 H       1  UNL1        0.1548
     26 H           2.0934  -10.8247  -27.8694 H       1  UNL1        0.0624
     27 H           5.0253  -11.3418  -30.8517 H       1  UNL1        0.0624
     28 H           6.0208  -17.1568  -27.8219 H       1  UNL1        0.0362
     29 H           5.1303  -16.7661  -26.3423 H       1  UNL1        0.0362
     30 H           8.0716  -16.8723  -26.7867 H       1  UNL1        0.0329
     31 H           7.3932  -15.8052  -25.5513 H       1  UNL1        0.0329
     32 H           2.6390  -12.9964  -26.9538 H       1  UNL1        0.0636
     33 H           5.5757  -13.5071  -29.9255 H       1  UNL1        0.0636
     34 H           2.7050  -10.5888  -34.8740 H       1  UNL1        0.0695
     35 H           2.0482   -9.1154  -35.5454 H       1  UNL1        0.0695
     36 H           0.4136  -11.4288  -34.4759 H       1  UNL1        0.0262
     37 H           0.6502  -11.0579  -36.1670 H       1  UNL1        0.0262
     38 H          -0.2431   -9.9554  -35.1474 H       1  UNL1        0.0262
@<TRIPOS>BOND
     1     1     2    2
     2     1     3    1
     3     1     4    1
     4     4     5    3
     5     2     6    1
     6     7     9   am
     7     8    18    1
     8     9    16    1
     9     3    10    2
    10     7    11    2
    11     8    12   ar
    12     6    13   ar
    13     6    14   ar
    14     2    15    1
    15    16    22   ar
    16     7    17    1
    17    17    18    1
    18     3    19    1
    19     8    20   ar
    20    13    21   ar
    21    14    22   ar
    22    19    23    1
    23    23    24    1
    24    16    21   ar
    25     9    25    1
    26    13    26    1
    27    14    27    1
    28    17    28    1
    29    17    29    1
    30    18    30    1
    31    18    31    1
    32    21    32    1
    33    22    33    1
    34    23    34    1
    35    23    35    1
    36    24    36    1
    37    24    37    1
    38    24    38    1
@<TRIPOS>SUBSTRUCTURE
     1 UNL1        1 TEMP              0 ****  ****    0 ROOT


