##########                                Name: HTS1710-00805279-01
##########                    Molecular_Weight:             405.385
##########                DOCK_Rotatable_Bonds:                   6
##########                       Formal_Charge:                  -2
##########                     HBond_Acceptors:                  10
##########                        HBond_Donors:                   0
##########                         Heavy_Atoms:                  28
##########                          Grid_Score:          -80.501846
##########                     Grid_vdw_energy:          -44.099968
##########                      Grid_es_energy:          -36.401875
##########           Internal_energy_repulsive:           16.133154

@<TRIPOS>MOLECULE
HTS1710-00805279-01
 43 45 1 0 0
SMALL
USER_CHARGES


@<TRIPOS>ATOM
      1 S           4.7254  -10.1920  -33.1465 S.O2    1  UNL1        0.0749
      2 N           3.3150  -10.1731  -34.1598 N.pl3   1  UNL1       -0.1956
      3 C           2.1384   -9.4321  -33.9200 C.ar    1  UNL1        0.0932
      4 C           2.4813  -10.6202  -36.4752 C.3     1  UNL1        0.1564
      5 C           3.2887  -11.1602  -35.2717 C.3     1  UNL1        0.0774
      6 O           1.1755  -10.2343  -35.9974 O.3     1  UNL1       -0.4795
      7 C           1.0639   -9.4950  -34.8406 C.ar    1  UNL1        0.1440
      8 C           3.2063   -9.4420  -37.1664 C.2     1  UNL1        0.0836
      9 C           4.2512  -11.1320  -31.6861 C.ar    1  UNL1        0.1089
     10 O           5.7620  -10.9234  -33.8840 O.2     1  UNL1       -0.1498
     11 O           4.9574   -8.8133  -32.7011 O.2     1  UNL1       -0.1498
     12 C           1.9772   -8.6318  -32.7662 C.ar    1  UNL1       -0.0320
     13 C           2.0205   -6.6247  -30.7423 C.2     1  UNL1        0.0460
     14 O           2.5615   -8.8098  -37.9856 O.co2   1  UNL1       -0.5460
     15 C           0.7873   -7.9186  -32.5346 C.ar    1  UNL1       -0.0399
     16 C          -0.1341   -8.8055  -34.5992 C.ar    1  UNL1       -0.0177
     17 O           2.6459   -5.8005  -31.3872 O.co2   1  UNL1       -0.5495
     18 C           4.1080  -12.5299  -31.7452 C.ar    1  UNL1       -0.0316
     19 C           4.0238  -10.4557  -30.4757 C.ar    1  UNL1       -0.0316
     20 C           0.6532   -7.0494  -31.2884 C.3     1  UNL1        0.0121
     21 O           4.3583   -9.2010  -36.8472 O.co2   1  UNL1       -0.5460
     22 C          -0.2715   -8.0162  -33.4506 C.ar    1  UNL1       -0.0547
     23 C           3.5106  -12.5761  -29.3823 C.ar    1  UNL1        0.1202
     24 O           2.3866   -7.1318  -29.6968 O.co2   1  UNL1       -0.5495
     25 C           3.6547  -11.1721  -29.3252 C.ar    1  UNL1       -0.0181
     26 C           3.7371  -13.2460  -30.5963 C.ar    1  UNL1       -0.0181
     27 O           3.1545  -13.3269  -28.2797 O.3     1  UNL1       -0.4951
     28 C           2.6549  -14.6715  -28.3764 C.3     1  UNL1        0.0788
     29 H           2.3848  -11.3836  -37.2186 H       1  UNL1        0.0813
     30 H           4.2919  -11.3605  -35.5852 H       1  UNL1        0.0523
     31 H           2.8189  -12.0553  -34.9209 H       1  UNL1        0.0523
     32 H           2.7466   -8.5695  -32.0813 H       1  UNL1        0.0640
     33 H          -0.9154   -8.8803  -35.2693 H       1  UNL1        0.0655
     34 H           4.2756  -13.0290  -32.6328 H       1  UNL1        0.0638
     35 H           4.1282   -9.4300  -30.4318 H       1  UNL1        0.0638
     36 H           0.0915   -6.1729  -31.5360 H       1  UNL1        0.0373
     37 H           0.1568   -7.6233  -30.5339 H       1  UNL1        0.0373
     38 H          -1.1518   -7.5061  -33.2776 H       1  UNL1        0.0622
     39 H           3.4887  -10.6723  -28.4377 H       1  UNL1        0.0655
     40 H           3.6300  -14.2713  -30.6437 H       1  UNL1        0.0655
     41 H           2.4483  -15.0466  -27.3958 H       1  UNL1        0.0660
     42 H           3.3883  -15.2914  -28.8483 H       1  UNL1        0.0660
     43 H           1.7562  -14.6771  -28.9571 H       1  UNL1        0.0660
@<TRIPOS>BOND
     1     1     2    1
     2     2     3    1
     3     4     5    1
     4     2     5    1
     5     4     6    1
     6     3     7   ar
     7     4     8    1
     8     1     9    1
     9     1    10    2
    10     1    11    2
    11     3    12   ar
    12    13    20    1
    13     8    14   ar
    14    12    15   ar
    15     7    16   ar
    16    13    17   ar
    17     9    18   ar
    18     9    19   ar
    19    15    20    1
    20     8    21   ar
    21    15    22   ar
    22    23    25   ar
    23    13    24   ar
    24    19    25   ar
    25    18    26   ar
    26    23    27    1
    27    27    28    1
    28    23    26   ar
    29     6     7    1
    30    16    22   ar
    31     4    29    1
    32     5    30    1
    33     5    31    1
    34    12    32    1
    35    16    33    1
    36    18    34    1
    37    19    35    1
    38    20    36    1
    39    20    37    1
    40    22    38    1
    41    25    39    1
    42    26    40    1
    43    28    41    1
    44    28    42    1
    45    28    43    1
@<TRIPOS>SUBSTRUCTURE
     1 UNL1        1 TEMP              0 ****  ****    0 ROOT


