##########                                Name: HTS1710-01930488-01
##########                    Molecular_Weight:             290.251
##########                DOCK_Rotatable_Bonds:                   6
##########                       Formal_Charge:                  -4
##########                     HBond_Acceptors:                   9
##########                        HBond_Donors:                   2
##########                         Heavy_Atoms:                  19
##########                          Grid_Score:          -93.788582
##########                     Grid_vdw_energy:          -28.420786
##########                      Grid_es_energy:          -65.367798
##########           Internal_energy_repulsive:            2.758740

@<TRIPOS>MOLECULE
HTS1710-01930488-01
 29 29 1 0 0
SMALL
USER_CHARGES


@<TRIPOS>ATOM
      1 C           3.1905   -8.0551  -30.9576 C.ar    1  UNL1        0.0277
      2 C           3.4495  -10.1768  -29.5875 C.ar    1  UNL1        0.0277
      3 C           3.6994   -9.1136  -31.6827 C.ar    1  UNL1       -0.0870
      4 C           3.7982  -10.3272  -30.9170 C.ar    1  UNL1       -0.0870
      5 S           2.8637   -8.5395  -29.2928 S.2     1  UNL1       -0.0871
      6 C           3.5633  -11.1815  -28.4956 C.2     1  UNL1        0.0777
      7 C           2.9317   -6.6753  -31.4491 C.2     1  UNL1        0.0777
      8 O           3.5544   -5.7721  -30.9179 O.co2   1  UNL1       -0.5441
      9 O           2.5621  -11.3942  -27.8348 O.co2   1  UNL1       -0.5441
     10 O           4.1463  -11.5146  -31.5047 O.co2   1  UNL1       -0.8001
     11 O           4.0449   -9.0073  -33.0132 O.co2   1  UNL1       -0.8001
     12 O           2.1210   -6.5145  -32.3453 O.co2   1  UNL1       -0.5441
     13 O           4.6389  -11.7203  -28.3006 O.co2   1  UNL1       -0.5441
     14 O           4.2660   -9.7272  -36.0160 O.3     1  UNL1       -0.3959
     15 O           0.9638  -13.0590  -32.6453 O.3     1  UNL1       -0.3959
     16 C           3.1693  -12.5717  -31.6654 C.3     1  UNL1       -0.0763
     17 C           4.9696   -9.8821  -33.6877 C.3     1  UNL1       -0.0763
     18 C           2.0608  -12.1481  -32.6643 C.3     1  UNL1        0.0343
     19 C           5.2548   -9.2961  -35.0844 C.3     1  UNL1        0.0343
     20 H           4.2829  -10.6949  -36.0808 H       1  UNL1        0.2094
     21 H           1.2163  -13.8785  -33.0988 H       1  UNL1        0.2094
     22 H           2.7238  -12.7852  -30.7162 H       1  UNL1        0.0162
     23 H           3.6630  -13.4405  -32.0481 H       1  UNL1        0.0162
     24 H           4.5405  -10.8574  -33.7848 H       1  UNL1        0.0162
     25 H           5.8780   -9.9624  -33.1280 H       1  UNL1        0.0162
     26 H           1.7078  -11.1734  -32.3990 H       1  UNL1        0.0548
     27 H           2.4790  -12.1470  -33.6491 H       1  UNL1        0.0548
     28 H           5.2434   -8.2277  -35.0275 H       1  UNL1        0.0548
     29 H           6.2140   -9.6367  -35.4142 H       1  UNL1        0.0548
@<TRIPOS>BOND
     1     1     3   ar
     2     1     5   ar
     3     1     7    1
     4     2     4   ar
     5     2     5   ar
     6     2     6    1
     7     3     4   ar
     8     3    11    1
     9     4    10    1
    10     6     9   ar
    11     6    13   ar
    12     7     8   ar
    13     7    12   ar
    14    10    16    1
    15    11    17    1
    16    14    19    1
    17    15    18    1
    18    16    18    1
    19    17    19    1
    20    14    20    1
    21    15    21    1
    22    16    22    1
    23    16    23    1
    24    17    24    1
    25    17    25    1
    26    18    26    1
    27    18    27    1
    28    19    28    1
    29    19    29    1
@<TRIPOS>SUBSTRUCTURE
     1 UNL1        1 TEMP              0 ****  ****    0 ROOT


