##########                                Name: HTS1710-04399831-01
##########                    Molecular_Weight:             336.325
##########                DOCK_Rotatable_Bonds:                   6
##########                       Formal_Charge:                  -2
##########                     HBond_Acceptors:                   9
##########                        HBond_Donors:                   1
##########                         Heavy_Atoms:                  23
##########                          Grid_Score:          -76.936760
##########                     Grid_vdw_energy:          -41.467445
##########                      Grid_es_energy:          -35.469315
##########           Internal_energy_repulsive:            7.414725

@<TRIPOS>MOLECULE
HTS1710-04399831-01
 35 36 1 0 0
SMALL
USER_CHARGES


@<TRIPOS>ATOM
      1 S           3.5974  -11.6334  -35.3661 S.O2    1  UNL1        0.0738
      2 C           4.4191  -10.3558  -34.4277 C.ar    1  UNL1        0.1265
      3 C           4.4242  -10.1741  -33.0273 C.ar    1  UNL1       -0.0084
      4 C           5.1799   -9.0766  -32.7147 C.ar    1  UNL1        0.0661
      5 N           5.6554   -8.5641  -33.9295 N.ar    1  UNL1       -0.3469
      6 C           5.1826   -9.3557  -34.9758 C.ar    1  UNL1        0.0315
      7 N           2.5731  -10.7472  -36.3926 N.pl3   1  UNL1       -0.2162
      8 C           5.4354   -8.5498  -31.3482 C.2     1  UNL1        0.0880
      9 O           4.5902  -12.2577  -36.2467 O.2     1  UNL1       -0.1499
     10 O           2.7073  -12.3716  -34.4651 O.2     1  UNL1       -0.1499
     11 C          -2.6894   -7.2987  -34.9205 C.2     1  UNL1        0.0460
     12 O           5.9973   -7.4749  -31.2277 O.co2   1  UNL1       -0.5431
     13 O          -3.5090   -7.3379  -35.8222 O.co2   1  UNL1       -0.5495
     14 C           1.6294   -9.7844  -36.0939 C.ar    1  UNL1        0.0481
     15 C          -1.3168   -6.6992  -35.2470 C.3     1  UNL1        0.0120
     16 O           5.0605   -9.2362  -30.4131 O.co2   1  UNL1       -0.5431
     17 C          -0.2848   -7.7818  -35.5412 C.ar    1  UNL1       -0.0418
     18 C           6.5165   -7.3867  -34.1175 C.3     1  UNL1        0.0120
     19 O          -2.8668   -7.7014  -33.7844 O.co2   1  UNL1       -0.5495
     20 C           0.7500   -9.9237  -35.0014 C.ar    1  UNL1       -0.0391
     21 C           1.5462   -8.6383  -36.9044 C.ar    1  UNL1       -0.0391
     22 C           0.5960   -7.6429  -36.6290 C.ar    1  UNL1       -0.0564
     23 C          -0.2003   -8.9265  -34.7292 C.ar    1  UNL1       -0.0564
     24 H           3.9346  -10.7750  -32.3459 H       1  UNL1        0.0659
     25 H           5.3724   -9.2149  -35.9804 H       1  UNL1        0.0829
     26 H           2.6673  -10.9526  -37.3509 H       1  UNL1        0.1737
     27 H          -0.9834   -6.1203  -34.4112 H       1  UNL1        0.0373
     28 H          -1.4183   -6.0889  -36.1199 H       1  UNL1        0.0373
     29 H           6.7085   -7.2483  -35.1609 H       1  UNL1        0.0456
     30 H           7.4418   -7.5355  -33.6012 H       1  UNL1        0.0456
     31 H           6.0256   -6.5199  -33.7270 H       1  UNL1        0.0456
     32 H           0.8047  -10.7605  -34.4000 H       1  UNL1        0.0636
     33 H           2.1871   -8.5285  -37.7059 H       1  UNL1        0.0636
     34 H           0.5432   -6.8042  -37.2280 H       1  UNL1        0.0621
     35 H          -0.8413   -9.0345  -33.9276 H       1  UNL1        0.0621
@<TRIPOS>BOND
     1     1     2    1
     2     2     3   ar
     3     3     4   ar
     4     5     6   ar
     5     2     6   ar
     6     1     7    1
     7     4     8    1
     8     1     9    2
     9     1    10    2
    10    11    15    1
    11     8    12   ar
    12    11    13   ar
    13     7    14    1
    14    15    17    1
    15     8    16   ar
    16    17    22   ar
    17     5    18    1
    18    11    19   ar
    19    14    20   ar
    20    14    21   ar
    21    21    22   ar
    22    20    23   ar
    23     4     5   ar
    24    17    23   ar
    25     3    24    1
    26     6    25    1
    27     7    26    1
    28    15    27    1
    29    15    28    1
    30    18    29    1
    31    18    30    1
    32    18    31    1
    33    20    32    1
    34    21    33    1
    35    22    34    1
    36    23    35    1
@<TRIPOS>SUBSTRUCTURE
     1 UNL1        1 TEMP              0 ****  ****    0 ROOT


