##########                                Name: HTS1710-01161290-01
##########                    Molecular_Weight:             351.361
##########                DOCK_Rotatable_Bonds:                   8
##########                       Formal_Charge:                  -2
##########                     HBond_Acceptors:                   9
##########                        HBond_Donors:                   0
##########                         Heavy_Atoms:                  23
##########                          Grid_Score:          -77.692719
##########                     Grid_vdw_energy:          -39.398308
##########                      Grid_es_energy:          -38.294411
##########           Internal_energy_repulsive:           14.674012

@<TRIPOS>MOLECULE
HTS1710-01161290-01
 32 33 1 0 0
SMALL
USER_CHARGES


@<TRIPOS>ATOM
      1 N           2.8535  -10.9670  -33.0674 N.am    1  UNL1       -0.2463
      2 C           1.6255  -11.4194  -33.5443 C.2     1  UNL1        0.1211
      3 C           3.3295  -11.6781  -31.9667 C.2     1  UNL1        0.2588
      4 C           3.5928   -9.8013  -33.6256 C.3     1  UNL1        0.0765
      5 S           0.9785  -12.8338  -32.6575 S.3     1  UNL1       -0.0610
      6 C           2.3856  -12.7594  -31.6202 C.2     1  UNL1        0.0766
      7 C           4.6562  -10.2530  -34.6737 C.3     1  UNL1        0.0111
      8 C           4.1246   -8.9054  -32.4813 C.2     1  UNL1        0.0629
      9 S           0.7069  -10.6905  -34.7423 S.2     1  UNL1       -0.0272
     10 C           5.0136   -9.1765  -35.7134 C.2     1  UNL1        0.0439
     11 C           5.3991  -14.8114  -28.1845 C.ar    1  UNL1        0.1277
     12 C           2.6017  -13.6180  -30.5701 C.2     1  UNL1       -0.0428
     13 O           4.3703  -11.4357  -31.3773 O.2     1  UNL1       -0.2690
     14 C           3.7478  -13.6218  -29.6592 C.2     1  UNL1       -0.0571
     15 O           6.1044  -13.6593  -27.9383 O.2     1  UNL1       -0.4635
     16 C           4.2617  -14.7414  -29.0966 C.2     1  UNL1       -0.0193
     17 O           3.4042   -8.6985  -31.5182 O.co2   1  UNL1       -0.5479
     18 C           5.8844  -15.9054  -27.5097 C.ar    1  UNL1       -0.0165
     19 C           7.0675  -14.0950  -27.0660 C.ar    1  UNL1        0.0925
     20 C           6.9911  -15.4290  -26.7693 C.ar    1  UNL1       -0.0233
     21 O           4.5507   -9.2984  -36.8351 O.co2   1  UNL1       -0.5497
     22 O           5.2510   -8.4588  -32.6178 O.co2   1  UNL1       -0.5479
     23 O           5.7428   -8.2709  -35.3472 O.co2   1  UNL1       -0.5497
     24 H           2.9254   -9.1786  -34.1839 H       1  UNL1        0.0570
     25 H           4.2742  -11.1072  -35.1927 H       1  UNL1        0.0347
     26 H           5.5530  -10.4653  -34.1300 H       1  UNL1        0.0347
     27 H           1.8795  -14.3367  -30.4057 H       1  UNL1        0.0630
     28 H           4.1905  -12.7175  -29.4324 H       1  UNL1        0.0619
     29 H           3.8033  -15.6343  -29.3368 H       1  UNL1        0.0654
     30 H           5.5189  -16.8701  -27.5372 H       1  UNL1        0.0655
     31 H           7.7872  -13.4719  -26.6677 H       1  UNL1        0.1029
     32 H           7.6070  -15.9695  -26.1419 H       1  UNL1        0.0649
@<TRIPOS>BOND
     1     1     2    1
     2     1     3   am
     3     1     4    1
     4     2     5    1
     5     3     6    1
     6     4     7    1
     7     4     8    1
     8     2     9    2
     9     7    10    1
    10    11    16    1
    11     6    12    2
    12     3    13    2
    13    12    14    1
    14    11    15   ar
    15    14    16    2
    16     8    17   ar
    17    11    18   ar
    18    15    19   ar
    19    18    20   ar
    20    10    21   ar
    21     8    22   ar
    22    10    23   ar
    23     5     6    1
    24    19    20   ar
    25     4    24    1
    26     7    25    1
    27     7    26    1
    28    12    27    1
    29    14    28    1
    30    16    29    1
    31    18    30    1
    32    19    31    1
    33    20    32    1
@<TRIPOS>SUBSTRUCTURE
     1 UNL1        1 TEMP              0 ****  ****    0 ROOT


