##########                                Name: HTS1710-00569566-01
##########                    Molecular_Weight:             359.379
##########                DOCK_Rotatable_Bonds:                   9
##########                       Formal_Charge:                  -2
##########                     HBond_Acceptors:                   7
##########                        HBond_Donors:                   0
##########                         Heavy_Atoms:                  26
##########                          Grid_Score:          -82.492813
##########                     Grid_vdw_energy:          -44.551598
##########                      Grid_es_energy:          -37.941212
##########           Internal_energy_repulsive:           16.954683

@<TRIPOS>MOLECULE
HTS1710-00569566-01
 47 48 1 0 0
SMALL
USER_CHARGES


@<TRIPOS>ATOM
      1 C           3.5803  -10.9931  -32.2913 C.3     1  UNL1        0.0829
      2 C           2.3574  -10.6040  -33.1309 C.ar    1  UNL1        0.0191
      3 N           3.2811  -11.1354  -30.8446 N.am    1  UNL1       -0.2872
      4 C           4.6922   -9.9408  -32.2919 C.2     1  UNL1        0.0168
      5 C           1.5269   -9.5076  -32.7925 C.ar    1  UNL1        0.1254
      6 C           2.0496  -11.3783  -34.2657 C.ar    1  UNL1       -0.0530
      7 C           4.0472  -10.2819  -30.0701 C.2     1  UNL1        0.2329
      8 C           2.4188  -12.2205  -30.3422 C.3     1  UNL1        0.0159
      9 C           4.8899   -9.5387  -31.0193 C.2     1  UNL1       -0.0358
     10 C           5.2052   -9.3979  -33.5844 C.2     1  UNL1        0.1579
     11 C           0.4049   -9.2068  -33.5957 C.ar    1  UNL1       -0.0196
     12 O           1.8281   -8.7526  -31.6744 O.3     1  UNL1       -0.4948
     13 C           0.9327  -11.0736  -35.0568 C.ar    1  UNL1       -0.0612
     14 O           4.0256  -10.1850  -28.8546 O.2     1  UNL1       -0.2712
     15 C           3.1242  -13.5974  -30.2857 C.3     1  UNL1       -0.0371
     16 O           5.7361   -8.5763  -30.5874 O.co2   1  UNL1       -0.8701
     17 C           5.3033  -10.3846  -34.7499 C.3     1  UNL1       -0.0017
     18 O           5.6707   -8.2748  -33.6677 O.2     1  UNL1       -0.2926
     19 C           0.1110   -9.9894  -34.7226 C.ar    1  UNL1       -0.0583
     20 C           1.5979   -7.3366  -31.5843 C.3     1  UNL1        0.0788
     21 C           2.5572  -14.5323  -29.1891 C.3     1  UNL1       -0.0513
     22 C           3.2543  -14.3016  -27.8266 C.3     1  UNL1       -0.0479
     23 C           4.6540  -14.9591  -27.7438 C.3     1  UNL1       -0.0132
     24 C           5.7764  -13.9353  -27.5271 C.2     1  UNL1        0.0417
     25 O           5.6675  -12.8635  -28.0962 O.co2   1  UNL1       -0.5498
     26 O           6.6902  -14.2552  -26.7870 O.co2   1  UNL1       -0.5498
     27 H           3.8765  -11.9108  -32.7549 H       1  UNL1        0.0603
     28 H           2.6518  -12.1777  -34.5178 H       1  UNL1        0.0622
     29 H           1.5684  -12.3025  -30.9864 H       1  UNL1        0.0465
     30 H           2.1469  -11.9660  -29.3392 H       1  UNL1        0.0465
     31 H          -0.2015   -8.4078  -33.3528 H       1  UNL1        0.0654
     32 H           0.7158  -11.6487  -35.8858 H       1  UNL1        0.0618
     33 H           4.1644  -13.4383  -30.0916 H       1  UNL1        0.0280
     34 H           2.9582  -14.0771  -31.2276 H       1  UNL1        0.0280
     35 H           4.8366  -11.3077  -34.4759 H       1  UNL1        0.0309
     36 H           6.3328  -10.5607  -34.9824 H       1  UNL1        0.0309
     37 H           4.8092   -9.9755  -35.6062 H       1  UNL1        0.0309
     38 H          -0.7109   -9.7662  -35.3055 H       1  UNL1        0.0619
     39 H           1.9123   -6.9845  -30.6241 H       1  UNL1        0.0660
     40 H           0.5549   -7.1359  -31.7139 H       1  UNL1        0.0660
     41 H           2.1551   -6.8354  -32.3480 H       1  UNL1        0.0660
     42 H           2.7071  -15.5487  -29.4880 H       1  UNL1        0.0266
     43 H           1.5155  -14.3176  -29.0724 H       1  UNL1        0.0266
     44 H           2.6382  -14.7128  -27.0544 H       1  UNL1        0.0269
     45 H           3.3891  -13.2465  -27.7108 H       1  UNL1        0.0269
     46 H           4.8406  -15.4837  -28.6575 H       1  UNL1        0.0325
     47 H           4.6518  -15.6198  -26.9022 H       1  UNL1        0.0325
@<TRIPOS>BOND
     1     1     2    1
     2     1     3    1
     3     1     4    1
     4     2     5   ar
     5     2     6   ar
     6     3     7   am
     7     3     8    1
     8     4     9    2
     9     4    10    1
    10     5    11   ar
    11     5    12    1
    12     6    13   ar
    13     7    14    2
    14     8    15    1
    15     9    16    1
    16    10    17    1
    17    10    18    2
    18    11    19   ar
    19    12    20    1
    20    15    21    1
    21    21    22    1
    22    22    23    1
    23    23    24    1
    24    24    25   ar
    25    24    26   ar
    26     7     9    1
    27    13    19   ar
    28     1    27    1
    29     6    28    1
    30     8    29    1
    31     8    30    1
    32    11    31    1
    33    13    32    1
    34    15    33    1
    35    15    34    1
    36    17    35    1
    37    17    36    1
    38    17    37    1
    39    19    38    1
    40    20    39    1
    41    20    40    1
    42    20    41    1
    43    21    42    1
    44    21    43    1
    45    22    44    1
    46    22    45    1
    47    23    46    1
    48    23    47    1
@<TRIPOS>SUBSTRUCTURE
     1 UNL1        1 TEMP              0 ****  ****    0 ROOT


