##########                                Name: HTS1710-01494655-01
##########                    Molecular_Weight:             372.421
##########                DOCK_Rotatable_Bonds:                   9
##########                       Formal_Charge:                  -2
##########                     HBond_Acceptors:                   7
##########                        HBond_Donors:                   0
##########                         Heavy_Atoms:                  27
##########                          Grid_Score:          -78.075256
##########                     Grid_vdw_energy:          -40.157913
##########                      Grid_es_energy:          -37.917347
##########           Internal_energy_repulsive:           16.689915

@<TRIPOS>MOLECULE
HTS1710-01494655-01
 51 52 1 0 0
SMALL
USER_CHARGES


@<TRIPOS>ATOM
      1 C           3.6089   -8.6798  -31.2298 C.2     1  UNL1        0.0167
      2 N           2.5542  -10.7195  -31.7097 N.am    1  UNL1       -0.2873
      3 C           3.6808   -9.5002  -30.1623 C.2     1  UNL1       -0.0358
      4 C           3.0603  -10.8059  -30.4261 C.2     1  UNL1        0.2329
      5 C           2.8178   -9.3956  -32.3268 C.3     1  UNL1        0.0796
      6 C           3.9792   -7.2421  -31.3913 C.2     1  UNL1        0.1579
      7 C           1.5396   -8.6566  -32.7112 C.ar    1  UNL1       -0.0224
      8 O           2.9976  -11.7680  -29.6804 O.2     1  UNL1       -0.2712
      9 C           4.5467   -9.8988  -36.1924 C.2     1  UNL1        0.0417
     10 C          -0.7993   -7.2119  -33.4090 C.ar    1  UNL1        0.0292
     11 N          -1.9485   -6.4865  -33.7533 N.pl3   1  UNL1       -0.3360
     12 O           4.2353   -9.2312  -28.9582 O.co2   1  UNL1       -0.8701
     13 O           3.2504   -6.3468  -30.9977 O.2     1  UNL1       -0.2926
     14 O           5.1846   -9.5890  -35.2012 O.co2   1  UNL1       -0.5498
     15 C           1.2727   -8.3410  -34.0553 C.ar    1  UNL1       -0.0547
     16 C           0.6316   -8.2548  -31.7191 C.ar    1  UNL1       -0.0547
     17 C           0.1160   -7.6258  -34.4003 C.ar    1  UNL1       -0.0404
     18 C          -0.5269   -7.5402  -32.0627 C.ar    1  UNL1       -0.0404
     19 C           1.9416  -11.8178  -32.4785 C.3     1  UNL1        0.0159
     20 O           4.2371   -9.1454  -37.0992 O.co2   1  UNL1       -0.5498
     21 C           4.0730  -11.3536  -36.2970 C.3     1  UNL1       -0.0132
     22 C           5.3870   -6.9484  -31.9144 C.3     1  UNL1       -0.0017
     23 C          -2.4666   -5.3881  -32.9150 C.3     1  UNL1        0.0004
     24 C          -2.7501   -6.7945  -34.9524 C.3     1  UNL1        0.0004
     25 C           2.9634  -12.9190  -32.8493 C.3     1  UNL1       -0.0371
     26 C           3.1471  -11.7448  -35.1195 C.3     1  UNL1       -0.0479
     27 C           3.9104  -12.4769  -33.9885 C.3     1  UNL1       -0.0513
     28 H           3.3438   -9.4592  -33.2564 H       1  UNL1        0.0602
     29 H           1.9315   -8.6373  -34.7923 H       1  UNL1        0.0622
     30 H           0.8169   -8.4862  -30.7306 H       1  UNL1        0.0622
     31 H          -0.0675   -7.3998  -35.3903 H       1  UNL1        0.0636
     32 H          -1.1867   -7.2516  -31.3235 H       1  UNL1        0.0636
     33 H           1.5263  -11.4169  -33.3794 H       1  UNL1        0.0465
     34 H           1.1879  -12.2652  -31.8647 H       1  UNL1        0.0465
     35 H           4.9280  -11.9970  -36.2934 H       1  UNL1        0.0325
     36 H           3.5166  -11.4569  -37.2051 H       1  UNL1        0.0325
     37 H           5.8567   -7.8639  -32.2077 H       1  UNL1        0.0309
     38 H           5.9641   -6.4825  -31.1431 H       1  UNL1        0.0309
     39 H           5.3245   -6.2933  -32.7581 H       1  UNL1        0.0309
     40 H          -1.8187   -5.2438  -32.0757 H       1  UNL1        0.0428
     41 H          -3.4484   -5.6359  -32.5690 H       1  UNL1        0.0428
     42 H          -2.5085   -4.4881  -33.4922 H       1  UNL1        0.0428
     43 H          -2.2939   -7.5998  -35.4894 H       1  UNL1        0.0428
     44 H          -2.7991   -5.9296  -35.5805 H       1  UNL1        0.0428
     45 H          -3.7390   -7.0775  -34.6574 H       1  UNL1        0.0428
     46 H           2.4304  -13.7920  -33.1634 H       1  UNL1        0.0280
     47 H           3.5607  -13.1177  -31.9840 H       1  UNL1        0.0280
     48 H           2.3765  -12.3894  -35.4875 H       1  UNL1        0.0269
     49 H           2.7410  -10.8436  -34.7096 H       1  UNL1        0.0269
     50 H           4.6508  -11.8171  -33.5870 H       1  UNL1        0.0266
     51 H           4.3613  -13.3533  -34.4049 H       1  UNL1        0.0266
@<TRIPOS>BOND
     1     2     5    1
     2     1     3    2
     3     3     4    1
     4     1     5    1
     5     1     6    1
     6     5     7    1
     7     4     8    2
     8     9    21    1
     9    10    18   ar
    10    10    11    1
    11     3    12    1
    12     6    13    2
    13     9    14   ar
    14     7    15   ar
    15     7    16   ar
    16    15    17   ar
    17    16    18   ar
    18     2    19    1
    19     9    20   ar
    20    21    26    1
    21     6    22    1
    22    11    23    1
    23    11    24    1
    24    19    25    1
    25    26    27    1
    26    25    27    1
    27     2     4   am
    28    10    17   ar
    29     5    28    1
    30    15    29    1
    31    16    30    1
    32    17    31    1
    33    18    32    1
    34    19    33    1
    35    19    34    1
    36    21    35    1
    37    21    36    1
    38    22    37    1
    39    22    38    1
    40    22    39    1
    41    23    40    1
    42    23    41    1
    43    23    42    1
    44    24    43    1
    45    24    44    1
    46    24    45    1
    47    25    46    1
    48    25    47    1
    49    26    48    1
    50    26    49    1
    51    27    50    1
    52    27    51    1
@<TRIPOS>SUBSTRUCTURE
     1 UNL1        1 TEMP              0 ****  ****    0 ROOT


