##########                                Name: HTS1710-01263983-01
##########                    Molecular_Weight:             372.331
##########                DOCK_Rotatable_Bonds:                   9
##########                       Formal_Charge:                  -2
##########                     HBond_Acceptors:                   8
##########                        HBond_Donors:                   4
##########                         Heavy_Atoms:                  27
##########                          Grid_Score:          -74.781113
##########                     Grid_vdw_energy:          -38.203442
##########                      Grid_es_energy:          -36.577671
##########           Internal_energy_repulsive:            9.188030

@<TRIPOS>MOLECULE
HTS1710-01263983-01
 43 45 1 0 0
SMALL
USER_CHARGES


@<TRIPOS>ATOM
      1 C           1.5454   -8.3356  -32.6044 C.2     1  UNL1       -0.0603
      2 C           3.7278   -7.4254  -31.6945 C.2     1  UNL1       -0.0603
      3 C           4.8496   -7.9252  -32.3457 C.2     1  UNL1        0.1535
      4 C           0.2120   -7.9925  -32.4435 C.2     1  UNL1        0.1535
      5 C           2.5007   -8.2843  -31.4201 C.3     1  UNL1        0.0152
      6 C           6.0328   -7.0850  -32.5942 C.2     1  UNL1        0.2184
      7 C          -0.7428   -8.0582  -33.5606 C.2     1  UNL1        0.2184
      8 O           3.6344   -6.1240  -31.2383 O.co2   1  UNL1       -0.7814
      9 O           2.0782   -8.7604  -33.8074 O.co2   1  UNL1       -0.7814
     10 C           5.8774   -5.7239  -32.0863 C.2     1  UNL1       -0.0198
     11 C          -0.1261   -8.5177  -34.8042 C.2     1  UNL1       -0.0198
     12 C           1.2128   -8.8368  -34.8768 C.2     1  UNL1       -0.0884
     13 C           4.7268   -5.3107  -31.4524 C.2     1  UNL1       -0.0884
     14 C           2.8673   -9.6650  -30.8564 C.ar    1  UNL1       -0.0376
     15 O           7.0434   -7.4681  -33.1607 O.2     1  UNL1       -0.2841
     16 O          -1.9243   -7.7671  -33.4723 O.2     1  UNL1       -0.2841
     17 O           4.9713   -9.1878  -32.8149 O.2     1  UNL1       -0.5038
     18 O          -0.3362   -7.5838  -31.2764 O.2     1  UNL1       -0.5038
     19 C           1.8032   -9.3123  -36.1794 C.3     1  UNL1        0.0566
     20 C           4.6194   -3.8959  -30.9452 C.3     1  UNL1        0.0566
     21 O           3.2183   -9.4460  -36.0865 O.3     1  UNL1       -0.3915
     22 O           3.8321   -3.8337  -29.7594 O.3     1  UNL1       -0.3915
     23 C           3.5641   -9.7388  -29.6346 C.ar    1  UNL1       -0.0577
     24 C           2.5321  -10.8629  -31.5259 C.ar    1  UNL1       -0.0577
     25 C           2.8888  -12.1058  -30.9775 C.ar    1  UNL1       -0.0615
     26 C           3.9204  -10.9830  -29.0889 C.ar    1  UNL1       -0.0615
     27 C           3.5821  -12.1662  -29.7603 C.ar    1  UNL1       -0.0617
     28 H           1.9510   -7.7983  -30.6413 H       1  UNL1        0.0425
     29 H           6.6522   -5.0529  -32.2059 H       1  UNL1        0.0649
     30 H          -0.7094   -8.6054  -35.6510 H       1  UNL1        0.0649
     31 H           4.2113   -9.7277  -32.9096 H       1  UNL1        0.2923
     32 H          -1.2672   -7.5863  -31.1698 H       1  UNL1        0.2923
     33 H           1.5693   -8.6047  -36.9472 H       1  UNL1        0.0596
     34 H           1.3872  -10.2709  -36.4094 H       1  UNL1        0.0596
     35 H           4.1641   -3.2882  -31.6991 H       1  UNL1        0.0596
     36 H           5.6030   -3.5409  -30.7187 H       1  UNL1        0.0596
     37 H           3.5560   -9.8738  -36.8889 H       1  UNL1        0.2098
     38 H           3.7714   -2.9132  -29.4595 H       1  UNL1        0.2098
     39 H           3.8151   -8.8709  -29.1359 H       1  UNL1        0.0621
     40 H           2.0227  -10.8246  -32.4226 H       1  UNL1        0.0621
     41 H           2.6398  -12.9768  -31.4717 H       1  UNL1        0.0618
     42 H           4.4315  -11.0261  -28.1934 H       1  UNL1        0.0618
     43 H           3.8430  -13.0806  -29.3592 H       1  UNL1        0.0618
@<TRIPOS>BOND
     1     2     5    1
     2     2     3    2
     3     1     4    2
     4     1     5    1
     5     3     6    1
     6     4     7    1
     7     2     8    1
     8     1     9    1
     9    10    13    2
    10    11    12    2
    11     9    12    1
    12     8    13    1
    13     5    14    1
    14     6    15    2
    15     7    16    2
    16     3    17    1
    17     4    18    1
    18    12    19    1
    19    13    20    1
    20    19    21    1
    21    20    22    1
    22    14    23   ar
    23    14    24   ar
    24    24    25   ar
    25    23    26   ar
    26    25    27   ar
    27     7    11    1
    28    26    27   ar
    29     6    10    1
    30     5    28    1
    31    10    29    1
    32    11    30    1
    33    17    31    1
    34    18    32    1
    35    19    33    1
    36    19    34    1
    37    20    35    1
    38    20    36    1
    39    21    37    1
    40    22    38    1
    41    23    39    1
    42    24    40    1
    43    25    41    1
    44    26    42    1
    45    27    43    1
@<TRIPOS>SUBSTRUCTURE
     1 UNL1        1 TEMP              0 ****  ****    0 ROOT


