##########                                Name: HTS1710-02617453-01
##########                    Molecular_Weight:             338.251
##########                DOCK_Rotatable_Bonds:                   5
##########                       Formal_Charge:                  -3
##########                     HBond_Acceptors:                  10
##########                        HBond_Donors:                   0
##########                         Heavy_Atoms:                  23
##########                          Grid_Score:          -84.319321
##########                     Grid_vdw_energy:          -35.476326
##########                      Grid_es_energy:          -48.842991
##########           Internal_energy_repulsive:            4.317709

@<TRIPOS>MOLECULE
HTS1710-02617453-01
 29 30 1 0 0
SMALL
USER_CHARGES


@<TRIPOS>ATOM
      1 S           4.7108  -14.1284  -27.6339 S.3     1  UNL1       -0.0512
      2 C           4.4433  -10.9647  -30.2567 C.ar    1  UNL1        0.0414
      3 C           2.8264  -10.1687  -34.6076 C.2     1  UNL1        0.0662
      4 C           2.7459  -10.6440  -33.2069 C.2     1  UNL1        0.3450
      5 C           4.1413  -11.6175  -31.4743 C.ar    1  UNL1        0.1409
      6 C           4.5020  -13.1451  -29.1353 C.ar    1  UNL1        0.0775
      7 C           4.6125  -11.7414  -29.0915 C.ar    1  UNL1       -0.0255
      8 C           4.5760   -9.4620  -30.1688 C.2     1  UNL1        0.0752
      9 C           4.0568   -9.9338  -35.2017 C.2     1  UNL1       -0.0118
     10 O           3.9588  -10.8953  -32.6333 O.3     1  UNL1       -0.4217
     11 C           1.6441   -9.9290  -35.4065 C.2     1  UNL1       -0.0456
     12 C           3.1219   -9.2330  -37.3062 C.2     1  UNL1        0.0558
     13 O           4.1816   -9.4851  -36.4898 O.co2   1  UNL1       -0.5860
     14 C           1.8093   -9.4809  -36.6967 C.2     1  UNL1       -0.0392
     15 O           3.3884  -14.0734  -27.0019 O.2     1  UNL1       -0.1803
     16 O           5.1149  -15.4453  -28.1365 O.2     1  UNL1       -0.1803
     17 O           1.6884  -10.7957  -32.6160 O.2     1  UNL1       -0.2445
     18 C           4.0284  -13.0187  -31.5182 C.ar    1  UNL1       -0.0168
     19 O           5.7608  -13.3889  -26.9284 O.co2   1  UNL1       -0.7202
     20 O           3.7954   -8.8803  -29.4349 O.co2   1  UNL1       -0.5445
     21 C           4.2034  -13.7789  -30.3532 C.ar    1  UNL1       -0.0343
     22 O           3.2595   -8.8323  -38.4486 O.2     1  UNL1       -0.5459
     23 O           5.4560   -8.9280  -30.8229 O.co2   1  UNL1       -0.5445
     24 H           4.8201  -11.2750  -28.1946 H       1  UNL1        0.0644
     25 H           4.9131  -10.1039  -34.6514 H       1  UNL1        0.0705
     26 H           0.7014  -10.0898  -35.0186 H       1  UNL1        0.0626
     27 H           0.9659   -9.3101  -37.2664 H       1  UNL1        0.0635
     28 H           3.8159  -13.4894  -32.4117 H       1  UNL1        0.0655
     29 H           4.1126  -14.8063  -30.3903 H       1  UNL1        0.0637
@<TRIPOS>BOND
     1     1     6    1
     2     1    15    2
     3     1    16    2
     4     1    19    1
     5     2     5   ar
     6     2     7   ar
     7     2     8    1
     8     3     4    1
     9     3     9    2
    10     3    11    1
    11     4    10    1
    12     4    17    2
    13     5    10    1
    14     5    18   ar
    15     6     7   ar
    16     6    21   ar
    17     8    20   ar
    18     8    23   ar
    19     9    13    1
    20    11    14    2
    21    12    13    1
    22    12    14    1
    23    12    22    2
    24    18    21   ar
    25     7    24    1
    26     9    25    1
    27    11    26    1
    28    14    27    1
    29    18    28    1
    30    21    29    1
@<TRIPOS>SUBSTRUCTURE
     1 UNL1        1 TEMP              0 ****  ****    0 ROOT


