##########                                Name: HTS1710-05326285-01
##########                    Molecular_Weight:             335.697
##########                DOCK_Rotatable_Bonds:                   4
##########                       Formal_Charge:                  -2
##########                     HBond_Acceptors:                  10
##########                        HBond_Donors:                   0
##########                         Heavy_Atoms:                  21
##########                          Grid_Score:          -75.624794
##########                     Grid_vdw_energy:          -35.926937
##########                      Grid_es_energy:          -39.697857
##########           Internal_energy_repulsive:           14.507742

@<TRIPOS>MOLECULE
HTS1710-05326285-01
 28 29 1 0 0
SMALL
USER_CHARGES


@<TRIPOS>ATOM
      1 O           2.7758   -9.1690  -35.2781 O.co2   1  UNL1       -0.5481
      2 C           3.1392   -9.7859  -36.2649 C.2     1  UNL1        0.0606
      3 O           3.6841   -9.1809  -37.1716 O.co2   1  UNL1       -0.5481
      4 C           2.8575  -11.3453  -36.3434 C.3     1  UNL1        0.0722
      5 C           1.3428  -11.2009  -35.9090 C.3     1  UNL1       -0.0160
      6 C           1.8213  -11.5542  -34.4564 C.3     1  UNL1        0.0230
      7 N           2.9915  -12.1882  -35.1179 N.3     1  UNL1       -0.1680
      8 S           4.4716  -12.4008  -34.2982 S.O2    1  UNL1        0.0615
      9 O           5.3104  -11.2586  -34.6702 O.2     1  UNL1       -0.1528
     10 O           4.9117  -13.7852  -34.5023 O.2     1  UNL1       -0.1528
     11 C           3.9849  -12.1878  -32.5741 C.ar    1  UNL1        0.1077
     12 C           3.2412  -13.1956  -31.9387 C.ar    1  UNL1       -0.0142
     13 C           2.8501  -13.0423  -30.6017 C.ar    1  UNL1        0.0786
     14 CL          1.9078  -14.3060  -29.8313 Cl      1  UNL1       -0.0805
     15 C           3.2023  -11.8825  -29.8896 C.ar    1  UNL1        0.1505
     16 F           2.7862  -11.7453  -28.6103 F       1  UNL1       -0.2033
     17 C           3.9608  -10.8635  -30.5131 C.ar    1  UNL1        0.0358
     18 C           4.3450  -11.0291  -31.8603 C.ar    1  UNL1       -0.0237
     19 C           4.3547   -9.6051  -29.7803 C.2     1  UNL1        0.0745
     20 O           3.8431   -9.4175  -28.6899 O.co2   1  UNL1       -0.5445
     21 O           5.1468   -8.8562  -30.3240 O.co2   1  UNL1       -0.5445
     22 H           3.3736  -11.7266  -37.1995 H       1  UNL1        0.0541
     23 H           0.6789  -11.9150  -36.3497 H       1  UNL1        0.0297
     24 H           0.7701  -10.3226  -36.1224 H       1  UNL1        0.0297
     25 H           1.1844  -12.2266  -33.9206 H       1  UNL1        0.0445
     26 H           1.9211  -10.8188  -33.6857 H       1  UNL1        0.0445
     27 H           2.9825  -14.0499  -32.4568 H       1  UNL1        0.0652
     28 H           4.8962  -10.2925  -32.3279 H       1  UNL1        0.0644
@<TRIPOS>BOND
     1     1     2   ar
     2     2     3   ar
     3     2     4    1
     4     4     5    1
     5     5     6    1
     6     6     7    1
     7     4     7    1
     8     7     8    1
     9     8     9    2
    10     8    10    2
    11     8    11    1
    12    11    12   ar
    13    12    13   ar
    14    13    14    1
    15    13    15   ar
    16    15    16    1
    17    15    17   ar
    18    17    18   ar
    19    11    18   ar
    20    17    19    1
    21    19    20   ar
    22    19    21   ar
    23     4    22    1
    24     5    23    1
    25     5    24    1
    26     6    25    1
    27     6    26    1
    28    12    27    1
    29    18    28    1
@<TRIPOS>SUBSTRUCTURE
     1 UNL1        1 TEMP              0 ****  ****    0 ROOT


