##########                                Name: HTS1710-04760636-01
##########                    Molecular_Weight:               296.3
##########                DOCK_Rotatable_Bonds:                   8
##########                       Formal_Charge:                  -2
##########                     HBond_Acceptors:                   7
##########                        HBond_Donors:                   1
##########                         Heavy_Atoms:                  21
##########                          Grid_Score:          -76.317886
##########                     Grid_vdw_energy:          -37.970032
##########                      Grid_es_energy:          -38.347855
##########           Internal_energy_repulsive:            5.773898

@<TRIPOS>MOLECULE
HTS1710-04760636-01
 39 40 1 0 0
SMALL
USER_CHARGES


@<TRIPOS>ATOM
      1 C           6.7022   -6.3059  -34.8484 C.3     1  UNL1       -0.0524
      2 C           6.0889   -7.6401  -34.5102 C.2     1  UNL1       -0.1120
      3 O           5.7929   -8.5084  -35.5295 O.co2   1  UNL1       -0.7845
      4 C           5.2698   -9.5513  -34.8168 C.2     1  UNL1       -0.1000
      5 C           4.7701  -10.7763  -35.5329 C.3     1  UNL1        0.0240
      6 N           4.5841  -11.8710  -34.5722 N.am    1  UNL1       -0.3104
      7 C           3.3507  -12.1755  -34.0113 C.2     1  UNL1        0.2390
      8 O           2.3648  -11.5205  -34.3085 O.2     1  UNL1       -0.2733
      9 C           3.2904  -13.3427  -33.0212 C.3     1  UNL1        0.1238
     10 O           3.2666  -12.8590  -31.6620 O.3     1  UNL1       -0.3680
     11 C           3.1530  -13.8659  -30.6350 C.3     1  UNL1        0.0745
     12 C           3.0553  -13.1930  -29.2344 C.3     1  UNL1        0.0820
     13 C           2.5346  -14.1349  -28.1212 C.3     1  UNL1       -0.0224
     14 C           3.7904  -14.5795  -27.3486 C.3     1  UNL1       -0.0270
     15 C           4.9629  -13.9865  -28.1455 C.3     1  UNL1        0.0482
     16 O           4.3777  -12.8408  -28.7847 O.3     1  UNL1       -0.3743
     17 C           5.2326   -9.3788  -33.4585 C.2     1  UNL1       -0.0630
     18 C           5.7819   -8.0878  -33.2392 C.2     1  UNL1       -0.0144
     19 C           5.9565   -7.4215  -31.9259 C.2     1  UNL1        0.0708
     20 O           6.0352   -6.2054  -31.9281 O.co2   1  UNL1       -0.5447
     21 O           6.0107   -8.1138  -30.9251 O.co2   1  UNL1       -0.5447
     22 H           6.8282   -6.2296  -35.9082 H       1  UNL1        0.0266
     23 H           7.6547   -6.2194  -34.3688 H       1  UNL1        0.0266
     24 H           6.0591   -5.5212  -34.5082 H       1  UNL1        0.0266
     25 H           5.4836  -11.0709  -36.2737 H       1  UNL1        0.0500
     26 H           3.8346  -10.5548  -36.0025 H       1  UNL1        0.0500
     27 H           5.3658  -12.4114  -34.3151 H       1  UNL1        0.1490
     28 H           4.1509  -13.9638  -33.1579 H       1  UNL1        0.0656
     29 H           2.3961  -13.9015  -33.2028 H       1  UNL1        0.0656
     30 H           4.0147  -14.4996  -30.6638 H       1  UNL1        0.0586
     31 H           2.2697  -14.4445  -30.8079 H       1  UNL1        0.0586
     32 H           2.3875  -12.3681  -29.3708 H       1  UNL1        0.0619
     33 H           2.0373  -14.9809  -28.5476 H       1  UNL1        0.0292
     34 H           1.8250  -13.6484  -27.4850 H       1  UNL1        0.0292
     35 H           3.8565  -15.6470  -27.3165 H       1  UNL1        0.0288
     36 H           3.7809  -14.2476  -26.3314 H       1  UNL1        0.0288
     37 H           5.3276  -14.6853  -28.8691 H       1  UNL1        0.0560
     38 H           5.8056  -13.7414  -27.5334 H       1  UNL1        0.0560
     39 H           4.8821  -10.0419  -32.7497 H       1  UNL1        0.0615
@<TRIPOS>BOND
     1     1     2    1
     2     2     3    1
     3     3     4    1
     4     4     5    1
     5     5     6    1
     6     6     7   am
     7     7     8    2
     8     7     9    1
     9     9    10    1
    10    10    11    1
    11    11    12    1
    12    12    13    1
    13    13    14    1
    14    14    15    1
    15    15    16    1
    16    12    16    1
    17     4    17    2
    18    17    18    1
    19     2    18    2
    20    18    19    1
    21    19    20   ar
    22    19    21   ar
    23     1    22    1
    24     1    23    1
    25     1    24    1
    26     5    25    1
    27     5    26    1
    28     6    27    1
    29     9    28    1
    30     9    29    1
    31    11    30    1
    32    11    31    1
    33    12    32    1
    34    13    33    1
    35    13    34    1
    36    14    35    1
    37    14    36    1
    38    15    37    1
    39    15    38    1
    40    17    39    1
@<TRIPOS>SUBSTRUCTURE
     1 UNL1        1 TEMP              0 ****  ****    0 ROOT


