HTS1710-04367419-01
 OpenBabel03232612353D

 24 24  0  0  1  0  0  0  0  0999 V2000
    3.9659  -12.3718  -29.3158 N   0  0  0  0  0  0  0  0  0  0  0  0
    5.2086  -14.1643  -28.1911 C   0  0  0  0  0  0  0  0  0  0  0  0
    5.0375  -12.8337  -28.5456 C   0  0  0  0  0  0  0  0  0  0  0  0
    3.9141  -10.8988  -29.5753 C   0  0  1  0  0  0  0  0  0  0  0  0
    2.9865  -13.2388  -29.8141 C   0  0  0  0  0  0  0  0  0  0  0  0
    4.2231  -15.1084  -28.6588 C   0  0  0  0  0  0  0  0  0  0  0  0
    3.6529  -10.5614  -31.0781 C   0  0  0  0  0  0  0  0  0  0  0  0
    6.3627  -14.5995  -27.3607 C   0  0  0  0  0  0  0  0  0  0  0  0
    3.1814  -14.6438  -29.4293 C   0  0  0  0  0  0  0  0  0  0  0  0
    3.0430  -10.1398  -28.5417 C   0  0  0  0  0  0  0  0  0  0  0  0
    4.3120   -9.2656  -31.5818 C   0  0  0  0  0  0  0  0  0  0  0  0
    2.0528  -12.8908  -30.5165 O   0  0  0  0  0  0  0  0  0  0  0  0
    7.2830  -13.8137  -27.2079 O   0  5  0  0  0  0  0  0  0  0  0  0
    2.0101  -10.6598  -28.1560 O   0  5  0  0  0  0  0  0  0  0  0  0
    5.4511   -9.0396  -31.2069 O   0  5  0  0  0  0  0  0  0  0  0  0
    6.3284  -15.7180  -26.8759 O   0  0  0  0  0  0  0  0  0  0  0  0
    3.4413   -9.0409  -28.1954 O   0  0  0  0  0  0  0  0  0  0  0  0
    3.6413   -8.5241  -32.2784 O   0  0  0  0  0  0  0  0  0  0  0  0
    5.7387  -12.1484  -28.2236 H   0  0  0  0  0  0  0  0  0  0  0  0
    4.8942  -10.5054  -29.4034 H   0  0  0  0  0  0  0  0  0  0  0  0
    4.2975  -16.1099  -28.4210 H   0  0  0  0  0  0  0  0  0  0  0  0
    2.5960  -10.4717  -31.2186 H   0  0  0  0  0  0  0  0  0  0  0  0
    4.0925  -11.3573  -31.6422 H   0  0  0  0  0  0  0  0  0  0  0  0
    2.4871  -15.3317  -29.7606 H   0  0  0  0  0  0  0  0  0  0  0  0
  1  3  1  0  0  0  0
  1  4  1  0  0  0  0
  1  5  1  0  0  0  0
  2  3  2  0  0  0  0
  2  8  1  0  0  0  0
  2  6  1  0  0  0  0
  3 19  1  0  0  0  0
  4  7  1  0  0  0  0
  4 10  1  0  0  0  0
  4 20  1  1  0  0  0
  5  9  1  0  0  0  0
  5 12  2  0  0  0  0
  6  9  2  0  0  0  0
  6 21  1  0  0  0  0
  7 11  1  0  0  0  0
  7 22  1  0  0  0  0
  7 23  1  0  0  0  0
  8 13  1  0  0  0  0
  8 16  2  0  0  0  0
  9 24  1  0  0  0  0
 10 14  1  0  0  0  0
 10 17  2  0  0  0  0
 11 15  1  0  0  0  0
 11 18  2  0  0  0  0
M  CHG  3  13  -1  14  -1  15  -1
M  END
$$$$
