##########                                Name: HTS1710-02605154-01
##########                    Molecular_Weight:             357.363
##########                DOCK_Rotatable_Bonds:                   7
##########                       Formal_Charge:                  -2
##########                     HBond_Acceptors:                   7
##########                        HBond_Donors:                   3
##########                         Heavy_Atoms:                  26
##########                          Grid_Score:          -80.321686
##########                     Grid_vdw_energy:          -42.396786
##########                      Grid_es_energy:          -37.924904
##########           Internal_energy_repulsive:            9.335711

@<TRIPOS>MOLECULE
HTS1710-02605154-01
 45 47 1 0 0
SMALL
USER_CHARGES


@<TRIPOS>ATOM
      1 C           3.9924  -10.2694  -30.8840 C.2     1  UNL1        0.0538
      2 C           4.4747   -7.5588  -31.4353 C.2     1  UNL1       -0.0555
      3 C           5.0554   -8.4822  -32.2870 C.2     1  UNL1       -0.1091
      4 C           3.4871   -9.2579  -30.1125 C.2     1  UNL1       -0.0306
      5 O           3.5952   -7.9313  -30.4457 O.co2   1  UNL1       -0.7688
      6 C           4.6725   -9.9341  -32.2125 C.3     1  UNL1        0.0283
      7 C           3.9344  -11.7595  -30.5816 C.2     1  UNL1        0.3369
      8 C           4.7766   -6.1273  -31.5634 C.2     1  UNL1        0.1708
      9 O           5.9539   -8.1596  -33.2854 O.co2   1  UNL1       -0.7839
     10 C           5.7264   -5.8302  -32.6343 C.2     1  UNL1       -0.0241
     11 C           6.2632   -6.8240  -33.4232 C.2     1  UNL1       -0.0886
     12 O           3.5584  -12.0688  -29.3031 O.3     1  UNL1       -0.4586
     13 O           4.2231  -12.6093  -31.4103 O.2     1  UNL1       -0.2453
     14 C           3.7786  -10.3123  -33.3935 C.ar    1  UNL1       -0.0365
     15 N           2.8141   -9.4851  -28.9350 N.pl3   1  UNL1       -0.3685
     16 O           4.2897   -5.2661  -30.8504 O.2     1  UNL1       -0.2886
     17 C           7.2379   -6.4705  -34.5144 C.3     1  UNL1        0.0566
     18 C           3.7606  -13.3933  -28.7626 C.3     1  UNL1        0.0978
     19 O           6.6892   -6.7507  -35.7981 O.3     1  UNL1       -0.3915
     20 C           2.3868  -10.0955  -33.3340 C.ar    1  UNL1       -0.0577
     21 C           4.3370  -10.8762  -34.5571 C.ar    1  UNL1       -0.0577
     22 C           2.6768  -13.6758  -27.6929 C.3     1  UNL1       -0.0280
     23 C           5.1815  -13.4326  -28.1604 C.3     1  UNL1       -0.0280
     24 C           3.5167  -11.2216  -35.6425 C.ar    1  UNL1       -0.0615
     25 C           1.5676  -10.4422  -34.4194 C.ar    1  UNL1       -0.0615
     26 C           2.1314  -11.0056  -35.5751 C.ar    1  UNL1       -0.0617
     27 H           5.5708  -10.5129  -32.2663 H       1  UNL1        0.0437
     28 H           6.0021   -4.8502  -32.8038 H       1  UNL1        0.0647
     29 H           2.3494   -8.7443  -28.4827 H       1  UNL1        0.1413
     30 H           2.7970  -10.3886  -28.5442 H       1  UNL1        0.1413
     31 H           8.1325   -7.0428  -34.3835 H       1  UNL1        0.0596
     32 H           7.4512   -5.4236  -34.4555 H       1  UNL1        0.0596
     33 H           3.6748  -14.1486  -29.5156 H       1  UNL1        0.0728
     34 H           6.4770   -7.6951  -35.8599 H       1  UNL1        0.2098
     35 H           1.9681   -9.6797  -32.4874 H       1  UNL1        0.0621
     36 H           5.3550  -11.0363  -34.6120 H       1  UNL1        0.0621
     37 H           2.7351  -12.9359  -26.9221 H       1  UNL1        0.0265
     38 H           2.8377  -14.6452  -27.2696 H       1  UNL1        0.0265
     39 H           1.7090  -13.6413  -28.1480 H       1  UNL1        0.0265
     40 H           5.2706  -12.6781  -27.4069 H       1  UNL1        0.0265
     41 H           5.9009  -13.2528  -28.9319 H       1  UNL1        0.0265
     42 H           5.3580  -14.3941  -27.7252 H       1  UNL1        0.0265
     43 H           3.9327  -11.6351  -36.4916 H       1  UNL1        0.0618
     44 H           0.5494  -10.2827  -34.3680 H       1  UNL1        0.0618
     45 H           1.5287  -11.2603  -36.3732 H       1  UNL1        0.0618
@<TRIPOS>BOND
     1     1     4    2
     2     1     6    1
     3     1     7    1
     4     2     3    2
     5     2     5    1
     6     2     8    1
     7     3     6    1
     8     3     9    1
     9     4     5    1
    10     4    15    1
    11     6    14    1
    12     7    12    1
    13     7    13    2
    14     8    10    1
    15     8    16    2
    16     9    11    1
    17    10    11    2
    18    11    17    1
    19    12    18    1
    20    14    20   ar
    21    14    21   ar
    22    17    19    1
    23    18    22    1
    24    18    23    1
    25    20    25   ar
    26    21    24   ar
    27    24    26   ar
    28    25    26   ar
    29     6    27    1
    30    10    28    1
    31    15    29    1
    32    15    30    1
    33    17    31    1
    34    17    32    1
    35    18    33    1
    36    19    34    1
    37    20    35    1
    38    21    36    1
    39    22    37    1
    40    22    38    1
    41    22    39    1
    42    23    40    1
    43    23    41    1
    44    23    42    1
    45    24    43    1
    46    25    44    1
    47    26    45    1
@<TRIPOS>SUBSTRUCTURE
     1 UNL1        1 TEMP              0 ****  ****    0 ROOT


