##########                                Name: HTS1710-02531377-01
##########                    Molecular_Weight:             360.409
##########                DOCK_Rotatable_Bonds:                  10
##########                       Formal_Charge:                  -2
##########                     HBond_Acceptors:                   9
##########                        HBond_Donors:                   0
##########                         Heavy_Atoms:                  23
##########                          Grid_Score:          -75.964218
##########                     Grid_vdw_energy:          -41.294506
##########                      Grid_es_energy:          -34.669708
##########           Internal_energy_repulsive:           12.264210

@<TRIPOS>MOLECULE
HTS1710-02531377-01
 39 39 1 0 0
SMALL
USER_CHARGES


@<TRIPOS>ATOM
      1 C           3.9238  -10.8657  -30.6911 C.ar    1  UNL1        0.2035
      2 C           2.8278  -10.4639  -33.2827 C.ar    1  UNL1       -0.0175
      3 C           4.3525   -9.7725  -31.5028 C.ar    1  UNL1        0.1655
      4 C           2.9316  -11.7556  -31.2060 C.ar    1  UNL1        0.1655
      5 C           2.2215  -10.2457  -34.6637 C.3     1  UNL1        0.0767
      6 C           3.7966   -9.5866  -32.7780 C.ar    1  UNL1       -0.0110
      7 C           2.4061  -11.5433  -32.4990 C.ar    1  UNL1       -0.0110
      8 S           0.3789  -10.1937  -34.5540 S.3     1  UNL1       -0.1360
      9 S           2.8180  -11.5247  -35.8524 S.3     1  UNL1       -0.1360
     10 C           4.7230   -9.5321  -36.3926 C.2     1  UNL1        0.0516
     11 C          -1.0964   -7.9419  -33.7538 C.2     1  UNL1        0.0516
     12 O           4.1837   -9.1308  -37.4090 O.co2   1  UNL1       -0.5490
     13 O          -2.2191   -7.9373  -34.2277 O.co2   1  UNL1       -0.5490
     14 C           0.0551   -8.3767  -34.6674 C.3     1  UNL1        0.0346
     15 C           4.5869  -11.0219  -36.0571 C.3     1  UNL1        0.0346
     16 O           4.4873  -11.0181  -29.4282 O.3     1  UNL1       -0.4885
     17 O           5.3078   -8.8349  -31.1282 O.3     1  UNL1       -0.4913
     18 O           2.4788  -12.8243  -30.4509 O.3     1  UNL1       -0.4913
     19 O          -0.8086   -7.6325  -32.6111 O.co2   1  UNL1       -0.5490
     20 O           5.3632   -8.8465  -35.6149 O.co2   1  UNL1       -0.5490
     21 C           4.5653  -12.2184  -28.6399 C.3     1  UNL1        0.0791
     22 C           5.4758   -7.5070  -31.6552 C.3     1  UNL1        0.0790
     23 C           1.5669  -13.8251  -30.9378 C.3     1  UNL1        0.0790
     24 H           2.5459   -9.2982  -35.0405 H       1  UNL1        0.0575
     25 H           4.1072   -8.7890  -33.3545 H       1  UNL1        0.0659
     26 H           1.6988  -12.1955  -32.8724 H       1  UNL1        0.0659
     27 H          -0.1948   -8.1326  -35.6788 H       1  UNL1        0.0437
     28 H           0.9393   -7.8626  -34.3531 H       1  UNL1        0.0437
     29 H           5.0202  -11.5959  -36.8495 H       1  UNL1        0.0437
     30 H           5.0917  -11.2006  -35.1307 H       1  UNL1        0.0437
     31 H           5.0585  -12.0059  -27.7144 H       1  UNL1        0.0660
     32 H           5.1175  -12.9618  -29.1758 H       1  UNL1        0.0660
     33 H           3.5779  -12.5805  -28.4429 H       1  UNL1        0.0660
     34 H           6.2982   -7.0299  -31.1645 H       1  UNL1        0.0660
     35 H           4.5833   -6.9412  -31.4873 H       1  UNL1        0.0660
     36 H           5.6707   -7.5623  -32.7059 H       1  UNL1        0.0660
     37 H           1.3745  -14.5389  -30.1642 H       1  UNL1        0.0660
     38 H           1.9992  -14.3213  -31.7815 H       1  UNL1        0.0660
     39 H           0.6489  -13.3594  -31.2298 H       1  UNL1        0.0660
@<TRIPOS>BOND
     1     1     3   ar
     2     1     4   ar
     3     1    16    1
     4     2     5    1
     5     2     6   ar
     6     2     7   ar
     7     3     6   ar
     8     3    17    1
     9     4     7   ar
    10     4    18    1
    11     5     8    1
    12     5     9    1
    13     8    14    1
    14     9    15    1
    15    10    12   ar
    16    10    15    1
    17    10    20   ar
    18    11    13   ar
    19    11    14    1
    20    11    19   ar
    21    16    21    1
    22    17    22    1
    23    18    23    1
    24     5    24    1
    25     6    25    1
    26     7    26    1
    27    14    27    1
    28    14    28    1
    29    15    29    1
    30    15    30    1
    31    21    31    1
    32    21    32    1
    33    21    33    1
    34    22    34    1
    35    22    35    1
    36    22    36    1
    37    23    37    1
    38    23    38    1
    39    23    39    1
@<TRIPOS>SUBSTRUCTURE
     1 UNL1        1 TEMP              0 ****  ****    0 ROOT


