##########                                Name: HTS1710-01227825-01
##########                    Molecular_Weight:             416.349
##########                DOCK_Rotatable_Bonds:                   6
##########                       Formal_Charge:                  -2
##########                     HBond_Acceptors:                  10
##########                        HBond_Donors:                   0
##########                         Heavy_Atoms:                  31
##########                          Grid_Score:          -79.880104
##########                     Grid_vdw_energy:          -44.684414
##########                      Grid_es_energy:          -35.195690
##########           Internal_energy_repulsive:            6.129000

@<TRIPOS>MOLECULE
HTS1710-01227825-01
 43 46 1 0 0
SMALL
USER_CHARGES


@<TRIPOS>ATOM
      1 C           1.2485   -8.6685  -33.7361 C.2     1  UNL1        0.0647
      2 C           1.3961   -8.9656  -35.1593 C.2     1  UNL1        0.1166
      3 C           2.9906  -10.2157  -32.4362 C.3     1  UNL1        0.1021
      4 C           4.0166   -9.8211  -31.3906 C.2     1  UNL1        0.0978
      5 N           0.4314   -8.2739  -35.7675 N.2     1  UNL1       -0.1700
      6 N           4.0704  -10.5976  -30.3639 N.2     1  UNL1       -0.1744
      7 N          -0.2855   -7.5462  -34.8659 N.am    1  UNL1       -0.1561
      8 N           3.1445  -11.5904  -30.5128 N.am    1  UNL1       -0.1597
      9 C           0.1589   -7.7071  -33.5832 C.2     1  UNL1        0.2723
     10 C           2.4405  -11.4350  -31.7017 C.2     1  UNL1        0.2522
     11 C           1.8973   -9.1777  -32.6330 C.2     1  UNL1       -0.0520
     12 C           2.3782   -9.7625  -35.9509 C.2     1  UNL1        0.0921
     13 C           4.8815   -8.5953  -31.4482 C.2     1  UNL1        0.0883
     14 C          -1.3411   -6.7075  -35.3339 C.ar    1  UNL1        0.0603
     15 C           2.9675  -12.6252  -29.5452 C.ar    1  UNL1        0.0600
     16 O          -0.2908   -7.1981  -32.5698 O.2     1  UNL1       -0.2678
     17 O           1.5127  -12.1303  -32.0810 O.2     1  UNL1       -0.2724
     18 O           4.6762   -7.7914  -32.3434 O.co2   1  UNL1       -0.5433
     19 O           3.5511   -9.4360  -35.8628 O.co2   1  UNL1       -0.5430
     20 O           5.7461   -8.4811  -30.5976 O.co2   1  UNL1       -0.5433
     21 O           1.9961  -10.7067  -36.6104 O.co2   1  UNL1       -0.5430
     22 C          -1.0686   -5.6356  -36.2085 C.ar    1  UNL1       -0.0384
     23 C          -2.6715   -6.9406  -34.9281 C.ar    1  UNL1       -0.0384
     24 C           2.7943  -13.9607  -29.9650 C.ar    1  UNL1       -0.0384
     25 C           2.9458  -12.3321  -28.1655 C.ar    1  UNL1       -0.0384
     26 C          -3.7093   -6.1121  -35.3864 C.ar    1  UNL1       -0.0599
     27 C           2.6177  -14.9854  -29.0214 C.ar    1  UNL1       -0.0599
     28 C           2.7695  -13.3589  -27.2238 C.ar    1  UNL1       -0.0599
     29 C          -2.1079   -4.8105  -36.6665 C.ar    1  UNL1       -0.0599
     30 C           2.6073  -14.6861  -27.6508 C.ar    1  UNL1       -0.0616
     31 C          -3.4288   -5.0468  -36.2549 C.ar    1  UNL1       -0.0616
     32 H           3.3740  -10.3524  -33.4258 H       1  UNL1        0.0504
     33 H           1.5696   -8.7641  -31.7461 H       1  UNL1        0.0591
     34 H          -0.0993   -5.4566  -36.5138 H       1  UNL1        0.0637
     35 H          -2.8839   -7.7243  -34.2910 H       1  UNL1        0.0637
     36 H           2.7974  -14.1860  -30.9721 H       1  UNL1        0.0637
     37 H           3.0601  -11.3574  -27.8463 H       1  UNL1        0.0637
     38 H          -4.6801   -6.2874  -35.0834 H       1  UNL1        0.0618
     39 H           2.4953  -15.9604  -29.3366 H       1  UNL1        0.0618
     40 H           2.7592  -13.1373  -26.2160 H       1  UNL1        0.0618
     41 H          -1.9002   -4.0284  -37.3071 H       1  UNL1        0.0618
     42 H           2.4807  -15.4403  -26.9578 H       1  UNL1        0.0618
     43 H          -4.1918   -4.4383  -36.5904 H       1  UNL1        0.0618
@<TRIPOS>BOND
     1     1     2    1
     2     3    11    1
     3     3     4    1
     4     2     5    2
     5     4     6    2
     6     7     9   am
     7     8    10   am
     8     1     9    1
     9     3    10    1
    10     1    11    2
    11     2    12    1
    12     4    13    1
    13     7    14    1
    14     8    15    1
    15     9    16    2
    16    10    17    2
    17    13    18   ar
    18    12    19   ar
    19    13    20   ar
    20    12    21   ar
    21    14    22   ar
    22    14    23   ar
    23    15    24   ar
    24    15    25   ar
    25    23    26   ar
    26    24    27   ar
    27    25    28   ar
    28    22    29   ar
    29    28    30   ar
    30    26    31   ar
    31     5     7    1
    32     6     8    1
    33    29    31   ar
    34    27    30   ar
    35     3    32    1
    36    11    33    1
    37    22    34    1
    38    23    35    1
    39    24    36    1
    40    25    37    1
    41    26    38    1
    42    27    39    1
    43    28    40    1
    44    29    41    1
    45    30    42    1
    46    31    43    1
@<TRIPOS>SUBSTRUCTURE
     1 UNL1        1 TEMP              0 ****  ****    0 ROOT


