##########                                Name: HTS1710-04750800-01
##########                    Molecular_Weight:             304.326
##########                DOCK_Rotatable_Bonds:                   6
##########                       Formal_Charge:                  -2
##########                     HBond_Acceptors:                   7
##########                        HBond_Donors:                   1
##########                         Heavy_Atoms:                  22
##########                          Grid_Score:          -74.970779
##########                     Grid_vdw_energy:          -38.232475
##########                      Grid_es_energy:          -36.738308
##########           Internal_energy_repulsive:           10.127647

@<TRIPOS>MOLECULE
HTS1710-04750800-01
 40 41 1 0 0
SMALL
USER_CHARGES


@<TRIPOS>ATOM
      1 C           4.7860  -12.9946  -29.8623 C.3     1  UNL1       -0.0463
      2 C           3.8594  -12.4838  -30.9883 C.3     1  UNL1        0.0246
      3 C           3.6769  -13.5490  -32.1031 C.3     1  UNL1       -0.0060
      4 C           2.6451  -13.1355  -33.1325 C.ar    1  UNL1       -0.0024
      5 C           1.2458  -13.3533  -33.0245 C.ar    1  UNL1        0.0634
      6 C           0.5996  -14.0106  -31.8304 C.3     1  UNL1       -0.0203
      7 N           0.6179  -12.9147  -34.1038 N.ar    1  UNL1       -0.1762
      8 N           1.6193  -12.4139  -34.9133 N.ar    1  UNL1       -0.2711
      9 C           1.2998  -11.8485  -36.2287 C.3     1  UNL1        0.0305
     10 C           2.8741  -12.5353  -34.3322 C.ar    1  UNL1        0.0393
     11 C           4.2125  -12.1484  -34.9090 C.3     1  UNL1       -0.0224
     12 N           4.4385  -11.2597  -31.5613 N.am    1  UNL1       -0.3094
     13 C           4.5319  -10.0615  -30.8612 C.2     1  UNL1        0.2304
     14 O           4.1125   -9.9893  -29.7173 O.2     1  UNL1       -0.2715
     15 C           5.1353   -8.9059  -31.5531 C.2     1  UNL1       -0.0302
     16 C           5.3292   -8.8139  -32.9084 C.2     1  UNL1       -0.0558
     17 C           5.9402   -7.5497  -33.1070 C.2     1  UNL1       -0.0170
     18 C           6.0516   -7.0120  -31.8503 C.2     1  UNL1       -0.1247
     19 O           5.5682   -7.8109  -30.8457 O.co2   1  UNL1       -0.7816
     20 C           6.3647   -6.9401  -34.3823 C.2     1  UNL1        0.0706
     21 O           6.7293   -5.7771  -34.3570 O.co2   1  UNL1       -0.5447
     22 O           6.3242   -7.6381  -35.3801 O.co2   1  UNL1       -0.5447
     23 H           4.3735  -13.8862  -29.4379 H       1  UNL1        0.0248
     24 H           4.8718  -12.2451  -29.1036 H       1  UNL1        0.0248
     25 H           5.7541  -13.2064  -30.2657 H       1  UNL1        0.0248
     26 H           2.8951  -12.2811  -30.5712 H       1  UNL1        0.0499
     27 H           3.3642  -14.4679  -31.6528 H       1  UNL1        0.0332
     28 H           4.6147  -13.6588  -32.6065 H       1  UNL1        0.0332
     29 H           1.3509  -14.2603  -31.1107 H       1  UNL1        0.0293
     30 H           0.0950  -14.9009  -32.1430 H       1  UNL1        0.0293
     31 H          -0.1056  -13.3366  -31.3906 H       1  UNL1        0.0293
     32 H           0.2431  -11.8962  -36.3903 H       1  UNL1        0.0473
     33 H           1.8026  -12.4085  -36.9893 H       1  UNL1        0.0473
     34 H           1.6206  -10.8283  -36.2659 H       1  UNL1        0.0473
     35 H           4.0702  -11.6949  -35.8676 H       1  UNL1        0.0292
     36 H           4.8215  -13.0218  -35.0146 H       1  UNL1        0.0292
     37 H           4.6958  -11.4537  -34.2540 H       1  UNL1        0.0292
     38 H           4.7765  -11.2897  -32.4855 H       1  UNL1        0.1493
     39 H           5.0836   -9.5128  -33.6269 H       1  UNL1        0.0620
     40 H           6.4651   -6.0829  -31.6749 H       1  UNL1        0.0461
@<TRIPOS>BOND
     1     1     2    1
     2     2     3    1
     3     3     4    1
     4     4     5   ar
     5     5     6    1
     6     5     7   ar
     7     7     8   ar
     8     8     9    1
     9     8    10   ar
    10     4    10   ar
    11    10    11    1
    12     2    12    1
    13    12    13   am
    14    13    14    2
    15    13    15    1
    16    15    16    2
    17    16    17    1
    18    17    18    2
    19    18    19    1
    20    15    19    1
    21    17    20    1
    22    20    21   ar
    23    20    22   ar
    24     1    23    1
    25     1    24    1
    26     1    25    1
    27     2    26    1
    28     3    27    1
    29     3    28    1
    30     6    29    1
    31     6    30    1
    32     6    31    1
    33     9    32    1
    34     9    33    1
    35     9    34    1
    36    11    35    1
    37    11    36    1
    38    11    37    1
    39    12    38    1
    40    16    39    1
    41    18    40    1
@<TRIPOS>SUBSTRUCTURE
     1 UNL1        1 TEMP              0 ****  ****    0 ROOT


