##########                                Name: HTS1710-01226712-01
##########                    Molecular_Weight:              384.39
##########                DOCK_Rotatable_Bonds:                   5
##########                       Formal_Charge:                  -2
##########                     HBond_Acceptors:                  11
##########                        HBond_Donors:                   4
##########                         Heavy_Atoms:                  25
##########                          Grid_Score:          -81.213737
##########                     Grid_vdw_energy:          -41.560833
##########                      Grid_es_energy:          -39.652905
##########           Internal_energy_repulsive:           16.955929

@<TRIPOS>MOLECULE
HTS1710-01226712-01
 37 38 1 0 0
SMALL
USER_CHARGES


@<TRIPOS>ATOM
      1 S           3.6960   -9.0817  -29.9928 S.3     1  UNL1       -0.0505
      2 S           4.3843  -10.1352  -36.0506 S.3     1  UNL1       -0.0509
      3 C           3.5965  -10.8852  -29.7890 C.ar    1  UNL1        0.0888
      4 C           3.9012  -11.7830  -30.8477 C.ar    1  UNL1        0.0416
      5 C           2.8050  -10.0578  -35.1445 C.ar    1  UNL1        0.0819
      6 C           4.3178  -11.3231  -32.2188 C.2     1  UNL1        0.1693
      7 C           2.5438  -10.8535  -33.9929 C.ar    1  UNL1       -0.0160
      8 C           3.5348  -11.8757  -33.4219 C.3     1  UNL1        0.0375
      9 C           3.2036  -11.4086  -28.5374 C.ar    1  UNL1       -0.0165
     10 O           3.1806   -8.5882  -28.7124 O.co2   1  UNL1       -0.7201
     11 O           4.1776   -9.1544  -37.1207 O.co2   1  UNL1       -0.7202
     12 C           1.8173   -9.1485  -35.5863 C.ar    1  UNL1       -0.0169
     13 C           3.8057  -13.1705  -30.6267 C.ar    1  UNL1       -0.0477
     14 O           5.1188   -8.8140  -30.2244 O.2     1  UNL1       -0.1803
     15 O           2.8266   -8.8295  -31.1444 O.2     1  UNL1       -0.1803
     16 O           4.4849  -11.5265  -36.5016 O.2     1  UNL1       -0.1803
     17 O           5.3728   -9.7424  -35.0424 O.2     1  UNL1       -0.1803
     18 O           5.2045  -10.4997  -32.3643 O.2     1  UNL1       -0.2916
     19 C           1.3158  -10.7023  -33.3177 C.ar    1  UNL1       -0.0546
     20 C           3.1186  -12.7944  -28.3313 C.ar    1  UNL1        0.0264
     21 C           0.5962   -9.0201  -34.9056 C.ar    1  UNL1        0.0263
     22 C           3.4205  -13.6756  -29.3771 C.ar    1  UNL1       -0.0403
     23 N           2.7365  -13.2850  -27.1051 N.pl3   1  UNL1       -0.3579
     24 N          -0.3499   -8.1257  -35.3472 N.pl3   1  UNL1       -0.3579
     25 C           0.3483   -9.7970  -33.7684 C.ar    1  UNL1       -0.0407
     26 H           4.2296  -12.1466  -34.1892 H       1  UNL1        0.0394
     27 H           2.9734  -12.7221  -33.0854 H       1  UNL1        0.0394
     28 H           2.9762  -10.7638  -27.7644 H       1  UNL1        0.0655
     29 H           1.9965   -8.5701  -36.4220 H       1  UNL1        0.0655
     30 H           4.0223  -13.8244  -31.3952 H       1  UNL1        0.0626
     31 H           1.1267  -11.2692  -32.4763 H       1  UNL1        0.0622
     32 H           3.3595  -14.6950  -29.2280 H       1  UNL1        0.0636
     33 H           2.5245  -12.6643  -26.3708 H       1  UNL1        0.1423
     34 H           2.6748  -14.2571  -26.9613 H       1  UNL1        0.1423
     35 H          -1.2055   -8.0376  -34.8681 H       1  UNL1        0.1423
     36 H          -0.1720   -7.5735  -36.1425 H       1  UNL1        0.1423
     37 H          -0.5464   -9.7024  -33.2629 H       1  UNL1        0.0636
@<TRIPOS>BOND
     1     2     5    1
     2     1     3    1
     3     3     4   ar
     4     5     7   ar
     5     4     6    1
     6     7     8    1
     7     6     8    1
     8     3     9   ar
     9     1    10    1
    10     2    11    1
    11     5    12   ar
    12     4    13   ar
    13     1    14    2
    14     1    15    2
    15     2    16    2
    16     2    17    2
    17     6    18    2
    18     7    19   ar
    19     9    20   ar
    20    21    25   ar
    21    20    22   ar
    22    20    23    1
    23    21    24    1
    24    19    25   ar
    25    13    22   ar
    26    12    21   ar
    27     8    26    1
    28     8    27    1
    29     9    28    1
    30    12    29    1
    31    13    30    1
    32    19    31    1
    33    22    32    1
    34    23    33    1
    35    23    34    1
    36    24    35    1
    37    24    36    1
    38    25    37    1
@<TRIPOS>SUBSTRUCTURE
     1 UNL1        1 TEMP              0 ****  ****    0 ROOT


