HTS1710-03300162-01
 OpenBabel03232612363D

 52 54  0  0  1  0  0  0  0  0999 V2000
    4.0556  -11.0514  -29.8273 C   0  0  0  0  0  0  0  0  0  0  0  0
    4.9207  -10.3371  -31.8924 N   0  0  0  0  0  0  0  0  0  0  0  0
    4.2375   -9.7116  -29.8220 C   0  0  0  0  0  0  0  0  0  0  0  0
    4.7712   -9.2179  -31.0986 C   0  0  0  0  0  0  0  0  0  0  0  0
    4.4016  -11.5605  -31.2346 C   0  0  2  0  0  0  0  0  0  0  0  0
    3.5469  -12.0208  -28.7947 C   0  0  0  0  0  0  0  0  0  0  0  0
    3.2026  -12.1505  -31.9744 C   0  0  0  0  0  0  0  0  0  0  0  0
    4.3906  -13.1838  -28.4136 C   0  0  0  0  0  0  0  0  0  0  0  0
    2.3455  -11.3090  -32.7061 C   0  0  0  0  0  0  0  0  0  0  0  0
    1.2371  -11.8444  -33.3989 C   0  0  0  0  0  0  0  0  0  0  0  0
    5.0385   -8.0689  -31.4043 O   0  0  0  0  0  0  0  0  0  0  0  0
    5.5509  -12.9693  -27.7087 O   0  0  0  0  0  0  0  0  0  0  0  0
    2.9458  -13.5336  -31.9293 C   0  0  0  0  0  0  0  0  0  0  0  0
    2.4457  -11.8682  -28.2951 O   0  0  0  0  0  0  0  0  0  0  0  0
    0.9870  -13.2297  -33.3383 C   0  0  0  0  0  0  0  0  0  0  0  0
    4.1024  -14.5164  -28.5979 C   0  0  0  0  0  0  0  0  0  0  0  0
    3.9189   -8.8343  -28.8432 O   0  5  0  0  0  0  0  0  0  0  0  0
    6.0017  -14.2460  -27.5035 C   0  0  0  0  0  0  0  0  0  0  0  0
    5.1798  -15.2171  -28.0065 C   0  0  0  0  0  0  0  0  0  0  0  0
    1.8406  -14.0687  -32.6068 C   0  0  0  0  0  0  0  0  0  0  0  0
    5.4035  -10.3602  -33.2831 C   0  0  0  0  0  0  0  0  0  0  0  0
    0.3689  -11.0498  -34.1297 O   0  0  0  0  0  0  0  0  0  0  0  0
   -0.0848  -13.7642  -33.9961 O   0  0  0  0  0  0  0  0  0  0  0  0
    2.8126  -11.6715  -37.0629 O   0  0  0  0  0  0  0  0  0  0  0  0
    5.2315   -9.3664  -35.5231 O   0  0  0  0  0  0  0  0  0  0  0  0
    4.8868   -9.1741  -34.1363 C   0  0  0  0  0  0  0  0  0  0  0  0
    3.8494  -11.2421  -36.1858 C   0  0  0  0  0  0  0  0  0  0  0  0
    0.6864   -9.7300  -34.6179 C   0  0  0  0  0  0  0  0  0  0  0  0
    4.1376   -9.7409  -36.3868 C   0  0  0  0  0  0  0  0  0  0  0  0
   -0.0804   -8.6775  -33.7846 C   0  0  0  0  0  0  0  0  0  0  0  0
    5.0978  -12.3729  -31.2221 H   0  0  0  0  0  0  0  0  0  0  0  0
    2.5275  -10.2937  -32.7369 H   0  0  0  0  0  0  0  0  0  0  0  0
    3.5729  -14.1560  -31.3960 H   0  0  0  0  0  0  0  0  0  0  0  0
    3.2764  -14.9190  -29.0676 H   0  0  0  0  0  0  0  0  0  0  0  0
    6.8845  -14.4572  -27.0124 H   0  0  0  0  0  0  0  0  0  0  0  0
    5.3161  -16.2392  -27.9637 H   0  0  0  0  0  0  0  0  0  0  0  0
    1.6546  -15.0831  -32.5671 H   0  0  0  0  0  0  0  0  0  0  0  0
    5.0791  -11.2721  -33.7392 H   0  0  0  0  0  0  0  0  0  0  0  0
    6.4700  -10.2814  -33.2475 H   0  0  0  0  0  0  0  0  0  0  0  0
   -0.6265  -13.2176  -34.5308 H   0  0  0  0  0  0  0  0  0  0  0  0
    2.7150  -12.6346  -37.0011 H   0  0  0  0  0  0  0  0  0  0  0  0
    5.3316   -8.2666  -33.7849 H   0  0  0  0  0  0  0  0  0  0  0  0
    3.8220   -9.1196  -34.0472 H   0  0  0  0  0  0  0  0  0  0  0  0
    4.7381  -11.8020  -36.3900 H   0  0  0  0  0  0  0  0  0  0  0  0
    3.5371  -11.4028  -35.1751 H   0  0  0  0  0  0  0  0  0  0  0  0
    0.3990   -9.6505  -35.6455 H   0  0  0  0  0  0  0  0  0  0  0  0
    1.7389   -9.5591  -34.5293 H   0  0  0  0  0  0  0  0  0  0  0  0
    4.4038   -9.5575  -37.4069 H   0  0  0  0  0  0  0  0  0  0  0  0
    3.2679   -9.1648  -36.1487 H   0  0  0  0  0  0  0  0  0  0  0  0
   -1.1327   -8.8493  -33.8740 H   0  0  0  0  0  0  0  0  0  0  0  0
    0.1530   -7.6976  -34.1457 H   0  0  0  0  0  0  0  0  0  0  0  0
    0.2079   -8.7570  -32.7572 H   0  0  0  0  0  0  0  0  0  0  0  0
  1  3  2  0  0  0  0
  1  5  1  0  0  0  0
  1  6  1  0  0  0  0
  2  4  1  0  0  0  0
  2  5  1  0  0  0  0
  2 21  1  0  0  0  0
  3  4  1  0  0  0  0
  3 17  1  0  0  0  0
  4 11  2  0  0  0  0
  5  7  1  0  0  0  0
  5 31  1  1  0  0  0
  6  8  1  0  0  0  0
  6 14  2  0  0  0  0
  7  9  2  0  0  0  0
  7 13  1  0  0  0  0
  8 12  1  0  0  0  0
  8 16  2  0  0  0  0
  9 10  1  0  0  0  0
  9 32  1  0  0  0  0
 10 15  2  0  0  0  0
 10 22  1  0  0  0  0
 12 18  1  0  0  0  0
 13 20  2  0  0  0  0
 13 33  1  0  0  0  0
 15 20  1  0  0  0  0
 15 23  1  0  0  0  0
 16 19  1  0  0  0  0
 16 34  1  0  0  0  0
 18 19  2  0  0  0  0
 18 35  1  0  0  0  0
 19 36  1  0  0  0  0
 20 37  1  0  0  0  0
 21 26  1  0  0  0  0
 21 38  1  0  0  0  0
 21 39  1  0  0  0  0
 22 28  1  0  0  0  0
 23 40  1  0  0  0  0
 24 27  1  0  0  0  0
 24 41  1  0  0  0  0
 25 26  1  0  0  0  0
 25 29  1  0  0  0  0
 26 42  1  0  0  0  0
 26 43  1  0  0  0  0
 27 29  1  0  0  0  0
 27 44  1  0  0  0  0
 27 45  1  0  0  0  0
 28 30  1  0  0  0  0
 28 46  1  0  0  0  0
 28 47  1  0  0  0  0
 29 48  1  0  0  0  0
 29 49  1  0  0  0  0
 30 50  1  0  0  0  0
 30 51  1  0  0  0  0
 30 52  1  0  0  0  0
M  CHG  1  17  -1
M  END
$$$$
