HTS1710-00860149-01
 OpenBabel03232612343D

 53 54  0  0  1  0  0  0  0  0999 V2000
    3.6355  -12.9374  -31.1451 C   0  0  0  0  0  0  0  0  0  0  0  0
    3.6055  -13.4599  -29.7527 C   0  0  0  0  0  0  0  0  0  0  0  0
    2.4105  -14.1325  -29.5718 C   0  0  0  0  0  0  0  0  0  0  0  0
    1.6386  -14.0541  -30.8423 C   0  0  0  0  0  0  0  0  0  0  0  0
    2.4214  -13.3072  -31.7142 N   0  0  0  0  0  0  0  0  0  0  0  0
    4.2505  -13.9594  -27.4903 C   0  0  0  0  0  0  0  0  0  0  0  0
    3.0275  -14.6493  -27.3043 C   0  0  0  0  0  0  0  0  0  0  0  0
    2.0890  -14.7415  -28.3536 C   0  0  0  0  0  0  0  0  0  0  0  0
    4.5522  -13.3553  -28.7281 C   0  0  0  0  0  0  0  0  0  0  0  0
    4.5464  -12.3310  -31.6807 O   0  0  0  0  0  0  0  0  0  0  0  0
    0.5435  -14.5390  -31.0714 O   0  0  0  0  0  0  0  0  0  0  0  0
    2.0423  -13.0235  -33.1115 C   0  0  0  0  0  0  0  0  0  0  0  0
    1.2343  -11.7064  -33.2497 C   0  0  0  0  0  0  0  0  0  0  0  0
    0.4607  -11.7173  -34.4647 O   0  0  0  0  0  0  0  0  0  0  0  0
    1.0670  -11.0653  -35.5971 C   0  0  0  0  0  0  0  0  0  0  0  0
    0.8988   -9.5540  -35.4658 C   0  0  0  0  0  0  0  0  0  0  0  0
   -0.2703   -9.0822  -34.8864 N   0  0  0  0  0  0  0  0  0  0  0  0
    1.7585   -8.7750  -35.8415 O   0  0  0  0  0  0  0  0  0  0  0  0
   -0.5335   -7.6493  -34.7118 C   0  0  2  0  0  0  0  0  0  0  0  0
   -0.2635   -7.2774  -33.2497 C   0  0  0  0  0  0  0  0  0  0  0  0
   -1.9932   -7.3477  -35.1154 C   0  0  0  0  0  0  0  0  0  0  0  0
   -1.1486   -7.3081  -32.4104 O   0  0  0  0  0  0  0  0  0  0  0  0
    1.0163   -6.8588  -32.9096 N   0  0  0  0  0  0  0  0  0  0  0  0
    1.3963   -6.4767  -31.5449 C   0  0  2  0  0  0  0  0  0  0  0  0
    1.1335   -4.9695  -31.3690 C   0  0  0  0  0  0  0  0  0  0  0  0
    1.1817   -4.2618  -32.3604 O   0  5  0  0  0  0  0  0  0  0  0  0
    0.8901   -4.5806  -30.2397 O   0  0  0  0  0  0  0  0  0  0  0  0
    2.8797   -6.8530  -31.2714 C   0  0  0  0  0  0  0  0  0  0  0  0
    3.1673   -8.3754  -31.3705 C   0  0  0  0  0  0  0  0  0  0  0  0
    4.6341   -8.7385  -31.0986 C   0  0  0  0  0  0  0  0  0  0  0  0
    5.3746   -8.8471  -32.0607 O   0  5  0  0  0  0  0  0  0  0  0  0
    4.9538   -8.9223  -29.9370 O   0  0  0  0  0  0  0  0  0  0  0  0
    4.9266  -13.8983  -26.7131 H   0  0  0  0  0  0  0  0  0  0  0  0
    2.8212  -15.0883  -26.3934 H   0  0  0  0  0  0  0  0  0  0  0  0
    1.1950  -15.2413  -28.2271 H   0  0  0  0  0  0  0  0  0  0  0  0
    5.4418  -12.8528  -28.8733 H   0  0  0  0  0  0  0  0  0  0  0  0
    1.4451  -13.8328  -33.4764 H   0  0  0  0  0  0  0  0  0  0  0  0
    2.9433  -12.9143  -33.6780 H   0  0  0  0  0  0  0  0  0  0  0  0
    1.9112  -10.8779  -33.2701 H   0  0  0  0  0  0  0  0  0  0  0  0
    0.5698  -11.6175  -32.4157 H   0  0  0  0  0  0  0  0  0  0  0  0
    2.1090  -11.3064  -35.6315 H   0  0  0  0  0  0  0  0  0  0  0  0
    0.5932  -11.3996  -36.4964 H   0  0  0  0  0  0  0  0  0  0  0  0
   -0.9458   -9.7305  -34.5822 H   0  0  0  0  0  0  0  0  0  0  0  0
    0.1082   -7.0632  -35.3361 H   0  0  0  0  0  0  0  0  0  0  0  0
   -2.6581   -7.9224  -34.5049 H   0  0  0  0  0  0  0  0  0  0  0  0
   -2.1398   -7.6061  -36.1432 H   0  0  0  0  0  0  0  0  0  0  0  0
   -2.1933   -6.3056  -34.9775 H   0  0  0  0  0  0  0  0  0  0  0  0
    1.6999   -6.8165  -33.6167 H   0  0  0  0  0  0  0  0  0  0  0  0
    0.8085   -7.0105  -30.8277 H   0  0  0  0  0  0  0  0  0  0  0  0
    3.1349   -6.5246  -30.2855 H   0  0  0  0  0  0  0  0  0  0  0  0
    3.4673   -6.3745  -32.0268 H   0  0  0  0  0  0  0  0  0  0  0  0
    2.9137   -8.7050  -32.3563 H   0  0  0  0  0  0  0  0  0  0  0  0
    2.5783   -8.8575  -30.6184 H   0  0  0  0  0  0  0  0  0  0  0  0
  1 10  2  0  0  0  0
  1  5  1  0  0  0  0
  1  2  1  0  0  0  0
  2  9  2  0  0  0  0
  2  3  1  0  0  0  0
  3  8  2  0  0  0  0
  3  4  1  0  0  0  0
  4  5  1  0  0  0  0
  4 11  2  0  0  0  0
  5 12  1  0  0  0  0
  6  9  1  0  0  0  0
  6  7  2  0  0  0  0
  6 33  1  0  0  0  0
  7  8  1  0  0  0  0
  7 34  1  0  0  0  0
  8 35  1  0  0  0  0
  9 36  1  0  0  0  0
 12 13  1  0  0  0  0
 12 37  1  0  0  0  0
 12 38  1  0  0  0  0
 13 14  1  0  0  0  0
 13 39  1  0  0  0  0
 13 40  1  0  0  0  0
 14 15  1  0  0  0  0
 15 16  1  0  0  0  0
 15 41  1  0  0  0  0
 15 42  1  0  0  0  0
 16 17  1  0  0  0  0
 16 18  2  0  0  0  0
 17 19  1  0  0  0  0
 17 43  1  0  0  0  0
 19 20  1  0  0  0  0
 19 21  1  0  0  0  0
 19 44  1  6  0  0  0
 20 22  2  0  0  0  0
 20 23  1  0  0  0  0
 21 45  1  0  0  0  0
 21 46  1  0  0  0  0
 21 47  1  0  0  0  0
 23 24  1  0  0  0  0
 23 48  1  0  0  0  0
 24 25  1  0  0  0  0
 24 28  1  0  0  0  0
 24 49  1  1  0  0  0
 25 26  1  0  0  0  0
 25 27  2  0  0  0  0
 28 29  1  0  0  0  0
 28 50  1  0  0  0  0
 28 51  1  0  0  0  0
 29 30  1  0  0  0  0
 29 52  1  0  0  0  0
 29 53  1  0  0  0  0
 30 31  1  0  0  0  0
 30 32  2  0  0  0  0
M  CHG  2  26  -1  31  -1
M  END
$$$$
