HTS1710-00636299-01
 OpenBabel03232612343D

 31 31  0  0  1  0  0  0  0  0999 V2000
    3.3232  -10.6880  -30.9053 C   0  0  0  0  0  0  0  0  0  0  0  0
    3.8461   -9.6197  -31.8762 C   0  0  2  0  0  0  0  0  0  0  0  0
    2.5651  -11.8391  -31.4656 C   0  0  0  0  0  0  0  0  0  0  0  0
    3.5608  -10.7380  -29.5740 C   0  0  0  0  0  0  0  0  0  0  0  0
    4.7249  -10.2705  -32.9889 C   0  0  0  0  0  0  0  0  0  0  0  0
    4.5310   -8.4619  -31.1191 C   0  0  0  0  0  0  0  0  0  0  0  0
    3.1331  -13.2033  -31.0577 C   0  0  0  0  0  0  0  0  0  0  0  0
    1.6716  -11.7211  -32.2878 O   0  0  0  0  0  0  0  0  0  0  0  0
    3.1012  -11.9472  -28.7754 C   0  0  0  0  0  0  0  0  0  0  0  0
    4.2542   -9.8222  -28.8811 O   0  5  0  0  0  0  0  0  0  0  0  0
    5.0209   -9.3319  -34.1708 C   0  0  0  0  0  0  0  0  0  0  0  0
    3.8169   -7.5348  -30.7768 O   0  5  0  0  0  0  0  0  0  0  0  0
    5.7302   -8.5361  -30.9087 O   0  0  0  0  0  0  0  0  0  0  0  0
    3.4759  -13.2798  -29.5174 C   0  0  0  0  0  0  0  0  0  0  0  0
    4.2044   -9.2983  -35.0749 O   0  5  0  0  0  0  0  0  0  0  0  0
    6.0433   -8.6696  -34.1189 O   0  0  0  0  0  0  0  0  0  0  0  0
    2.6971  -14.4547  -28.8615 C   0  0  0  0  0  0  0  0  0  0  0  0
    5.0009  -13.5395  -29.3460 C   0  0  0  0  0  0  0  0  0  0  0  0
    3.0191   -9.1694  -32.3845 H   0  0  0  0  0  0  0  0  0  0  0  0
    4.2132  -11.1329  -33.3623 H   0  0  0  0  0  0  0  0  0  0  0  0
    5.6653  -10.5159  -32.5412 H   0  0  0  0  0  0  0  0  0  0  0  0
    4.0269  -13.3842  -31.6176 H   0  0  0  0  0  0  0  0  0  0  0  0
    2.3853  -13.9410  -31.2615 H   0  0  0  0  0  0  0  0  0  0  0  0
    2.0395  -11.9020  -28.6498 H   0  0  0  0  0  0  0  0  0  0  0  0
    3.5893  -11.9356  -27.8232 H   0  0  0  0  0  0  0  0  0  0  0  0
    2.9447  -15.3688  -29.3595 H   0  0  0  0  0  0  0  0  0  0  0  0
    1.6454  -14.2763  -28.9456 H   0  0  0  0  0  0  0  0  0  0  0  0
    2.9651  -14.5275  -27.8281 H   0  0  0  0  0  0  0  0  0  0  0  0
    5.2670  -14.4460  -29.8483 H   0  0  0  0  0  0  0  0  0  0  0  0
    5.2330  -13.6271  -28.3052 H   0  0  0  0  0  0  0  0  0  0  0  0
    5.5511  -12.7239  -29.7667 H   0  0  0  0  0  0  0  0  0  0  0  0
  1  2  1  0  0  0  0
  1  3  1  0  0  0  0
  1  4  2  0  0  0  0
  2  5  1  0  0  0  0
  2  6  1  0  0  0  0
  2 19  1  6  0  0  0
  3  7  1  0  0  0  0
  3  8  2  0  0  0  0
  4  9  1  0  0  0  0
  4 10  1  0  0  0  0
  5 11  1  0  0  0  0
  5 20  1  0  0  0  0
  5 21  1  0  0  0  0
  6 12  1  0  0  0  0
  6 13  2  0  0  0  0
  7 14  1  0  0  0  0
  7 22  1  0  0  0  0
  7 23  1  0  0  0  0
  9 14  1  0  0  0  0
  9 24  1  0  0  0  0
  9 25  1  0  0  0  0
 11 15  1  0  0  0  0
 11 16  2  0  0  0  0
 14 17  1  0  0  0  0
 14 18  1  0  0  0  0
 17 26  1  0  0  0  0
 17 27  1  0  0  0  0
 17 28  1  0  0  0  0
 18 29  1  0  0  0  0
 18 30  1  0  0  0  0
 18 31  1  0  0  0  0
M  CHG  3  10  -1  12  -1  15  -1
M  END
$$$$
