##########                                Name: HTS1710-04762233-01
##########                    Molecular_Weight:             310.327
##########                DOCK_Rotatable_Bonds:                   8
##########                       Formal_Charge:                  -2
##########                     HBond_Acceptors:                   7
##########                        HBond_Donors:                   0
##########                         Heavy_Atoms:                  22
##########                          Grid_Score:          -78.584686
##########                     Grid_vdw_energy:          -39.895668
##########                      Grid_es_energy:          -38.689014
##########           Internal_energy_repulsive:           11.253120

@<TRIPOS>MOLECULE
HTS1710-04762233-01
 42 43 1 0 0
SMALL
USER_CHARGES


@<TRIPOS>ATOM
      1 C           2.3727  -10.3234  -36.2297 C.3     1  UNL1        0.0035
      2 N           3.2228  -11.0213  -35.2446 N.am    1  UNL1       -0.2994
      3 C           4.6797  -10.7877  -35.3796 C.3     1  UNL1        0.0266
      4 C           5.1491   -9.6227  -34.5481 C.2     1  UNL1       -0.0998
      5 C           4.8550   -9.4552  -33.2215 C.2     1  UNL1       -0.0630
      6 C           5.4641   -8.2222  -32.8657 C.2     1  UNL1       -0.0144
      7 C           5.4266   -7.5862  -31.5270 C.2     1  UNL1        0.0708
      8 O           5.1579   -6.3997  -31.4539 O.co2   1  UNL1       -0.5447
      9 O           5.6705   -8.2987  -30.5687 O.co2   1  UNL1       -0.5447
     10 C           6.0588   -7.7989  -34.0376 C.2     1  UNL1       -0.1120
     11 C           6.8379   -6.5193  -34.2165 C.3     1  UNL1       -0.0524
     12 O           5.9016   -8.6321  -35.1156 O.co2   1  UNL1       -0.7845
     13 C           2.6499  -11.8562  -34.2756 C.2     1  UNL1        0.2414
     14 O           1.4419  -12.0167  -34.1946 O.2     1  UNL1       -0.2731
     15 C           3.6184  -12.5604  -33.3059 C.3     1  UNL1        0.1239
     16 O           3.1140  -12.5202  -31.9547 O.3     1  UNL1       -0.3680
     17 C           3.6283  -13.5289  -31.0592 C.3     1  UNL1        0.0745
     18 C           2.7984  -13.5490  -29.7497 C.3     1  UNL1        0.0820
     19 C           2.9291  -14.8604  -28.9473 C.3     1  UNL1       -0.0224
     20 C           2.8616  -14.4144  -27.4741 C.3     1  UNL1       -0.0270
     21 C           2.7558  -12.8801  -27.5411 C.3     1  UNL1        0.0482
     22 O           3.3036  -12.5681  -28.8288 O.3     1  UNL1       -0.3743
     23 H           2.9880   -9.7382  -36.8807 H       1  UNL1        0.0429
     24 H           1.6854   -9.6830  -35.7174 H       1  UNL1        0.0429
     25 H           1.8287  -11.0433  -36.8047 H       1  UNL1        0.0429
     26 H           4.9032  -10.5898  -36.4072 H       1  UNL1        0.0502
     27 H           5.1862  -11.6640  -35.0325 H       1  UNL1        0.0502
     28 H           4.3103  -10.0865  -32.6134 H       1  UNL1        0.0615
     29 H           6.8681   -5.9874  -33.2886 H       1  UNL1        0.0266
     30 H           6.3629   -5.9135  -34.9597 H       1  UNL1        0.0266
     31 H           7.8353   -6.7497  -34.5281 H       1  UNL1        0.0266
     32 H           4.5679  -12.0682  -33.3402 H       1  UNL1        0.0657
     33 H           3.7167  -13.5834  -33.6038 H       1  UNL1        0.0657
     34 H           4.6498  -13.3097  -30.8281 H       1  UNL1        0.0586
     35 H           3.5604  -14.4860  -31.5325 H       1  UNL1        0.0586
     36 H           1.7924  -13.3890  -30.0771 H       1  UNL1        0.0619
     37 H           3.8623  -15.3407  -29.1556 H       1  UNL1        0.0292
     38 H           2.1663  -15.5687  -29.1951 H       1  UNL1        0.0292
     39 H           3.7455  -14.7101  -26.9485 H       1  UNL1        0.0288
     40 H           2.0391  -14.8569  -26.9521 H       1  UNL1        0.0288
     41 H           3.3264  -12.4220  -26.7604 H       1  UNL1        0.0560
     42 H           1.7551  -12.5233  -27.4138 H       1  UNL1        0.0560
@<TRIPOS>BOND
     1     1     2    1
     2     2     3    1
     3     3     4    1
     4     4     5    2
     5     5     6    1
     6     6     7    1
     7     7     8   ar
     8     7     9   ar
     9     6    10    2
    10    10    11    1
    11    10    12    1
    12     4    12    1
    13     2    13   am
    14    13    14    2
    15    13    15    1
    16    15    16    1
    17    16    17    1
    18    17    18    1
    19    18    19    1
    20    19    20    1
    21    20    21    1
    22    21    22    1
    23    18    22    1
    24     1    23    1
    25     1    24    1
    26     1    25    1
    27     3    26    1
    28     3    27    1
    29     5    28    1
    30    11    29    1
    31    11    30    1
    32    11    31    1
    33    15    32    1
    34    15    33    1
    35    17    34    1
    36    17    35    1
    37    18    36    1
    38    19    37    1
    39    19    38    1
    40    20    39    1
    41    20    40    1
    42    21    41    1
    43    21    42    1
@<TRIPOS>SUBSTRUCTURE
     1 UNL1        1 TEMP              0 ****  ****    0 ROOT


