HTS1710-00846520-01
 OpenBabel03232612353D

 36 37  0  0  1  0  0  0  0  0999 V2000
    1.0711  -13.9740  -31.2465 N   0  0  0  0  0  0  0  0  0  0  0  0
    2.3938  -14.1591  -30.9216 N   0  0  0  0  0  0  0  0  0  0  0  0
    3.4447  -13.7961  -31.7465 C   0  0  0  0  0  0  0  0  0  0  0  0
    0.6485  -13.4512  -32.3812 N   0  0  0  0  0  0  0  0  0  0  0  0
    2.9946  -13.2024  -33.0378 C   0  0  0  0  0  0  0  0  0  0  0  0
    4.0214  -10.1045  -31.2027 C   0  0  0  0  0  0  0  0  0  0  0  0
    3.8456  -10.3211  -29.6722 C   0  0  1  0  0  0  0  0  0  0  0  0
    1.6086  -13.0693  -33.2851 C   0  0  0  0  0  0  0  0  0  0  0  0
    3.1606   -9.1233  -28.9904 C   0  0  0  0  0  0  0  0  0  0  0  0
    3.0444  -11.5281  -29.4141 N   0  0  0  0  0  0  0  0  0  0  0  0
    3.4967  -12.5816  -28.6307 C   0  0  0  0  0  0  0  0  0  0  0  0
    4.8988   -8.8989  -31.5905 C   0  0  0  0  0  0  0  0  0  0  0  0
    2.5790  -13.7922  -28.4271 C   0  0  0  0  0  0  0  0  0  0  0  0
    2.6191  -14.7967  -29.6060 C   0  0  0  0  0  0  0  0  0  0  0  0
    4.6205  -13.9356  -31.4526 O   0  0  0  0  0  0  0  0  0  0  0  0
    2.2577   -8.5650  -29.5925 O   0  5  0  0  0  0  0  0  0  0  0  0
    4.6033  -12.5371  -28.1171 O   0  0  0  0  0  0  0  0  0  0  0  0
    5.7641   -8.5354  -30.8115 O   0  5  0  0  0  0  0  0  0  0  0  0
    3.5671   -8.8108  -27.8851 O   0  0  0  0  0  0  0  0  0  0  0  0
    4.6708   -8.3867  -32.6731 O   0  0  0  0  0  0  0  0  0  0  0  0
    3.9268  -12.7762  -34.0045 C   0  0  0  0  0  0  0  0  0  0  0  0
    1.1809  -12.5161  -34.5068 C   0  0  0  0  0  0  0  0  0  0  0  0
    3.4869  -12.2306  -35.2186 C   0  0  0  0  0  0  0  0  0  0  0  0
    2.1133  -12.1012  -35.4698 C   0  0  0  0  0  0  0  0  0  0  0  0
    3.0517   -9.9615  -31.6318 H   0  0  0  0  0  0  0  0  0  0  0  0
    4.5245  -10.9732  -31.5730 H   0  0  0  0  0  0  0  0  0  0  0  0
    4.8280  -10.4302  -29.2627 H   0  0  0  0  0  0  0  0  0  0  0  0
    2.1474  -11.5915  -29.8148 H   0  0  0  0  0  0  0  0  0  0  0  0
    1.5744  -13.4416  -28.3136 H   0  0  0  0  0  0  0  0  0  0  0  0
    2.9258  -14.3102  -27.5574 H   0  0  0  0  0  0  0  0  0  0  0  0
    1.8595  -15.5341  -29.4508 H   0  0  0  0  0  0  0  0  0  0  0  0
    3.5986  -15.2270  -29.6244 H   0  0  0  0  0  0  0  0  0  0  0  0
    4.9379  -12.8660  -33.8180 H   0  0  0  0  0  0  0  0  0  0  0  0
    0.1715  -12.4148  -34.6962 H   0  0  0  0  0  0  0  0  0  0  0  0
    4.1728  -11.9246  -35.9264 H   0  0  0  0  0  0  0  0  0  0  0  0
    1.7880  -11.7005  -36.3635 H   0  0  0  0  0  0  0  0  0  0  0  0
  1  2  1  0  0  0  0
  1  4  2  0  0  0  0
  2  3  1  0  0  0  0
  2 14  1  0  0  0  0
  3 15  2  0  0  0  0
  3  5  1  0  0  0  0
  4  8  1  0  0  0  0
  5  8  2  0  0  0  0
  5 21  1  0  0  0  0
  6  7  1  0  0  0  0
  6 12  1  0  0  0  0
  6 25  1  0  0  0  0
  6 26  1  0  0  0  0
  7 10  1  0  0  0  0
  7  9  1  0  0  0  0
  7 27  1  1  0  0  0
  8 22  1  0  0  0  0
  9 16  1  0  0  0  0
  9 19  2  0  0  0  0
 10 11  1  0  0  0  0
 10 28  1  0  0  0  0
 11 13  1  0  0  0  0
 11 17  2  0  0  0  0
 12 18  1  0  0  0  0
 12 20  2  0  0  0  0
 13 14  1  0  0  0  0
 13 29  1  0  0  0  0
 13 30  1  0  0  0  0
 14 31  1  0  0  0  0
 14 32  1  0  0  0  0
 21 23  2  0  0  0  0
 21 33  1  0  0  0  0
 22 24  2  0  0  0  0
 22 34  1  0  0  0  0
 23 24  1  0  0  0  0
 23 35  1  0  0  0  0
 24 36  1  0  0  0  0
M  CHG  2  16  -1  18  -1
M  END
$$$$
