HTS1710-01292218-01
 OpenBabel03232612353D

 35 36  0  0  1  0  0  0  0  0999 V2000
    2.4459  -10.4115  -31.8581 N   0  0  0  0  0  0  0  0  0  0  0  0
    1.5182  -10.7878  -32.8259 C   0  0  0  0  0  0  0  0  0  0  0  0
    2.8265  -11.4476  -31.0063 C   0  0  0  0  0  0  0  0  0  0  0  0
    1.0120  -12.5022  -32.7205 S   0  0  0  0  0  0  0  0  0  0  0  0
    2.0985  -12.6827  -31.3606 C   0  0  0  0  0  0  0  0  0  0  0  0
    3.0195   -9.0437  -31.7356 C   0  0  2  0  0  0  0  0  0  0  0  0
    4.5284   -9.1284  -31.4002 C   0  0  0  0  0  0  0  0  0  0  0  0
    0.9438   -9.8171  -34.0666 S   0  0  0  0  0  0  0  0  0  0  0  0
    5.4387  -14.4033  -28.5297 C   0  0  0  0  0  0  0  0  0  0  0  0
    2.1704   -8.1454  -30.7867 C   0  0  0  0  0  0  0  0  0  0  0  0
    2.2686  -13.8599  -30.6727 C   0  0  0  0  0  0  0  0  0  0  0  0
    3.6405  -11.3428  -30.1034 O   0  0  0  0  0  0  0  0  0  0  0  0
    3.1532  -14.0911  -29.5298 C   0  0  0  0  0  0  0  0  0  0  0  0
    3.0454   -5.7495  -30.8517 C   0  0  0  0  0  0  0  0  0  0  0  0
    6.3104  -13.3939  -28.2025 O   0  0  0  0  0  0  0  0  0  0  0  0
    4.5019  -14.1751  -29.6245 C   0  0  0  0  0  0  0  0  0  0  0  0
    5.2959   -9.5375  -32.2549 O   0  5  0  0  0  0  0  0  0  0  0  0
    5.5803  -15.5234  -27.7464 C   0  0  0  0  0  0  0  0  0  0  0  0
    7.0122  -13.9475  -27.1637 C   0  0  0  0  0  0  0  0  0  0  0  0
    6.6243  -15.2196  -26.8413 C   0  0  0  0  0  0  0  0  0  0  0  0
    4.1614   -5.8824  -31.3256 O   0  5  0  0  0  0  0  0  0  0  0  0
    1.9555   -6.7136  -31.3384 C   0  0  0  0  0  0  0  0  0  0  0  0
    4.8551   -8.7813  -30.2780 O   0  0  0  0  0  0  0  0  0  0  0  0
    2.7287   -4.9287  -30.0083 O   0  0  0  0  0  0  0  0  0  0  0  0
    2.9633   -8.5400  -32.6780 H   0  0  0  0  0  0  0  0  0  0  0  0
    2.6721   -8.0757  -29.8442 H   0  0  0  0  0  0  0  0  0  0  0  0
    1.2063   -8.6003  -30.6939 H   0  0  0  0  0  0  0  0  0  0  0  0
    1.7133  -14.6673  -30.9965 H   0  0  0  0  0  0  0  0  0  0  0  0
    2.7243  -14.1964  -28.5970 H   0  0  0  0  0  0  0  0  0  0  0  0
    4.9080  -14.0667  -30.5670 H   0  0  0  0  0  0  0  0  0  0  0  0
    5.0395  -16.4004  -27.8059 H   0  0  0  0  0  0  0  0  0  0  0  0
    7.7674  -13.4486  -26.6678 H   0  0  0  0  0  0  0  0  0  0  0  0
    7.0093  -15.8253  -26.0996 H   0  0  0  0  0  0  0  0  0  0  0  0
    1.9743   -6.7473  -32.4077 H   0  0  0  0  0  0  0  0  0  0  0  0
    1.0112   -6.3571  -30.9831 H   0  0  0  0  0  0  0  0  0  0  0  0
  1  2  1  0  0  0  0
  1  3  1  0  0  0  0
  1  6  1  0  0  0  0
  2  4  1  0  0  0  0
  2  8  2  0  0  0  0
  3  5  1  0  0  0  0
  3 12  2  0  0  0  0
  4  5  1  0  0  0  0
  5 11  2  0  0  0  0
  6  7  1  0  0  0  0
  6 10  1  0  0  0  0
  6 25  1  6  0  0  0
  7 17  1  0  0  0  0
  7 23  2  0  0  0  0
  9 16  1  0  0  0  0
  9 15  1  0  0  0  0
  9 18  2  0  0  0  0
 10 22  1  0  0  0  0
 10 26  1  0  0  0  0
 10 27  1  0  0  0  0
 11 13  1  0  0  0  0
 11 28  1  0  0  0  0
 13 16  2  0  0  0  0
 13 29  1  0  0  0  0
 14 22  1  0  0  0  0
 14 21  1  0  0  0  0
 14 24  2  0  0  0  0
 15 19  1  0  0  0  0
 16 30  1  0  0  0  0
 18 20  1  0  0  0  0
 18 31  1  0  0  0  0
 19 20  2  0  0  0  0
 19 32  1  0  0  0  0
 20 33  1  0  0  0  0
 22 34  1  0  0  0  0
 22 35  1  0  0  0  0
M  CHG  2  17  -1  21  -1
M  END
$$$$
