##########                                Name: HTS1710-05295003-01
##########                    Molecular_Weight:             318.327
##########                DOCK_Rotatable_Bonds:                   9
##########                       Formal_Charge:                  -2
##########                     HBond_Acceptors:                   9
##########                        HBond_Donors:                   1
##########                         Heavy_Atoms:                  21
##########                          Grid_Score:          -75.761185
##########                     Grid_vdw_energy:          -40.185047
##########                      Grid_es_energy:          -35.576141
##########           Internal_energy_repulsive:            9.656298

@<TRIPOS>MOLECULE
HTS1710-05295003-01
 37 37 1 0 0
SMALL
USER_CHARGES


@<TRIPOS>ATOM
      1 C           4.3580  -11.2450  -35.8427 C.3     1  UNL1        0.0820
      2 O           5.2162  -10.9311  -34.7298 O.3     1  UNL1       -0.4645
      3 C           5.4107   -9.6250  -34.3749 C.2     1  UNL1        0.3381
      4 O           5.7477   -8.7623  -35.1687 O.2     1  UNL1       -0.2450
      5 C           5.1803   -9.3276  -32.9418 C.2     1  UNL1        0.0489
      6 C           4.5034  -10.1712  -32.0241 C.2     1  UNL1       -0.0360
      7 C           4.5178   -9.5068  -30.8247 C.2     1  UNL1        0.0445
      8 O           5.1498   -8.2912  -30.8653 O.co2   1  UNL1       -0.7695
      9 C           5.5319   -8.2335  -32.1795 C.2     1  UNL1       -0.1059
     10 C           6.2777   -7.0155  -32.6646 C.3     1  UNL1       -0.0522
     11 S           3.7765  -10.1004  -29.3068 S.O2    1  UNL1        0.0458
     12 O           2.7991   -9.1219  -28.8198 O.2     1  UNL1       -0.1542
     13 O           4.8429  -10.6620  -28.4731 O.2     1  UNL1       -0.1542
     14 N           2.8584  -11.4589  -29.7587 N.3     1  UNL1       -0.1910
     15 C           3.4617  -12.7873  -29.5603 C.3     1  UNL1        0.0174
     16 C           3.1724  -13.2881  -28.1286 C.3     1  UNL1       -0.0385
     17 C           3.5545  -14.7782  -27.9554 C.3     1  UNL1       -0.0468
     18 C           5.0261  -15.0737  -28.3373 C.3     1  UNL1       -0.0132
     19 C           6.0298  -14.3079  -27.4649 C.2     1  UNL1        0.0417
     20 O           6.3820  -13.2080  -27.8520 O.co2   1  UNL1       -0.5498
     21 O           6.3961  -14.8458  -26.4340 O.co2   1  UNL1       -0.5498
     22 H           4.3218  -12.3060  -35.9770 H       1  UNL1        0.0661
     23 H           4.7421  -10.7862  -36.7298 H       1  UNL1        0.0661
     24 H           3.3726  -10.8762  -35.6484 H       1  UNL1        0.0661
     25 H           4.0861  -11.0947  -32.2189 H       1  UNL1        0.0633
     26 H           6.4089   -6.3308  -31.8529 H       1  UNL1        0.0266
     27 H           5.7183   -6.5417  -33.4440 H       1  UNL1        0.0266
     28 H           7.2350   -7.3099  -33.0411 H       1  UNL1        0.0266
     29 H           2.6449  -11.3661  -30.7519 H       1  UNL1        0.1480
     30 H           4.5197  -12.7216  -29.7061 H       1  UNL1        0.0441
     31 H           3.0412  -13.4738  -30.2651 H       1  UNL1        0.0441
     32 H           2.1285  -13.1718  -27.9248 H       1  UNL1        0.0278
     33 H           3.7624  -12.7110  -27.4476 H       1  UNL1        0.0278
     34 H           2.9155  -15.3688  -28.5781 H       1  UNL1        0.0269
     35 H           3.4377  -15.0205  -26.9198 H       1  UNL1        0.0269
     36 H           5.1774  -14.7939  -29.3589 H       1  UNL1        0.0325
     37 H           5.1961  -16.1188  -28.1837 H       1  UNL1        0.0325
@<TRIPOS>BOND
     1     1     2    1
     2     2     3    1
     3     3     4    2
     4     3     5    1
     5     5     6    1
     6     6     7    2
     7     7     8    1
     8     8     9    1
     9     5     9    2
    10     9    10    1
    11     7    11    1
    12    11    12    2
    13    11    13    2
    14    11    14    1
    15    14    15    1
    16    15    16    1
    17    16    17    1
    18    17    18    1
    19    18    19    1
    20    19    20   ar
    21    19    21   ar
    22     1    22    1
    23     1    23    1
    24     1    24    1
    25     6    25    1
    26    10    26    1
    27    10    27    1
    28    10    28    1
    29    14    29    1
    30    15    30    1
    31    15    31    1
    32    16    32    1
    33    16    33    1
    34    17    34    1
    35    17    35    1
    36    18    36    1
    37    18    37    1
@<TRIPOS>SUBSTRUCTURE
     1 UNL1        1 TEMP              0 ****  ****    0 ROOT


