HTS1710-00540184-01
 OpenBabel03232612353D

 44 45  0  0  1  0  0  0  0  0999 V2000
    2.8200  -13.5195  -31.7319 N   0  0  0  0  0  0  0  0  0  0  0  0
    2.8314  -12.7003  -32.9570 C   0  0  2  0  0  0  0  0  0  0  0  0
    3.6851  -13.4256  -30.6413 C   0  0  0  0  0  0  0  0  0  0  0  0
    1.9107  -14.5381  -31.4237 C   0  0  0  0  0  3  0  0  0  0  0  0
    4.0676  -11.9680  -33.0466 O   0  0  0  0  0  0  0  0  0  0  0  0
    1.7219  -11.6148  -33.0022 C   0  0  1  0  0  0  0  0  0  0  0  0
    3.2463  -14.3746  -29.7565 C   0  0  0  0  0  0  0  0  0  0  0  0
    4.7436  -12.5550  -30.5038 N   0  0  0  0  0  0  0  0  0  0  0  0
    2.1703  -15.0469  -30.2357 N   0  0  0  0  0  0  0  0  0  0  0  0
    0.7819  -14.9947  -32.3124 C   0  0  0  0  0  0  0  0  0  0  0  0
    3.8280  -10.8053  -33.8546 C   0  0  1  0  0  0  0  0  0  0  0  0
    2.5124  -10.3101  -33.2448 C   0  0  1  0  0  0  0  0  0  0  0  0
    0.8299  -11.9100  -34.0789 O   0  0  0  0  0  0  0  0  0  0  0  0
    3.8548  -14.6522  -28.4295 C   0  0  0  0  0  0  0  0  0  0  0  0
    4.9998   -9.7996  -33.6986 C   0  0  0  0  0  0  0  0  0  0  0  0
    1.8284   -9.3614  -34.0653 O   0  0  0  0  0  0  0  0  0  0  0  0
    5.2234  -14.7181  -28.4632 O   0  0  0  0  0  0  0  0  0  0  0  0
    3.2034  -14.8174  -27.4102 O   0  0  0  0  0  0  0  0  0  0  0  0
    5.4330   -9.6824  -32.3243 O   0  0  0  0  0  0  0  0  0  0  0  0
    5.9963  -14.7456  -27.2436 C   0  0  0  0  0  0  0  0  0  0  0  0
    5.1303   -8.3928  -31.3867 P   0  0  0  0  0  0  0  0  0  0  0  0
    6.2739  -16.2117  -26.8387 C   0  0  0  0  0  0  0  0  0  0  0  0
    6.3590   -7.5627  -31.2749 O   0  0  0  0  0  0  0  0  0  0  0  0
    4.7401   -8.8737  -30.0350 O   0  0  0  0  0  1  0  0  0  0  0  0
    4.0149   -7.5918  -31.9593 O   0  0  0  0  0  1  0  0  0  0  0  0
    2.6848  -13.4010  -33.7523 H   0  0  0  0  0  0  0  0  0  0  0  0
    1.1194  -11.5539  -32.1201 H   0  0  0  0  0  0  0  0  0  0  0  0
    4.9527  -11.9167  -31.2235 H   0  0  0  0  0  0  0  0  0  0  0  0
    5.2911  -12.5712  -29.6858 H   0  0  0  0  0  0  0  0  0  0  0  0
    1.6798  -15.7719  -29.7852 H   0  0  0  0  0  0  0  0  0  0  0  0
    0.7878  -14.4244  -33.2178 H   0  0  0  0  0  0  0  0  0  0  0  0
   -0.1502  -14.8518  -31.8069 H   0  0  0  0  0  0  0  0  0  0  0  0
    0.9070  -16.0320  -32.5434 H   0  0  0  0  0  0  0  0  0  0  0  0
    3.7650  -10.9659  -34.9106 H   0  0  0  0  0  0  0  0  0  0  0  0
    2.6583   -9.7529  -32.3430 H   0  0  0  0  0  0  0  0  0  0  0  0
    1.2208  -11.6099  -34.9143 H   0  0  0  0  0  0  0  0  0  0  0  0
    4.6786   -8.8387  -34.0428 H   0  0  0  0  0  0  0  0  0  0  0  0
    5.8251  -10.1612  -34.2757 H   0  0  0  0  0  0  0  0  0  0  0  0
    0.8799   -9.5645  -34.0723 H   0  0  0  0  0  0  0  0  0  0  0  0
    5.4488  -14.2583  -26.4640 H   0  0  0  0  0  0  0  0  0  0  0  0
    6.9252  -14.2381  -27.4000 H   0  0  0  0  0  0  0  0  0  0  0  0
    5.3457  -16.7203  -26.6819 H   0  0  0  0  0  0  0  0  0  0  0  0
    6.8475  -16.2297  -25.9356 H   0  0  0  0  0  0  0  0  0  0  0  0
    6.8207  -16.6996  -27.6183 H   0  0  0  0  0  0  0  0  0  0  0  0
  1  2  1  0  0  0  0
  1  3  1  0  0  0  0
  1  4  1  0  0  0  0
  2  5  1  0  0  0  0
  2  6  1  0  0  0  0
  2 26  1  6  0  0  0
  3  7  2  0  0  0  0
  3  8  1  0  0  0  0
  4  9  1  0  0  0  0
  4 10  1  0  0  0  0
  5 11  1  0  0  0  0
  6 12  1  0  0  0  0
  6 13  1  0  0  0  0
  6 27  1  1  0  0  0
  7 14  1  0  0  0  0
  7  9  1  0  0  0  0
  8 28  1  0  0  0  0
  8 29  1  0  0  0  0
  9 30  1  0  0  0  0
 10 31  1  0  0  0  0
 10 32  1  0  0  0  0
 10 33  1  0  0  0  0
 11 15  1  0  0  0  0
 11 12  1  0  0  0  0
 11 34  1  6  0  0  0
 12 16  1  0  0  0  0
 12 35  1  1  0  0  0
 13 36  1  0  0  0  0
 14 17  1  0  0  0  0
 14 18  2  0  0  0  0
 15 19  1  0  0  0  0
 15 37  1  0  0  0  0
 15 38  1  0  0  0  0
 16 39  1  0  0  0  0
 17 20  1  0  0  0  0
 19 21  1  0  0  0  0
 20 22  1  0  0  0  0
 20 40  1  0  0  0  0
 20 41  1  0  0  0  0
 21 23  2  0  0  0  0
 21 24  1  0  0  0  0
 21 25  1  0  0  0  0
 22 42  1  0  0  0  0
 22 43  1  0  0  0  0
 22 44  1  0  0  0  0
M  END
$$$$
