##########                                Name: HTS1710-00188149-01
##########                    Molecular_Weight:             345.397
##########                DOCK_Rotatable_Bonds:                   8
##########                       Formal_Charge:                  -2
##########                     HBond_Acceptors:                   9
##########                        HBond_Donors:                   1
##########                         Heavy_Atoms:                  22
##########                          Grid_Score:          -74.872475
##########                     Grid_vdw_energy:          -40.641972
##########                      Grid_es_energy:          -34.230503
##########           Internal_energy_repulsive:            5.672480

@<TRIPOS>MOLECULE
HTS1710-00188149-01
 37 37 1 0 0
SMALL
USER_CHARGES


@<TRIPOS>ATOM
      1 S           1.3128  -11.8988  -33.6988 S.O2    1  UNL1        0.0590
      2 N           2.6608  -12.1275  -34.7153 N.3     1  UNL1       -0.1814
      3 C           2.0005  -12.1073  -32.0465 C.ar    1  UNL1        0.1059
      4 C           3.4866  -10.9669  -35.1302 C.3     1  UNL1        0.0687
      5 C           3.1507  -11.1771  -30.0981 C.ar    1  UNL1        0.0021
      6 C           2.6062  -11.0228  -31.3883 C.ar    1  UNL1       -0.0263
      7 C           3.2029  -10.6006  -36.5997 C.2     1  UNL1        0.0603
      8 C           3.7980   -9.9860  -29.4454 C.2     1  UNL1        0.0720
      9 O           0.8819  -10.5128  -33.9117 O.2     1  UNL1       -0.1530
     10 O           0.4504  -13.0494  -33.9847 O.2     1  UNL1       -0.1530
     11 C           3.0700  -12.4366  -29.4531 C.ar    1  UNL1       -0.0415
     12 O           2.7682  -11.4705  -37.3364 O.co2   1  UNL1       -0.5481
     13 O           4.8397   -9.5754  -29.9273 O.co2   1  UNL1       -0.5446
     14 C           1.9281  -13.3541  -31.4076 C.ar    1  UNL1       -0.0351
     15 C           2.4587  -13.5158  -30.1196 C.ar    1  UNL1       -0.0564
     16 C           5.0067  -11.1972  -34.8985 C.3     1  UNL1       -0.0217
     17 O           3.4116   -9.4448  -36.9260 O.co2   1  UNL1       -0.5481
     18 O           3.2227   -9.5026  -28.4861 O.co2   1  UNL1       -0.5446
     19 S           5.7536   -8.5114  -34.5787 S.3     1  UNL1       -0.1641
     20 C           5.6381  -10.2147  -33.8816 C.3     1  UNL1       -0.0048
     21 C           3.6111  -12.6506  -28.0410 C.3     1  UNL1       -0.0391
     22 C           6.1690   -7.5579  -33.0587 C.3     1  UNL1       -0.0181
     23 H           2.3136  -12.5617  -35.5705 H       1  UNL1        0.1487
     24 H           3.2053  -10.1441  -34.5067 H       1  UNL1        0.0538
     25 H           2.6524  -10.1036  -31.8553 H       1  UNL1        0.0643
     26 H           1.4837  -14.1532  -31.8861 H       1  UNL1        0.0637
     27 H           2.4005  -14.4356  -29.6554 H       1  UNL1        0.0621
     28 H           5.5118  -11.0849  -35.8350 H       1  UNL1        0.0292
     29 H           5.1150  -12.1807  -34.4911 H       1  UNL1        0.0292
     30 H           5.0333  -10.1899  -32.9992 H       1  UNL1        0.0377
     31 H           6.6269  -10.5540  -33.6535 H       1  UNL1        0.0377
     32 H           3.4494  -13.6667  -27.7472 H       1  UNL1        0.0278
     33 H           3.1035  -11.9979  -27.3618 H       1  UNL1        0.0278
     34 H           4.6594  -12.4370  -28.0246 H       1  UNL1        0.0278
     35 H           6.2720   -6.5216  -33.3047 H       1  UNL1        0.0340
     36 H           7.0891   -7.9206  -32.6504 H       1  UNL1        0.0340
     37 H           5.3873   -7.6774  -32.3379 H       1  UNL1        0.0340
@<TRIPOS>BOND
     1     1     2    1
     2     1     3    1
     3     2     4    1
     4     5     6   ar
     5     3     6   ar
     6     4     7    1
     7     5     8    1
     8     1     9    2
     9     1    10    2
    10    11    15   ar
    11     7    12   ar
    12     8    13   ar
    13     3    14   ar
    14    14    15   ar
    15     4    16    1
    16     7    17   ar
    17     8    18   ar
    18    19    20    1
    19    16    20    1
    20    11    21    1
    21    19    22    1
    22     5    11   ar
    23     2    23    1
    24     4    24    1
    25     6    25    1
    26    14    26    1
    27    15    27    1
    28    16    28    1
    29    16    29    1
    30    20    30    1
    31    20    31    1
    32    21    32    1
    33    21    33    1
    34    21    34    1
    35    22    35    1
    36    22    36    1
    37    22    37    1
@<TRIPOS>SUBSTRUCTURE
     1 UNL1        1 TEMP              0 ****  ****    0 ROOT


