##########                                Name: HTS1710-01930930-01
##########                    Molecular_Weight:             257.244
##########                DOCK_Rotatable_Bonds:                   4
##########                       Formal_Charge:                  -3
##########                     HBond_Acceptors:                   7
##########                        HBond_Donors:                   0
##########                         Heavy_Atoms:                  17
##########                          Grid_Score:          -82.529091
##########                     Grid_vdw_energy:          -30.359144
##########                      Grid_es_energy:          -52.169949
##########           Internal_energy_repulsive:            4.809797

@<TRIPOS>MOLECULE
HTS1710-01930930-01
 26 27 1 0 0
SMALL
USER_CHARGES


@<TRIPOS>ATOM
      1 C           5.1195   -9.2647  -32.1164 C.ar    1  UNL1        0.0279
      2 C           4.2240  -11.6444  -32.1177 C.ar    1  UNL1        0.0894
      3 C           4.5160   -9.6387  -30.9363 C.ar    1  UNL1       -0.0869
      4 C           4.0349  -10.9776  -30.9323 C.ar    1  UNL1       -0.0818
      5 S           5.0592  -10.6015  -33.2739 S.2     1  UNL1       -0.0818
      6 C           5.7268   -7.9491  -32.4344 C.2     1  UNL1        0.0777
      7 C           3.8174  -13.0359  -32.4127 C.2     1  UNL1        0.3453
      8 O           4.3554   -8.8515  -29.8255 O.co2   1  UNL1       -0.8020
      9 O           3.4433  -11.4984  -29.8111 O.co2   1  UNL1       -0.8019
     10 O           6.0498   -7.7207  -33.5870 O.co2   1  UNL1       -0.5441
     11 O           4.3130  -13.7063  -33.3044 O.2     1  UNL1       -0.2444
     12 O           5.8668   -7.1663  -31.5100 O.co2   1  UNL1       -0.5441
     13 O           2.8234  -13.4909  -31.5870 O.3     1  UNL1       -0.4611
     14 C           3.6102  -10.7960  -28.5602 C.3     1  UNL1       -0.1106
     15 C           3.4246   -9.2781  -28.8073 C.3     1  UNL1       -0.1106
     16 C           1.8864  -14.4932  -32.0332 C.3     1  UNL1        0.0900
     17 C           0.7540  -13.8178  -32.8389 C.3     1  UNL1       -0.0306
     18 H           4.5909  -10.9795  -28.1735 H       1  UNL1        0.0130
     19 H           2.8846  -11.1391  -27.8526 H       1  UNL1        0.0130
     20 H           2.4236   -9.0873  -29.1334 H       1  UNL1        0.0130
     21 H           3.6070   -8.7389  -27.9012 H       1  UNL1        0.0130
     22 H           1.4700  -14.9950  -31.1848 H       1  UNL1        0.0695
     23 H           2.3920  -15.2025  -32.6545 H       1  UNL1        0.0695
     24 H           0.2483  -13.1085  -32.2176 H       1  UNL1        0.0262
     25 H           0.0593  -14.5613  -33.1698 H       1  UNL1        0.0262
     26 H           1.1703  -13.3159  -33.6873 H       1  UNL1        0.0262
@<TRIPOS>BOND
     1     1     3   ar
     2     1     5   ar
     3     1     6    1
     4     2     4   ar
     5     2     5   ar
     6     2     7    1
     7     3     4   ar
     8     3     8    1
     9     4     9    1
    10     6    10   ar
    11     6    12   ar
    12     7    11    2
    13     7    13    1
    14     8    15    1
    15     9    14    1
    16    13    16    1
    17    14    15    1
    18    16    17    1
    19    14    18    1
    20    14    19    1
    21    15    20    1
    22    15    21    1
    23    16    22    1
    24    16    23    1
    25    17    24    1
    26    17    25    1
    27    17    26    1
@<TRIPOS>SUBSTRUCTURE
     1 UNL1        1 TEMP              0 ****  ****    0 ROOT


