##########                                Name: HTS1710-00848865-01
##########                    Molecular_Weight:             212.116
##########                DOCK_Rotatable_Bonds:                   2
##########                       Formal_Charge:                  -4
##########                     HBond_Acceptors:                   7
##########                        HBond_Donors:                   0
##########                         Heavy_Atoms:                  15
##########                          Grid_Score:          -92.534271
##########                     Grid_vdw_energy:          -21.301737
##########                      Grid_es_energy:          -71.232536
##########           Internal_energy_repulsive:            1.389902

@<TRIPOS>MOLECULE
HTS1710-00848865-01
 19 20 1 0 0
SMALL
USER_CHARGES


@<TRIPOS>ATOM
      1 C           3.9125  -10.1891  -28.9581 C.2     1  UNL1        0.1063
      2 C           4.0855   -7.4786  -31.4131 C.ar    1  UNL1       -0.0549
      3 C           2.8954   -5.4420  -31.0017 C.3     1  UNL1       -0.1106
      4 C           3.5210   -8.0383  -30.2671 C.ar    1  UNL1       -0.0549
      5 C           1.8474   -6.3277  -30.2522 C.3     1  UNL1       -0.1106
      6 C           5.8910   -8.2274  -33.0527 C.2     1  UNL1        0.1063
      7 C           4.1649   -9.2308  -30.0622 C.ar    1  UNL1        0.1435
      8 C           5.0252   -8.3747  -31.8556 C.ar    1  UNL1        0.1435
      9 O           5.1165   -9.4888  -31.0366 O.2     1  UNL1       -0.4536
     10 O           2.5176   -7.4205  -29.5749 O.co2   1  UNL1       -0.8003
     11 O           6.7226   -7.3358  -33.0395 O.co2   1  UNL1       -0.5416
     12 O           5.7240   -9.0023  -33.9792 O.co2   1  UNL1       -0.5416
     13 O           3.6909   -6.2619  -31.8957 O.co2   1  UNL1       -0.8003
     14 O           4.5611  -11.2204  -28.9360 O.co2   1  UNL1       -0.5416
     15 O           3.0675   -9.8879  -28.1322 O.co2   1  UNL1       -0.5416
     16 H           3.5377   -4.9719  -30.2866 H       1  UNL1        0.0130
     17 H           2.3811   -4.6976  -31.5729 H       1  UNL1        0.0130
     18 H           1.3277   -5.7300  -29.5327 H       1  UNL1        0.0130
     19 H           1.1525   -6.7266  -30.9613 H       1  UNL1        0.0130
@<TRIPOS>BOND
     1     2    13    1
     2     2     4   ar
     3     5    10    1
     4     3     5    1
     5     3    13    1
     6     4    10    1
     7     2     8   ar
     8     8     9   ar
     9     4     7   ar
    10     7     9   ar
    11     6    11   ar
    12     6    12   ar
    13     6     8    1
    14     1    14   ar
    15     1    15   ar
    16     1     7    1
    17     3    16    1
    18     3    17    1
    19     5    18    1
    20     5    19    1
@<TRIPOS>SUBSTRUCTURE
     1 UNL1        1 TEMP              0 ****  ****    0 ROOT


