HTS1710-04762170-01
 OpenBabel03232612363D

 47 48  0  0  1  0  0  0  0  0999 V2000
    1.5740  -14.8763  -27.1921 C   0  0  0  0  0  0  0  0  0  0  0  0
    2.4253  -14.0434  -28.1805 C   0  0  1  0  0  0  0  0  0  0  0  0
    3.3313  -13.0342  -27.4237 C   0  0  0  0  0  0  0  0  0  0  0  0
    4.2356  -12.2285  -28.3854 C   0  0  0  0  0  0  0  0  0  0  0  0
    5.0688  -13.1574  -29.2989 C   0  0  0  0  0  0  0  0  0  0  0  0
    4.1833  -14.1721  -30.0757 C   0  0  1  0  0  0  0  0  0  0  0  0
    3.2648  -14.9667  -29.1102 C   0  0  0  0  0  0  0  0  0  0  0  0
    3.3280  -13.4759  -31.0169 O   0  0  0  0  0  0  0  0  0  0  0  0
    3.8961  -13.1347  -32.3019 C   0  0  0  0  0  0  0  0  0  0  0  0
    2.8138  -12.7353  -33.3278 C   0  0  0  0  0  0  0  0  0  0  0  0
    1.6594  -13.1177  -33.2257 O   0  0  0  0  0  0  0  0  0  0  0  0
    3.2491  -11.9695  -34.4145 N   0  0  0  0  0  0  0  0  0  0  0  0
    2.3275  -11.3978  -35.4191 C   0  0  0  0  0  0  0  0  0  0  0  0
    4.6667  -11.5769  -34.5527 C   0  0  0  0  0  0  0  0  0  0  0  0
    4.9432  -10.2747  -33.8494 C   0  0  0  0  0  0  0  0  0  0  0  0
    4.3323   -9.8808  -32.6883 C   0  0  0  0  0  0  0  0  0  0  0  0
    4.8457   -8.5837  -32.4289 C   0  0  0  0  0  0  0  0  0  0  0  0
    4.4855   -7.7134  -31.2828 C   0  0  0  0  0  0  0  0  0  0  0  0
    4.6850   -6.5184  -31.4126 O   0  5  0  0  0  0  0  0  0  0  0  0
    4.0168   -8.2304  -30.2847 O   0  0  0  0  0  0  0  0  0  0  0  0
    5.7161   -8.3572  -33.4782 C   0  0  0  0  0  0  0  0  0  0  0  0
    6.5271   -7.1049  -33.6910 C   0  0  0  0  0  0  0  0  0  0  0  0
    5.8158   -9.3732  -34.3929 O   0  0  0  0  0  0  0  0  0  0  0  0
    1.0081  -14.2181  -26.5664 H   0  0  0  0  0  0  0  0  0  0  0  0
    2.2183  -15.4783  -26.5861 H   0  0  0  0  0  0  0  0  0  0  0  0
    0.9071  -15.5082  -27.7405 H   0  0  0  0  0  0  0  0  0  0  0  0
    1.7564  -13.4809  -28.7978 H   0  0  0  0  0  0  0  0  0  0  0  0
    3.9510  -13.5737  -26.7383 H   0  0  0  0  0  0  0  0  0  0  0  0
    2.6964  -12.3419  -26.9113 H   0  0  0  0  0  0  0  0  0  0  0  0
    4.9014  -11.6212  -27.8084 H   0  0  0  0  0  0  0  0  0  0  0  0
    3.6078  -11.6248  -29.0069 H   0  0  0  0  0  0  0  0  0  0  0  0
    5.7645  -13.7006  -28.6941 H   0  0  0  0  0  0  0  0  0  0  0  0
    5.5707  -12.5442  -30.0179 H   0  0  0  0  0  0  0  0  0  0  0  0
    4.8439  -14.8418  -30.5858 H   0  0  0  0  0  0  0  0  0  0  0  0
    3.8753  -15.6006  -28.5016 H   0  0  0  0  0  0  0  0  0  0  0  0
    2.5797  -15.5306  -29.7081 H   0  0  0  0  0  0  0  0  0  0  0  0
    4.4322  -13.9811  -32.6777 H   0  0  0  0  0  0  0  0  0  0  0  0
    4.5445  -12.2950  -32.1631 H   0  0  0  0  0  0  0  0  0  0  0  0
    1.3331  -11.7438  -35.2285 H   0  0  0  0  0  0  0  0  0  0  0  0
    2.6311  -11.7060  -36.3978 H   0  0  0  0  0  0  0  0  0  0  0  0
    2.3514  -10.3298  -35.3581 H   0  0  0  0  0  0  0  0  0  0  0  0
    4.8990  -11.4685  -35.5916 H   0  0  0  0  0  0  0  0  0  0  0  0
    5.2734  -12.3376  -34.1074 H   0  0  0  0  0  0  0  0  0  0  0  0
    3.6487  -10.4111  -32.1257 H   0  0  0  0  0  0  0  0  0  0  0  0
    6.3362   -6.4166  -32.8943 H   0  0  0  0  0  0  0  0  0  0  0  0
    6.2531   -6.6565  -34.6231 H   0  0  0  0  0  0  0  0  0  0  0  0
    7.5680   -7.3525  -33.7067 H   0  0  0  0  0  0  0  0  0  0  0  0
  1  2  1  0  0  0  0
  1 24  1  0  0  0  0
  1 25  1  0  0  0  0
  1 26  1  0  0  0  0
  2  3  1  0  0  0  0
  2  7  1  0  0  0  0
  2 27  1  6  0  0  0
  3  4  1  0  0  0  0
  3 28  1  0  0  0  0
  3 29  1  0  0  0  0
  4  5  1  0  0  0  0
  4 30  1  0  0  0  0
  4 31  1  0  0  0  0
  5  6  1  0  0  0  0
  5 32  1  0  0  0  0
  5 33  1  0  0  0  0
  6  7  1  0  0  0  0
  6  8  1  0  0  0  0
  6 34  1  6  0  0  0
  7 35  1  0  0  0  0
  7 36  1  0  0  0  0
  8  9  1  0  0  0  0
  9 10  1  0  0  0  0
  9 37  1  0  0  0  0
  9 38  1  0  0  0  0
 10 11  2  0  0  0  0
 10 12  1  0  0  0  0
 12 13  1  0  0  0  0
 12 14  1  0  0  0  0
 13 39  1  0  0  0  0
 13 40  1  0  0  0  0
 13 41  1  0  0  0  0
 14 15  1  0  0  0  0
 14 42  1  0  0  0  0
 14 43  1  0  0  0  0
 15 16  2  0  0  0  0
 15 23  1  0  0  0  0
 16 17  1  0  0  0  0
 16 44  1  0  0  0  0
 17 18  1  0  0  0  0
 17 21  2  0  0  0  0
 18 19  1  0  0  0  0
 18 20  2  0  0  0  0
 21 22  1  0  0  0  0
 21 23  1  0  0  0  0
 22 45  1  0  0  0  0
 22 46  1  0  0  0  0
 22 47  1  0  0  0  0
M  CHG  1  19  -1
M  END
$$$$
