HTS1710-05203822-01
 OpenBabel03232612353D

 39 40  0  0  0  0  0  0  0  0999 V2000
    4.5614  -10.3154  -28.9567 O   0  5  0  0  0  0  0  0  0  0  0  0
    4.6910   -9.8046  -30.0571 C   0  0  0  0  0  0  0  0  0  0  0  0
    5.0854   -8.6709  -30.2638 O   0  0  0  0  0  0  0  0  0  0  0  0
    4.2852  -10.6240  -31.2910 C   0  0  0  0  0  0  0  0  0  0  0  0
    4.6606  -12.0100  -31.1502 O   0  0  0  0  0  0  0  0  0  0  0  0
    3.8726  -12.9577  -30.5258 C   0  0  0  0  0  0  0  0  0  0  0  0
    4.4013  -13.7598  -29.4875 C   0  0  0  0  0  0  0  0  0  0  0  0
    3.6614  -14.8303  -28.9696 C   0  0  0  0  0  0  0  0  0  0  0  0
    2.4016  -15.1300  -29.4997 C   0  0  0  0  0  0  0  0  0  0  0  0
    1.8667  -14.3367  -30.5239 C   0  0  0  0  0  0  0  0  0  0  0  0
    2.5654  -13.2162  -31.0197 C   0  0  0  0  0  0  0  0  0  0  0  0
    1.8942  -12.4217  -32.0999 C   0  0  0  0  0  0  0  0  0  0  0  0
    2.1636  -12.2327  -33.4270 C   0  0  0  0  0  0  0  0  0  0  0  0
    3.3900  -12.7766  -33.9371 C   0  0  0  0  0  0  0  0  0  0  0  0
    4.3959  -13.1639  -34.3591 N   0  0  0  0  0  0  0  0  0  0  0  0
    1.3413  -11.3763  -34.3452 C   0  0  0  0  0  0  0  0  0  0  0  0
    0.6214  -11.8816  -35.1904 O   0  0  0  0  0  0  0  0  0  0  0  0
    1.3803   -9.9905  -34.1911 N   0  0  0  0  0  0  0  0  0  0  0  0
    0.6897   -9.0396  -34.9444 C   0  0  0  0  0  0  0  0  0  0  0  0
   -0.5671   -8.5212  -34.5518 C   0  0  0  0  0  0  0  0  0  0  0  0
   -1.2250   -7.5659  -35.3415 C   0  0  0  0  0  0  0  0  0  0  0  0
   -0.6478   -7.1232  -36.5373 C   0  0  0  0  0  0  0  0  0  0  0  0
    0.5834   -7.6482  -36.9528 C   0  0  0  0  0  0  0  0  0  0  0  0
    1.2521   -8.6131  -36.1740 C   0  0  0  0  0  0  0  0  0  0  0  0
    2.5716   -9.1459  -36.6705 C   0  0  0  0  0  0  0  0  0  0  0  0
    2.6811   -9.3612  -37.8655 O   0  5  0  0  0  0  0  0  0  0  0  0
    3.4477   -9.3108  -35.8383 O   0  0  0  0  0  0  0  0  0  0  0  0
    4.7708  -10.2178  -32.1536 H   0  0  0  0  0  0  0  0  0  0  0  0
    3.2214  -10.5725  -31.3942 H   0  0  0  0  0  0  0  0  0  0  0  0
    5.3391  -13.5548  -29.1089 H   0  0  0  0  0  0  0  0  0  0  0  0
    4.0451  -15.3976  -28.1977 H   0  0  0  0  0  0  0  0  0  0  0  0
    1.8666  -15.9345  -29.1368 H   0  0  0  0  0  0  0  0  0  0  0  0
    0.9454  -14.5766  -30.9224 H   0  0  0  0  0  0  0  0  0  0  0  0
    1.0570  -11.9132  -31.7749 H   0  0  0  0  0  0  0  0  0  0  0  0
    1.9582   -9.6453  -33.4726 H   0  0  0  0  0  0  0  0  0  0  0  0
   -1.0041   -8.8488  -33.6762 H   0  0  0  0  0  0  0  0  0  0  0  0
   -2.1370   -7.1887  -35.0398 H   0  0  0  0  0  0  0  0  0  0  0  0
   -1.1274   -6.4123  -37.1113 H   0  0  0  0  0  0  0  0  0  0  0  0
    1.0042   -7.3248  -37.8379 H   0  0  0  0  0  0  0  0  0  0  0  0
  1  2  1  0  0  0  0
  2  3  2  0  0  0  0
  2  4  1  0  0  0  0
  4  5  1  0  0  0  0
  4 28  1  0  0  0  0
  4 29  1  0  0  0  0
  5  6  1  0  0  0  0
  6  7  2  0  0  0  0
  6 11  1  0  0  0  0
  7  8  1  0  0  0  0
  7 30  1  0  0  0  0
  8  9  2  0  0  0  0
  8 31  1  0  0  0  0
  9 10  1  0  0  0  0
  9 32  1  0  0  0  0
 10 11  2  0  0  0  0
 10 33  1  0  0  0  0
 11 12  1  0  0  0  0
 12 13  2  0  0  0  0
 12 34  1  0  0  0  0
 13 14  1  0  0  0  0
 13 16  1  0  0  0  0
 14 15  3  0  0  0  0
 16 17  2  0  0  0  0
 16 18  1  0  0  0  0
 18 19  1  0  0  0  0
 18 35  1  0  0  0  0
 19 20  2  0  0  0  0
 19 24  1  0  0  0  0
 20 21  1  0  0  0  0
 20 36  1  0  0  0  0
 21 22  2  0  0  0  0
 21 37  1  0  0  0  0
 22 23  1  0  0  0  0
 22 38  1  0  0  0  0
 23 24  2  0  0  0  0
 23 39  1  0  0  0  0
 24 25  1  0  0  0  0
 25 26  1  0  0  0  0
 25 27  2  0  0  0  0
M  CHG  2   1  -1  26  -1
M  END
$$$$
