##########                                Name: HTS1710-04760790-01
##########                    Molecular_Weight:             331.305
##########                DOCK_Rotatable_Bonds:                   6
##########                       Formal_Charge:                  -2
##########                     HBond_Acceptors:                   8
##########                        HBond_Donors:                   1
##########                         Heavy_Atoms:                  24
##########                          Grid_Score:          -78.412323
##########                     Grid_vdw_energy:          -40.186352
##########                      Grid_es_energy:          -38.225971
##########           Internal_energy_repulsive:            8.297601

@<TRIPOS>MOLECULE
HTS1710-04760790-01
 39 41 1 0 0
SMALL
USER_CHARGES


@<TRIPOS>ATOM
      1 C           1.5040  -10.8975  -35.5420 C.3     1  UNL1       -0.0559
      2 C           2.7851  -10.9101  -36.4122 C.3     1  UNL1        0.0113
      3 C           4.0329  -11.3859  -35.6143 C.3     1  UNL1        0.0196
      4 N           4.4044  -10.4027  -34.5857 N.am    1  UNL1       -0.3095
      5 C           4.1880  -10.5860  -33.2257 C.2     1  UNL1        0.2618
      6 O           3.5973  -11.5881  -32.8559 O.2     1  UNL1       -0.2685
      7 C           4.5989   -9.5322  -32.2574 C.2     1  UNL1        0.1179
      8 N           4.9952   -8.2955  -32.6546 N.2     1  UNL1       -0.2654
      9 C           5.4308   -7.7263  -31.5409 C.2     1  UNL1       -0.0363
     10 O           5.3699   -8.4792  -30.3860 O.co2   1  UNL1       -0.7709
     11 C           4.7922   -9.6047  -30.8995 C.2     1  UNL1       -0.0549
     12 C           4.2678  -10.6403  -29.9892 C.ar    1  UNL1       -0.0259
     13 C           3.3064  -10.2749  -29.0222 C.ar    1  UNL1       -0.0514
     14 C           2.7647  -11.2301  -28.1451 C.ar    1  UNL1       -0.0157
     15 C           3.1583  -12.5720  -28.2476 C.ar    1  UNL1        0.1621
     16 O           2.6262  -13.5183  -27.3974 O.3     1  UNL1       -0.4849
     17 C           2.7765  -14.9177  -27.7186 C.3     1  UNL1        0.1237
     18 C           4.2198  -15.1583  -28.2213 C.3     1  UNL1        0.1237
     19 O           4.4688  -14.2747  -29.3333 O.3     1  UNL1       -0.4849
     20 C           4.0855  -12.9563  -29.2310 C.ar    1  UNL1        0.1626
     21 C           4.6128  -12.0032  -30.1146 C.ar    1  UNL1       -0.0096
     22 C           3.0074   -9.5182  -37.0331 C.2     1  UNL1        0.0460
     23 O           4.1494   -9.1924  -37.3072 O.co2   1  UNL1       -0.5495
     24 O           2.0134   -8.8450  -37.2460 O.co2   1  UNL1       -0.5495
     25 H           1.3544  -11.8664  -35.1133 H       1  UNL1        0.0236
     26 H           0.6617  -10.6429  -36.1508 H       1  UNL1        0.0236
     27 H           1.6107  -10.1744  -34.7605 H       1  UNL1        0.0236
     28 H           2.6452  -11.6206  -37.1999 H       1  UNL1        0.0373
     29 H           4.8530  -11.5132  -36.2897 H       1  UNL1        0.0468
     30 H           3.7979  -12.3120  -35.1328 H       1  UNL1        0.0468
     31 H           4.8317   -9.5654  -34.8781 H       1  UNL1        0.1491
     32 H           5.7994   -6.7624  -31.5369 H       1  UNL1        0.0668
     33 H           2.9970   -9.2924  -28.9585 H       1  UNL1        0.0624
     34 H           2.0795  -10.9448  -27.4280 H       1  UNL1        0.0655
     35 H           2.0789  -15.1887  -28.4833 H       1  UNL1        0.0731
     36 H           2.5884  -15.5137  -26.8501 H       1  UNL1        0.0731
     37 H           4.3277  -16.1751  -28.5368 H       1  UNL1        0.0731
     38 H           4.9194  -14.9653  -27.4351 H       1  UNL1        0.0731
     39 H           5.2585  -12.3009  -30.8627 H       1  UNL1        0.0661
@<TRIPOS>BOND
     1     1     2    1
     2     2     3    1
     3     3     4    1
     4     4     5   am
     5     5     6    2
     6     5     7    1
     7     7     8    1
     8     8     9    2
     9     9    10    1
    10    10    11    1
    11     7    11    2
    12    11    12    1
    13    12    13   ar
    14    13    14   ar
    15    14    15   ar
    16    15    16    1
    17    16    17    1
    18    17    18    1
    19    18    19    1
    20    19    20    1
    21    15    20   ar
    22    20    21   ar
    23    12    21   ar
    24     2    22    1
    25    22    23   ar
    26    22    24   ar
    27     1    25    1
    28     1    26    1
    29     1    27    1
    30     2    28    1
    31     3    29    1
    32     3    30    1
    33     4    31    1
    34     9    32    1
    35    13    33    1
    36    14    34    1
    37    17    35    1
    38    17    36    1
    39    18    37    1
    40    18    38    1
    41    21    39    1
@<TRIPOS>SUBSTRUCTURE
     1 UNL1        1 TEMP              0 ****  ****    0 ROOT


