##########                                Name: HTS1710-05390505-01
##########                    Molecular_Weight:             331.305
##########                DOCK_Rotatable_Bonds:                   6
##########                       Formal_Charge:                  -3
##########                     HBond_Acceptors:                   8
##########                        HBond_Donors:                   1
##########                         Heavy_Atoms:                  24
##########                          Grid_Score:          -84.970276
##########                     Grid_vdw_energy:          -40.802074
##########                      Grid_es_energy:          -44.168201
##########           Internal_energy_repulsive:            7.611509

@<TRIPOS>MOLECULE
HTS1710-05390505-01
 39 41 1 0 0
SMALL
USER_CHARGES


@<TRIPOS>ATOM
      1 O          -2.9945   -5.8758  -35.4701 O.co2   1  UNL1       -0.5447
      2 C          -2.5635   -6.9763  -35.1724 C.2     1  UNL1        0.0706
      3 O          -3.1348   -7.7789  -34.4547 O.co2   1  UNL1       -0.5447
      4 C          -1.2512   -7.3659  -35.7226 C.2     1  UNL1       -0.0170
      5 C          -0.5552   -6.7496  -36.7321 C.2     1  UNL1       -0.1247
      6 O           0.6423   -7.3415  -37.0385 O.co2   1  UNL1       -0.7816
      7 C           0.6665   -8.3875  -36.1496 C.2     1  UNL1       -0.0302
      8 C          -0.4340   -8.4569  -35.3325 C.2     1  UNL1       -0.0558
      9 C           1.7999   -9.3340  -36.1295 C.2     1  UNL1        0.2304
     10 O           2.6410   -9.3652  -37.0137 O.2     1  UNL1       -0.2715
     11 N           1.8936  -10.2101  -35.0561 N.am    1  UNL1       -0.3093
     12 C           2.9737  -11.1999  -34.9190 C.3     1  UNL1        0.0262
     13 C           4.3065  -10.4938  -34.6301 C.3     1  UNL1       -0.0186
     14 C           4.3050   -9.7485  -33.2745 C.3     1  UNL1        0.0166
     15 N           3.7345  -10.4922  -32.1074 N.am    1  UNL1       -0.2974
     16 C           2.6468  -11.4732  -32.3836 C.3     1  UNL1        0.0166
     17 C           2.6899  -12.1729  -33.7638 C.3     1  UNL1       -0.0186
     18 C           4.0676  -10.0186  -30.8188 C.2     1  UNL1        0.2455
     19 O           4.7938   -9.0478  -30.6776 O.2     1  UNL1       -0.2700
     20 C           3.5357  -10.7092  -29.6000 C.2     1  UNL1        0.0219
     21 C           3.6938  -12.1024  -29.3650 C.2     1  UNL1       -0.0647
     22 C           3.1109  -12.3523  -28.1540 C.2     1  UNL1       -0.1335
     23 O           2.5872  -11.2452  -27.5520 O.co2   1  UNL1       -0.7897
     24 C           2.8817  -10.2662  -28.4661 C.2     1  UNL1       -0.1218
     25 H          -0.9046   -5.9100  -37.2200 H       1  UNL1        0.0461
     26 H          -0.6253   -9.1523  -34.5944 H       1  UNL1        0.0620
     27 H           1.2050  -10.1669  -34.3538 H       1  UNL1        0.1493
     28 H           3.0289  -11.7427  -35.8394 H       1  UNL1        0.0499
     29 H           4.4950   -9.7858  -35.4099 H       1  UNL1        0.0298
     30 H           5.0673  -11.2449  -34.5854 H       1  UNL1        0.0298
     31 H           3.7370   -8.8501  -33.3974 H       1  UNL1        0.0465
     32 H           5.3360   -9.5912  -33.0352 H       1  UNL1        0.0465
     33 H           1.7136  -10.9549  -32.3096 H       1  UNL1        0.0465
     34 H           2.7764  -12.2539  -31.6634 H       1  UNL1        0.0465
     35 H           1.7446  -12.6431  -33.9378 H       1  UNL1        0.0298
     36 H           3.4895  -12.8834  -33.7387 H       1  UNL1        0.0298
     37 H           4.1555  -12.7871  -29.9840 H       1  UNL1        0.0613
     38 H           3.0705  -13.2936  -27.7329 H       1  UNL1        0.0455
     39 H           2.6341   -9.2753  -28.3186 H       1  UNL1        0.0462
@<TRIPOS>BOND
     1     1     2   ar
     2     2     3   ar
     3     2     4    1
     4     4     5    2
     5     5     6    1
     6     6     7    1
     7     7     8    2
     8     4     8    1
     9     7     9    1
    10     9    10    2
    11     9    11   am
    12    11    12    1
    13    12    13    1
    14    13    14    1
    15    14    15    1
    16    15    16    1
    17    16    17    1
    18    12    17    1
    19    15    18   am
    20    18    19    2
    21    18    20    1
    22    20    21    1
    23    21    22    2
    24    22    23    1
    25    23    24    1
    26    20    24    2
    27     5    25    1
    28     8    26    1
    29    11    27    1
    30    12    28    1
    31    13    29    1
    32    13    30    1
    33    14    31    1
    34    14    32    1
    35    16    33    1
    36    16    34    1
    37    17    35    1
    38    17    36    1
    39    21    37    1
    40    22    38    1
    41    24    39    1
@<TRIPOS>SUBSTRUCTURE
     1 UNL1        1 TEMP              0 ****  ****    0 ROOT


