##########                                Name: HTS1710-04485851-01
##########                    Molecular_Weight:             277.257
##########                DOCK_Rotatable_Bonds:                   5
##########                       Formal_Charge:                  -3
##########                     HBond_Acceptors:                   7
##########                        HBond_Donors:                   0
##########                         Heavy_Atoms:                  20
##########                          Grid_Score:          -82.268669
##########                     Grid_vdw_energy:          -29.508545
##########                      Grid_es_energy:          -52.760124
##########           Internal_energy_repulsive:           10.696377

@<TRIPOS>MOLECULE
HTS1710-04485851-01
 33 34 1 0 0
SMALL
USER_CHARGES


@<TRIPOS>ATOM
      1 C           4.5419  -11.0726  -35.0742 C.2     1  UNL1        0.1134
      2 C           3.0747   -9.9865  -30.1712 C.2     1  UNL1       -0.0144
      3 C           4.3513  -12.4499  -34.4939 C.2     1  UNL1        0.2640
      4 C           3.5470   -9.1390  -31.1547 C.2     1  UNL1       -0.1120
      5 C           2.7064  -10.7480  -32.2142 C.2     1  UNL1       -0.0998
      6 N           5.4862  -10.1542  -34.7340 N.2     1  UNL1       -0.2658
      7 O           3.3463   -9.5613  -32.4446 O.co2   1  UNL1       -0.7845
      8 C           2.5126  -11.0685  -30.8971 C.2     1  UNL1       -0.0630
      9 N           3.2340  -12.6938  -33.6640 N.am    1  UNL1       -0.2961
     10 C           3.1146   -9.8535  -28.6947 C.2     1  UNL1        0.0708
     11 C           3.7881  -10.5263  -36.0825 C.2     1  UNL1       -0.0892
     12 C           5.2464   -9.1317  -35.5348 C.2     1  UNL1       -0.0365
     13 C           2.2689  -11.6074  -33.3734 C.3     1  UNL1        0.0269
     14 O           4.2005   -9.2680  -36.4180 O.co2   1  UNL1       -0.7741
     15 O           5.1508  -13.3411  -34.7292 O.2     1  UNL1       -0.2683
     16 O           2.6313  -10.7418  -28.0160 O.co2   1  UNL1       -0.5447
     17 O           3.6391   -8.8491  -28.2443 O.co2   1  UNL1       -0.5447
     18 C           4.2505   -7.8260  -30.9214 C.3     1  UNL1       -0.0524
     19 C           2.9261  -13.9503  -32.9455 C.3     1  UNL1        0.0038
     20 C           2.6174  -11.1484  -36.8041 C.3     1  UNL1       -0.0509
     21 H           2.0574  -11.9125  -30.5159 H       1  UNL1        0.0615
     22 H           5.8162   -8.2719  -35.4997 H       1  UNL1        0.0668
     23 H           2.1735  -10.9904  -34.2424 H       1  UNL1        0.0502
     24 H           1.3357  -12.0602  -33.1111 H       1  UNL1        0.0502
     25 H           4.5033   -7.3847  -31.8627 H       1  UNL1        0.0266
     26 H           5.1429   -7.9952  -30.3557 H       1  UNL1        0.0266
     27 H           3.6048   -7.1665  -30.3802 H       1  UNL1        0.0266
     28 H           3.6553  -14.6922  -33.1959 H       1  UNL1        0.0429
     29 H           1.9541  -14.2951  -33.2304 H       1  UNL1        0.0429
     30 H           2.9464  -13.7721  -31.8906 H       1  UNL1        0.0429
     31 H           2.4373  -12.1280  -36.4133 H       1  UNL1        0.0267
     32 H           2.8376  -11.2160  -37.8489 H       1  UNL1        0.0267
     33 H           1.7474  -10.5420  -36.6614 H       1  UNL1        0.0267
@<TRIPOS>BOND
     1     2     8    1
     2     1     3    1
     3     4     7    1
     4     5    13    1
     5     1     6    1
     6     5     7    1
     7     5     8    2
     8     3     9   am
     9     2    10    1
    10     1    11    2
    11     6    12    2
    12     9    13    1
    13    11    14    1
    14     3    15    2
    15    10    16   ar
    16    10    17   ar
    17     4    18    1
    18     9    19    1
    19    11    20    1
    20    12    14    1
    21     2     4    2
    22     8    21    1
    23    12    22    1
    24    13    23    1
    25    13    24    1
    26    18    25    1
    27    18    26    1
    28    18    27    1
    29    19    28    1
    30    19    29    1
    31    19    30    1
    32    20    31    1
    33    20    32    1
    34    20    33    1
@<TRIPOS>SUBSTRUCTURE
     1 UNL1        1 TEMP              0 ****  ****    0 ROOT


