##########                                Name: HTS1710-00617291-01
##########                    Molecular_Weight:             359.379
##########                DOCK_Rotatable_Bonds:                   9
##########                       Formal_Charge:                  -2
##########                     HBond_Acceptors:                   7
##########                        HBond_Donors:                   0
##########                         Heavy_Atoms:                  26
##########                          Grid_Score:          -81.600479
##########                     Grid_vdw_energy:          -44.942566
##########                      Grid_es_energy:          -36.657913
##########           Internal_energy_repulsive:           16.807976

@<TRIPOS>MOLECULE
HTS1710-00617291-01
 47 48 1 0 0
SMALL
USER_CHARGES


@<TRIPOS>ATOM
      1 C           3.6297  -10.5704  -32.5058 C.3     1  UNL1        0.0796
      2 N           3.4037  -10.9432  -31.0855 N.am    1  UNL1       -0.2873
      3 C           4.7121   -9.4853  -32.3872 C.2     1  UNL1        0.0167
      4 C           2.3507  -10.0723  -33.1739 C.ar    1  UNL1       -0.0223
      5 C           4.1958  -10.2087  -30.2222 C.2     1  UNL1        0.2329
      6 C           2.5496  -12.0871  -30.7090 C.3     1  UNL1        0.0159
      7 C           5.0000   -9.3300  -31.0799 C.2     1  UNL1       -0.0358
      8 C           5.4432   -8.9407  -33.5765 C.2     1  UNL1        0.1579
      9 C           1.7492   -8.8752  -32.7462 C.ar    1  UNL1       -0.0530
     10 C           1.7763  -10.7909  -34.2392 C.ar    1  UNL1       -0.0530
     11 O           4.2289  -10.3020  -29.0061 O.2     1  UNL1       -0.2712
     12 C           3.2079  -13.4700  -30.9518 C.3     1  UNL1       -0.0371
     13 O           5.9586   -8.5355  -30.5513 O.co2   1  UNL1       -0.8701
     14 C           5.1434   -9.5704  -34.9396 C.3     1  UNL1       -0.0017
     15 O           6.1613   -7.9588  -33.4901 O.2     1  UNL1       -0.2926
     16 C           0.5853   -8.4044  -33.3742 C.ar    1  UNL1       -0.0196
     17 C           0.6164  -10.3202  -34.8731 C.ar    1  UNL1       -0.0196
     18 C           4.3680  -13.7839  -29.9687 C.3     1  UNL1       -0.0513
     19 C           0.0138   -9.1201  -34.4395 C.ar    1  UNL1        0.1201
     20 C           3.9092  -13.8818  -28.4907 C.3     1  UNL1       -0.0479
     21 O          -1.1291   -8.6140  -35.0281 O.3     1  UNL1       -0.4951
     22 C           4.7067  -14.9174  -27.6573 C.3     1  UNL1       -0.0132
     23 C          -1.6649   -7.3183  -34.7076 C.3     1  UNL1        0.0788
     24 C           6.1137  -14.4103  -27.3205 C.2     1  UNL1        0.0417
     25 O           6.4599  -13.3537  -27.8202 O.co2   1  UNL1       -0.5498
     26 O           6.7862  -15.0893  -26.5638 O.co2   1  UNL1       -0.5498
     27 H           3.9287  -11.3876  -33.1285 H       1  UNL1        0.0602
     28 H           1.6481  -12.0376  -31.2834 H       1  UNL1        0.0465
     29 H           2.3713  -12.0085  -29.6569 H       1  UNL1        0.0465
     30 H           2.1651   -8.3407  -31.9675 H       1  UNL1        0.0622
     31 H           2.2119  -11.6710  -34.5566 H       1  UNL1        0.0622
     32 H           3.5942  -13.4909  -31.9494 H       1  UNL1        0.0280
     33 H           2.4521  -14.2108  -30.7941 H       1  UNL1        0.0280
     34 H           4.5002  -10.4154  -34.8083 H       1  UNL1        0.0309
     35 H           6.0585   -9.8862  -35.3956 H       1  UNL1        0.0309
     36 H           4.6621   -8.8498  -35.5673 H       1  UNL1        0.0309
     37 H           0.1469   -7.5276  -33.0515 H       1  UNL1        0.0654
     38 H           0.2041  -10.8515  -35.6560 H       1  UNL1        0.0654
     39 H           5.0992  -13.0066  -30.0466 H       1  UNL1        0.0266
     40 H           4.7650  -14.7394  -30.2413 H       1  UNL1        0.0266
     41 H           2.8760  -14.1597  -28.4755 H       1  UNL1        0.0269
     42 H           4.0811  -12.9238  -28.0461 H       1  UNL1        0.0269
     43 H           4.7900  -15.8244  -28.2188 H       1  UNL1        0.0325
     44 H           4.1825  -15.0821  -26.7392 H       1  UNL1        0.0325
     45 H          -2.5486   -7.1449  -35.2855 H       1  UNL1        0.0660
     46 H          -0.9381   -6.5660  -34.9329 H       1  UNL1        0.0660
     47 H          -1.9067   -7.2801  -33.6660 H       1  UNL1        0.0660
@<TRIPOS>BOND
     1     1     2    1
     2     1     3    1
     3     1     4    1
     4     2     5   am
     5     2     6    1
     6     3     7    2
     7     3     8    1
     8     4     9   ar
     9     4    10   ar
    10     5    11    2
    11     6    12    1
    12     7    13    1
    13     8    14    1
    14     8    15    2
    15     9    16   ar
    16    10    17   ar
    17    12    18    1
    18    16    19   ar
    19    18    20    1
    20    19    21    1
    21    20    22    1
    22    21    23    1
    23    22    24    1
    24    24    25   ar
    25    24    26   ar
    26     5     7    1
    27    17    19   ar
    28     1    27    1
    29     6    28    1
    30     6    29    1
    31     9    30    1
    32    10    31    1
    33    12    32    1
    34    12    33    1
    35    14    34    1
    36    14    35    1
    37    14    36    1
    38    16    37    1
    39    17    38    1
    40    18    39    1
    41    18    40    1
    42    20    41    1
    43    20    42    1
    44    22    43    1
    45    22    44    1
    46    23    45    1
    47    23    46    1
    48    23    47    1
@<TRIPOS>SUBSTRUCTURE
     1 UNL1        1 TEMP              0 ****  ****    0 ROOT


