##########                                Name: HTS1710-05221619-01
##########                    Molecular_Weight:              302.31
##########                DOCK_Rotatable_Bonds:                   7
##########                       Formal_Charge:                  -2
##########                     HBond_Acceptors:                   7
##########                        HBond_Donors:                   0
##########                         Heavy_Atoms:                  22
##########                          Grid_Score:          -75.954979
##########                     Grid_vdw_energy:          -39.209332
##########                      Grid_es_energy:          -36.745647
##########           Internal_energy_repulsive:           11.635021

@<TRIPOS>MOLECULE
HTS1710-05221619-01
 38 39 1 0 0
SMALL
USER_CHARGES


@<TRIPOS>ATOM
      1 C           1.9567  -10.4791  -35.5322 C.3     1  UNL1        0.0038
      2 N           3.0732  -11.2790  -34.9876 N.am    1  UNL1       -0.2978
      3 C           4.4134  -10.8642  -35.4558 C.3     1  UNL1        0.0268
      4 C           4.9849   -9.7532  -34.6165 C.2     1  UNL1       -0.0998
      5 C           4.8021   -9.6376  -33.2646 C.2     1  UNL1       -0.0630
      6 C           5.5087   -8.4613  -32.9009 C.2     1  UNL1       -0.0144
      7 C           5.6183   -7.8988  -31.5334 C.2     1  UNL1        0.0708
      8 O           5.4916   -8.6501  -30.5826 O.co2   1  UNL1       -0.5447
      9 O           5.8321   -6.7022  -31.4427 O.co2   1  UNL1       -0.5447
     10 C           6.0345   -8.0084  -34.0955 C.2     1  UNL1       -0.1120
     11 C           6.8809   -6.7737  -34.2729 C.3     1  UNL1       -0.0524
     12 O           5.7408   -8.7729  -35.1968 O.co2   1  UNL1       -0.7845
     13 C           2.9126  -12.3727  -34.1234 C.2     1  UNL1        0.2395
     14 O           3.8658  -13.0194  -33.7224 O.2     1  UNL1       -0.2706
     15 C           1.5194  -12.7303  -33.6938 C.2     1  UNL1        0.0010
     16 C           1.1615  -13.0979  -32.4385 C.2     1  UNL1       -0.0467
     17 C           2.0434  -13.2154  -31.2821 C.ar    1  UNL1        0.0126
     18 C           2.9682  -12.2426  -30.8121 C.ar    1  UNL1        0.0565
     19 N           3.6095  -12.6735  -29.7405 N.ar    1  UNL1       -0.1793
     20 N           3.1044  -13.9255  -29.5120 N.ar    1  UNL1       -0.2739
     21 C           3.5849  -14.7261  -28.3808 C.3     1  UNL1        0.0302
     22 C           2.1434  -14.2844  -30.4389 C.ar    1  UNL1        0.0323
     23 H           2.3455   -9.7065  -36.1622 H       1  UNL1        0.0429
     24 H           1.4068  -10.0393  -34.7264 H       1  UNL1        0.0429
     25 H           1.3092  -11.1121  -36.1022 H       1  UNL1        0.0429
     26 H           4.3366  -10.5276  -36.4686 H       1  UNL1        0.0502
     27 H           5.0669  -11.7078  -35.3768 H       1  UNL1        0.0502
     28 H           4.2679  -10.2675  -32.6459 H       1  UNL1        0.0615
     29 H           7.0159   -6.2947  -33.3258 H       1  UNL1        0.0266
     30 H           6.3931   -6.1006  -34.9466 H       1  UNL1        0.0266
     31 H           7.8344   -7.0493  -34.6724 H       1  UNL1        0.0266
     32 H           0.7765  -12.6936  -34.4091 H       1  UNL1        0.0670
     33 H           0.1646  -13.3166  -32.2858 H       1  UNL1        0.0626
     34 H           3.1185  -11.3207  -31.2508 H       1  UNL1        0.0854
     35 H           4.3309  -14.1763  -27.8460 H       1  UNL1        0.0473
     36 H           4.0072  -15.6396  -28.7442 H       1  UNL1        0.0473
     37 H           2.7671  -14.9465  -27.7270 H       1  UNL1        0.0473
     38 H           1.6152  -15.1699  -30.4838 H       1  UNL1        0.0832
@<TRIPOS>BOND
     1     1     2    1
     2     2     3    1
     3     3     4    1
     4     4     5    2
     5     5     6    1
     6     6     7    1
     7     7     8   ar
     8     7     9   ar
     9     6    10    2
    10    10    11    1
    11    10    12    1
    12     4    12    1
    13     2    13   am
    14    13    14    2
    15    13    15    1
    16    15    16    2
    17    16    17    1
    18    17    18   ar
    19    18    19   ar
    20    19    20   ar
    21    20    21    1
    22    20    22   ar
    23    17    22   ar
    24     1    23    1
    25     1    24    1
    26     1    25    1
    27     3    26    1
    28     3    27    1
    29     5    28    1
    30    11    29    1
    31    11    30    1
    32    11    31    1
    33    15    32    1
    34    16    33    1
    35    18    34    1
    36    21    35    1
    37    21    36    1
    38    21    37    1
    39    22    38    1
@<TRIPOS>SUBSTRUCTURE
     1 UNL1        1 TEMP              0 ****  ****    0 ROOT


