##########                                Name: HTS1710-04429402-01
##########                    Molecular_Weight:             380.398
##########                DOCK_Rotatable_Bonds:                   8
##########                       Formal_Charge:                  -2
##########                     HBond_Acceptors:                   9
##########                        HBond_Donors:                   0
##########                         Heavy_Atoms:                  26
##########                          Grid_Score:          -87.972443
##########                     Grid_vdw_energy:          -47.309948
##########                      Grid_es_energy:          -40.662495
##########           Internal_energy_repulsive:           17.206059

@<TRIPOS>MOLECULE
HTS1710-04429402-01
 44 45 1 0 0
SMALL
USER_CHARGES


@<TRIPOS>ATOM
      1 C           5.7864   -7.9924  -33.0912 C.2     1  UNL1       -0.0144
      2 S           3.4886  -13.2213  -28.9229 S.O2    1  UNL1       -0.0058
      3 C           6.1971   -7.3431  -34.2397 C.2     1  UNL1       -0.1120
      4 C           5.5041   -9.2062  -34.9178 C.2     1  UNL1       -0.0998
      5 O           6.0458   -8.0492  -35.4057 O.co2   1  UNL1       -0.7845
      6 C           5.3198   -9.2473  -33.5612 C.2     1  UNL1       -0.0630
      7 C           5.7961   -7.5400  -31.6802 C.2     1  UNL1        0.0708
      8 C           2.7143  -10.8372  -35.5178 C.2     1  UNL1        0.2532
      9 C           2.5329  -13.4380  -30.4340 C.ar    1  UNL1        0.0913
     10 N           4.0560  -11.1702  -35.3059 N.am    1  UNL1       -0.2985
     11 C           5.1421  -10.3299  -35.8538 C.3     1  UNL1        0.0266
     12 C           2.4109  -12.3826  -31.3564 C.ar    1  UNL1        0.0049
     13 O           2.5783  -13.2078  -27.7740 O.2     1  UNL1       -0.1696
     14 O           4.4619  -12.1463  -29.1412 O.2     1  UNL1       -0.1696
     15 C           1.6634  -11.7851  -34.9003 C.3     1  UNL1        0.1653
     16 O           5.9399   -6.3513  -31.4507 O.co2   1  UNL1       -0.5447
     17 O           2.3844   -9.8862  -36.2082 O.2     1  UNL1       -0.2719
     18 O           1.5197  -11.5539  -33.4821 O.3     1  UNL1       -0.4827
     19 C           1.6523  -12.5553  -32.5365 C.ar    1  UNL1        0.1230
     20 O           5.6572   -8.3961  -30.8232 O.co2   1  UNL1       -0.5447
     21 C           4.4412  -14.7549  -28.8188 C.3     1  UNL1        0.0596
     22 C           6.7673   -5.9481  -34.3009 C.3     1  UNL1       -0.0524
     23 C           1.8928  -14.6645  -30.6855 C.ar    1  UNL1       -0.0367
     24 C           4.4843  -12.4131  -34.6297 C.3     1  UNL1        0.0036
     25 C           1.1312  -14.8345  -31.8512 C.ar    1  UNL1       -0.0565
     26 C           1.0105  -13.7824  -32.7727 C.ar    1  UNL1       -0.0198
     27 H           4.9275  -10.0216  -33.0031 H       1  UNL1        0.0615
     28 H           4.8222   -9.9147  -36.7866 H       1  UNL1        0.0502
     29 H           6.0068  -10.9464  -35.9846 H       1  UNL1        0.0502
     30 H           2.8763  -11.4804  -31.1709 H       1  UNL1        0.0673
     31 H           1.9706  -12.7976  -35.0593 H       1  UNL1        0.0795
     32 H           0.7208  -11.5980  -35.3710 H       1  UNL1        0.0795
     33 H           3.7762  -15.5777  -28.6588 H       1  UNL1        0.0468
     34 H           5.1320  -14.6910  -28.0043 H       1  UNL1        0.0468
     35 H           4.9790  -14.9033  -29.7319 H       1  UNL1        0.0468
     36 H           6.8187   -5.5401  -33.3130 H       1  UNL1        0.0266
     37 H           6.1383   -5.3320  -34.9090 H       1  UNL1        0.0266
     38 H           7.7495   -5.9826  -34.7241 H       1  UNL1        0.0266
     39 H           1.9835  -15.4408  -30.0114 H       1  UNL1        0.0636
     40 H           3.6238  -12.9405  -34.2741 H       1  UNL1        0.0429
     41 H           5.1196  -12.1692  -33.8039 H       1  UNL1        0.0429
     42 H           5.0196  -13.0294  -35.3215 H       1  UNL1        0.0429
     43 H           0.6590  -15.7342  -32.0316 H       1  UNL1        0.0619
     44 H           0.4475  -13.9110  -33.6279 H       1  UNL1        0.0654
@<TRIPOS>BOND
     1     2     9    1
     2     1     3    2
     3     4     6    2
     4     3     5    1
     5     1     6    1
     6     1     7    1
     7     8    10   am
     8     9    12   ar
     9    10    11    1
    10     4    11    1
    11    12    19   ar
    12     2    13    2
    13     2    14    2
    14     8    15    1
    15     7    16   ar
    16     8    17    2
    17    15    18    1
    18    18    19    1
    19     7    20   ar
    20     2    21    1
    21     3    22    1
    22     9    23   ar
    23    10    24    1
    24    25    26   ar
    25    19    26   ar
    26     4     5    1
    27    23    25   ar
    28     6    27    1
    29    11    28    1
    30    11    29    1
    31    12    30    1
    32    15    31    1
    33    15    32    1
    34    21    33    1
    35    21    34    1
    36    21    35    1
    37    22    36    1
    38    22    37    1
    39    22    38    1
    40    23    39    1
    41    24    40    1
    42    24    41    1
    43    24    42    1
    44    25    43    1
    45    26    44    1
@<TRIPOS>SUBSTRUCTURE
     1 UNL1        1 TEMP              0 ****  ****    0 ROOT


