##########                                Name: HTS1710-04712025-01
##########                    Molecular_Weight:             343.381
##########                DOCK_Rotatable_Bonds:                   6
##########                       Formal_Charge:                  -2
##########                     HBond_Acceptors:                   9
##########                        HBond_Donors:                   1
##########                         Heavy_Atoms:                  23
##########                          Grid_Score:          -75.749901
##########                     Grid_vdw_energy:          -40.744019
##########                      Grid_es_energy:          -35.005882
##########           Internal_energy_repulsive:           12.525051

@<TRIPOS>MOLECULE
HTS1710-04712025-01
 42 43 1 0 0
SMALL
USER_CHARGES


@<TRIPOS>ATOM
      1 C           6.6897   -6.4382  -33.8228 C.3     1  UNL1       -0.0524
      2 C           5.9652   -7.6650  -33.3322 C.2     1  UNL1       -0.1120
      3 O           5.7356   -7.8018  -31.9883 O.co2   1  UNL1       -0.7845
      4 C           5.0471   -8.9830  -31.9789 C.2     1  UNL1       -0.1000
      5 C           4.4801   -9.5110  -30.6902 C.3     1  UNL1        0.0240
      6 N           4.4786  -10.9754  -30.7546 N.am    1  UNL1       -0.3110
      7 C           4.5073  -11.7701  -29.6161 C.2     1  UNL1        0.2321
      8 O           4.5495  -11.2403  -28.5173 O.2     1  UNL1       -0.2740
      9 C           4.5040  -13.3056  -29.7561 C.3     1  UNL1        0.1074
     10 C           5.1460  -14.0373  -28.5424 C.3     1  UNL1       -0.0272
     11 C           4.1960  -14.1954  -27.3306 C.3     1  UNL1       -0.0499
     12 C           2.8167  -14.7321  -27.7644 C.3     1  UNL1       -0.0385
     13 C           2.2201  -13.9155  -28.9314 C.3     1  UNL1        0.0209
     14 N           3.1493  -13.8393  -30.0866 N.3     1  UNL1       -0.1695
     15 S           2.4808  -13.3797  -31.5634 S.O2    1  UNL1        0.0296
     16 O           3.4852  -13.5993  -32.5897 O.2     1  UNL1       -0.1583
     17 O           1.8816  -12.0656  -31.4078 O.2     1  UNL1       -0.1583
     18 C           1.2031  -14.6318  -31.8464 C.3     1  UNL1        0.0707
     19 C           4.8506   -9.5632  -33.2037 C.2     1  UNL1       -0.0630
     20 C           5.4672   -8.6784  -34.1285 C.2     1  UNL1       -0.0144
     21 C           5.5105   -8.8425  -35.6007 C.2     1  UNL1        0.0708
     22 O           6.0493   -7.9559  -36.2415 O.co2   1  UNL1       -0.5447
     23 O           5.0138   -9.8417  -36.0896 O.co2   1  UNL1       -0.5447
     24 H           6.9608   -5.8263  -32.9878 H       1  UNL1        0.0266
     25 H           6.0502   -5.8844  -34.4780 H       1  UNL1        0.0266
     26 H           7.5725   -6.7325  -34.3508 H       1  UNL1        0.0266
     27 H           3.4798   -9.1534  -30.5616 H       1  UNL1        0.0500
     28 H           5.0719   -9.1786  -29.8632 H       1  UNL1        0.0500
     29 H           4.4565  -11.4114  -31.6370 H       1  UNL1        0.1490
     30 H           5.1371  -13.5218  -30.5912 H       1  UNL1        0.0575
     31 H           6.0033  -13.4795  -28.2278 H       1  UNL1        0.0286
     32 H           5.3959  -15.0243  -28.8717 H       1  UNL1        0.0286
     33 H           4.0671  -13.2419  -26.8623 H       1  UNL1        0.0266
     34 H           4.6316  -14.8964  -26.6497 H       1  UNL1        0.0266
     35 H           2.1484  -14.6820  -26.9304 H       1  UNL1        0.0278
     36 H           2.9441  -15.7409  -28.0977 H       1  UNL1        0.0278
     37 H           2.0124  -12.9234  -28.5887 H       1  UNL1        0.0444
     38 H           1.3268  -14.4065  -29.2568 H       1  UNL1        0.0444
     39 H           1.6628  -15.5915  -31.9584 H       1  UNL1        0.0479
     40 H           0.6586  -14.3912  -32.7355 H       1  UNL1        0.0479
     41 H           0.5330  -14.6525  -31.0124 H       1  UNL1        0.0479
     42 H           4.3622  -10.4486  -33.4096 H       1  UNL1        0.0615
@<TRIPOS>BOND
     1     1     2    1
     2     2     3    1
     3     3     4    1
     4     4     5    1
     5     5     6    1
     6     6     7   am
     7     7     8    2
     8     7     9    1
     9     9    10    1
    10    10    11    1
    11    11    12    1
    12    12    13    1
    13    13    14    1
    14     9    14    1
    15    14    15    1
    16    15    16    2
    17    15    17    2
    18    15    18    1
    19     4    19    2
    20    19    20    1
    21     2    20    2
    22    20    21    1
    23    21    22   ar
    24    21    23   ar
    25     1    24    1
    26     1    25    1
    27     1    26    1
    28     5    27    1
    29     5    28    1
    30     6    29    1
    31     9    30    1
    32    10    31    1
    33    10    32    1
    34    11    33    1
    35    11    34    1
    36    12    35    1
    37    12    36    1
    38    13    37    1
    39    13    38    1
    40    18    39    1
    41    18    40    1
    42    18    41    1
    43    19    42    1
@<TRIPOS>SUBSTRUCTURE
     1 UNL1        1 TEMP              0 ****  ****    0 ROOT


