HTS1710-02196458-01
 OpenBabel03232612353D

 50 50  0  0  0  0  0  0  0  0999 V2000
    3.3459  -13.5614  -32.4939 C   0  0  0  0  0  0  0  0  0  0  0  0
    3.4316   -9.1408  -29.9013 C   0  0  0  0  0  0  0  0  0  0  0  0
    4.1039   -9.4713  -36.3135 C   0  0  0  0  0  0  0  0  0  0  0  0
   -1.1259   -7.3256  -32.7185 C   0  0  0  0  0  0  0  0  0  0  0  0
    2.4011  -13.2874  -30.2516 O   0  0  0  0  0  0  0  0  0  0  0  0
    4.3319  -11.3236  -29.2549 O   0  0  0  0  0  0  0  0  0  0  0  0
    4.3463  -12.6667  -28.9068 C   0  0  0  0  0  0  0  0  0  0  0  0
    3.4089  -13.6318  -29.3725 C   0  0  0  0  0  0  0  0  0  0  0  0
    4.5148   -8.8282  -30.3686 O   0  0  0  0  0  0  0  0  0  0  0  0
    4.4910  -13.9448  -32.3191 O   0  0  0  0  0  0  0  0  0  0  0  0
    4.8800   -9.1454  -35.4320 O   0  5  0  0  0  0  0  0  0  0  0  0
   -1.7733   -6.5647  -32.0201 O   0  5  0  0  0  0  0  0  0  0  0  0
    2.2242  -13.9475  -31.5236 C   0  0  0  0  0  0  0  0  0  0  0  0
    3.2300  -10.4123  -29.0713 C   0  0  0  0  0  0  0  0  0  0  0  0
    3.0373  -12.7665  -33.5895 N   0  0  0  0  0  0  0  0  0  0  0  0
    2.3201   -8.3421  -30.1270 N   0  0  0  0  0  0  0  0  0  0  0  0
    4.1553   -9.1034  -37.4734 O   0  0  0  0  0  0  0  0  0  0  0  0
   -1.4494   -7.7185  -33.8253 O   0  0  0  0  0  0  0  0  0  0  0  0
    0.2247   -7.7997  -32.1697 C   0  0  0  0  0  0  0  0  0  0  0  0
    2.9502  -10.4071  -35.9260 C   0  0  0  0  0  0  0  0  0  0  0  0
    3.5248  -14.9718  -28.9460 C   0  0  0  0  0  0  0  0  0  0  0  0
    5.3579  -13.0689  -28.0162 C   0  0  0  0  0  0  0  0  0  0  0  0
    4.0374  -12.3417  -34.5765 C   0  0  0  0  0  0  0  0  0  0  0  0
    2.3845   -7.0993  -30.9066 C   0  0  0  0  0  0  0  0  0  0  0  0
    3.3497  -11.9067  -35.8951 C   0  0  0  0  0  0  0  0  0  0  0  0
    0.9718   -6.6874  -31.3881 C   0  0  0  0  0  0  0  0  0  0  0  0
    5.4594  -14.4029  -27.5964 C   0  0  0  0  0  0  0  0  0  0  0  0
    4.5458  -15.3552  -28.0649 C   0  0  0  0  0  0  0  0  0  0  0  0
    2.2376  -15.0070  -31.3746 H   0  0  0  0  0  0  0  0  0  0  0  0
    1.2873  -13.6437  -31.9418 H   0  0  0  0  0  0  0  0  0  0  0  0
    2.3238  -10.8913  -29.3779 H   0  0  0  0  0  0  0  0  0  0  0  0
    3.1770  -10.1421  -28.0373 H   0  0  0  0  0  0  0  0  0  0  0  0
    2.1049  -12.4744  -33.7101 H   0  0  0  0  0  0  0  0  0  0  0  0
    1.4541   -8.6193  -29.7497 H   0  0  0  0  0  0  0  0  0  0  0  0
    0.8370   -8.1137  -32.9891 H   0  0  0  0  0  0  0  0  0  0  0  0
    0.0352   -8.6038  -31.4897 H   0  0  0  0  0  0  0  0  0  0  0  0
    2.1602  -10.2821  -36.6367 H   0  0  0  0  0  0  0  0  0  0  0  0
    2.6509  -10.1416  -34.9337 H   0  0  0  0  0  0  0  0  0  0  0  0
    2.8516  -15.6764  -29.2858 H   0  0  0  0  0  0  0  0  0  0  0  0
    6.0349  -12.3726  -27.6670 H   0  0  0  0  0  0  0  0  0  0  0  0
    4.7013  -13.1563  -34.7779 H   0  0  0  0  0  0  0  0  0  0  0  0
    4.5823  -11.5104  -34.1804 H   0  0  0  0  0  0  0  0  0  0  0  0
    3.0165   -7.2494  -31.7569 H   0  0  0  0  0  0  0  0  0  0  0  0
    2.7792   -6.3218  -30.2864 H   0  0  0  0  0  0  0  0  0  0  0  0
    4.0235  -12.0934  -36.7050 H   0  0  0  0  0  0  0  0  0  0  0  0
    2.4453  -12.4726  -35.9772 H   0  0  0  0  0  0  0  0  0  0  0  0
    0.3866   -6.4267  -30.5310 H   0  0  0  0  0  0  0  0  0  0  0  0
    1.1007   -5.8668  -32.0626 H   0  0  0  0  0  0  0  0  0  0  0  0
    6.2071  -14.6827  -26.9424 H   0  0  0  0  0  0  0  0  0  0  0  0
    4.6240  -16.3386  -27.7619 H   0  0  0  0  0  0  0  0  0  0  0  0
  1 10  2  0  0  0  0
  1 13  1  0  0  0  0
  1 15  1  0  0  0  0
  2  9  2  0  0  0  0
  2 14  1  0  0  0  0
  2 16  1  0  0  0  0
  3 11  1  0  0  0  0
  3 17  2  0  0  0  0
  3 20  1  0  0  0  0
  4 12  1  0  0  0  0
  4 18  2  0  0  0  0
  4 19  1  0  0  0  0
  5  8  1  0  0  0  0
  5 13  1  0  0  0  0
  6  7  1  0  0  0  0
  6 14  1  0  0  0  0
  7  8  2  0  0  0  0
  7 22  1  0  0  0  0
  8 21  1  0  0  0  0
 13 29  1  0  0  0  0
 13 30  1  0  0  0  0
 14 31  1  0  0  0  0
 14 32  1  0  0  0  0
 15 23  1  0  0  0  0
 15 33  1  0  0  0  0
 16 24  1  0  0  0  0
 16 34  1  0  0  0  0
 19 26  1  0  0  0  0
 19 35  1  0  0  0  0
 19 36  1  0  0  0  0
 20 25  1  0  0  0  0
 20 37  1  0  0  0  0
 20 38  1  0  0  0  0
 21 28  2  0  0  0  0
 21 39  1  0  0  0  0
 22 27  2  0  0  0  0
 22 40  1  0  0  0  0
 23 25  1  0  0  0  0
 23 41  1  0  0  0  0
 23 42  1  0  0  0  0
 24 26  1  0  0  0  0
 24 43  1  0  0  0  0
 24 44  1  0  0  0  0
 25 45  1  0  0  0  0
 25 46  1  0  0  0  0
 26 47  1  0  0  0  0
 26 48  1  0  0  0  0
 27 28  1  0  0  0  0
 27 49  1  0  0  0  0
 28 50  1  0  0  0  0
M  CHG  2  11  -1  12  -1
M  END
$$$$
