##########                                Name: HTS1710-01433501-01
##########                    Molecular_Weight:             409.343
##########                DOCK_Rotatable_Bonds:                   9
##########                       Formal_Charge:                  -2
##########                     HBond_Acceptors:                  10
##########                        HBond_Donors:                   0
##########                         Heavy_Atoms:                  29
##########                          Grid_Score:          -77.631393
##########                     Grid_vdw_energy:          -45.653042
##########                      Grid_es_energy:          -31.978352
##########           Internal_energy_repulsive:           18.066158

@<TRIPOS>MOLECULE
HTS1710-01433501-01
 46 47 1 0 0
SMALL
USER_CHARGES


@<TRIPOS>ATOM
      1 C           3.8020  -10.9380  -31.9719 C.ar    1  UNL1        0.0174
      2 C           3.1154  -12.1482  -32.5041 C.ar    1  UNL1        0.2550
      3 N           2.9001  -13.1603  -31.5662 N.ar    1  UNL1       -0.3070
      4 C           4.2347  -10.8191  -30.6577 C.ar    1  UNL1       -0.0978
      5 C           4.0369   -9.7756  -32.9471 C.3     1  UNL1        0.0239
      6 C           3.9764  -11.9154  -29.7681 C.ar    1  UNL1       -0.0498
      7 C           3.3176  -13.0360  -30.2340 C.ar    1  UNL1        0.0188
      8 C           2.7438   -9.3800  -33.6818 C.ar    1  UNL1       -0.0358
      9 C           2.2047  -14.3971  -32.0278 C.3     1  UNL1        0.0657
     10 O           2.7683  -12.2524  -33.6701 O.2     1  UNL1       -0.2674
     11 C           5.2644  -10.0644  -33.8645 C.3     1  UNL1        0.0559
     12 C           0.7263  -14.1121  -32.3280 C.2     1  UNL1        0.0615
     13 C           5.7354   -8.8134  -34.6146 C.2     1  UNL1        0.3077
     14 C          -1.6060   -7.0870  -33.4647 C.3     1  UNL1        0.3893
     15 C           1.7080   -8.7805  -32.9354 C.ar    1  UNL1       -0.0160
     16 O          -0.5487   -7.8406  -32.8422 O.3     1  UNL1       -0.4342
     17 C           0.4924   -8.4124  -33.5502 C.ar    1  UNL1        0.1271
     18 O           0.0604  -13.6207  -31.4348 O.co2   1  UNL1       -0.5480
     19 O           5.5629   -8.6400  -35.8102 O.2     1  UNL1       -0.2508
     20 O           4.8799   -9.7372  -30.1708 O.co2   1  UNL1       -0.8733
     21 F          -1.1030   -6.0227  -34.1276 F       1  UNL1       -0.1663
     22 F          -2.4386   -6.5987  -32.5211 F       1  UNL1       -0.1663
     23 O           0.3137  -14.4030  -33.4381 O.co2   1  UNL1       -0.5480
     24 O           6.3673   -7.9325  -33.7824 O.3     1  UNL1       -0.4679
     25 C           3.0727  -14.1496  -29.2317 C.3     1  UNL1       -0.0242
     26 C           2.5547   -9.5811  -35.0678 C.ar    1  UNL1       -0.0578
     27 C           1.3518   -9.2021  -35.6828 C.ar    1  UNL1       -0.0580
     28 C           0.3228   -8.6220  -34.9269 C.ar    1  UNL1       -0.0197
     29 C           6.8670   -6.6957  -34.3216 C.3     1  UNL1        0.0817
     30 H           4.3009   -8.8976  -32.3955 H       1  UNL1        0.0404
     31 H           4.2819  -11.8663  -28.7835 H       1  UNL1        0.0629
     32 H           2.2699  -15.1424  -31.2628 H       1  UNL1        0.0554
     33 H           2.6765  -14.7412  -32.9245 H       1  UNL1        0.0554
     34 H           4.9917  -10.8123  -34.5794 H       1  UNL1        0.0387
     35 H           6.0688  -10.3953  -33.2414 H       1  UNL1        0.0387
     36 H          -2.1193   -7.7432  -34.1362 H       1  UNL1        0.1520
     37 H           1.8410   -8.6088  -31.9265 H       1  UNL1        0.0657
     38 H           3.4632  -13.8629  -28.2775 H       1  UNL1        0.0292
     39 H           3.5610  -15.0419  -29.5635 H       1  UNL1        0.0292
     40 H           2.0211  -14.3287  -29.1474 H       1  UNL1        0.0292
     41 H           3.3059  -10.0093  -35.6311 H       1  UNL1        0.0621
     42 H           1.2236   -9.3509  -36.6960 H       1  UNL1        0.0619
     43 H          -0.5609   -8.3487  -35.3844 H       1  UNL1        0.0654
     44 H           7.3296   -6.1277  -33.5418 H       1  UNL1        0.0661
     45 H           6.0565   -6.1351  -34.7384 H       1  UNL1        0.0661
     46 H           7.5863   -6.9046  -35.0857 H       1  UNL1        0.0661
@<TRIPOS>BOND
     1     1     2   ar
     2     2     3   ar
     3     1     4   ar
     4     1     5    1
     5     4     6   ar
     6     6     7   ar
     7     5     8    1
     8     3     9    1
     9     2    10    2
    10     5    11    1
    11     9    12    1
    12    11    13    1
    13    14    16    1
    14     8    15   ar
    15    16    17    1
    16    15    17   ar
    17    12    18   ar
    18    13    19    2
    19     4    20    1
    20    14    21    1
    21    14    22    1
    22    12    23   ar
    23    13    24    1
    24     7    25    1
    25     8    26   ar
    26    26    27   ar
    27    27    28   ar
    28    24    29    1
    29     3     7   ar
    30    17    28   ar
    31     5    30    1
    32     6    31    1
    33     9    32    1
    34     9    33    1
    35    11    34    1
    36    11    35    1
    37    14    36    1
    38    15    37    1
    39    25    38    1
    40    25    39    1
    41    25    40    1
    42    26    41    1
    43    27    42    1
    44    28    43    1
    45    29    44    1
    46    29    45    1
    47    29    46    1
@<TRIPOS>SUBSTRUCTURE
     1 UNL1        1 TEMP              0 ****  ****    0 ROOT


