##########                                Name: HTS1710-00300505-01
##########                    Molecular_Weight:             317.321
##########                DOCK_Rotatable_Bonds:                   7
##########                       Formal_Charge:                  -2
##########                     HBond_Acceptors:                   7
##########                        HBond_Donors:                   1
##########                         Heavy_Atoms:                  23
##########                          Grid_Score:          -75.049500
##########                     Grid_vdw_energy:          -40.844254
##########                      Grid_es_energy:          -34.205242
##########           Internal_energy_repulsive:            8.745214

@<TRIPOS>MOLECULE
HTS1710-00300505-01
 40 41 1 0 0
SMALL
USER_CHARGES


@<TRIPOS>ATOM
      1 C           5.6489   -8.5914  -33.3214 C.2     1  UNL1        0.0094
      2 C           5.1425   -8.9745  -32.1058 C.2     1  UNL1       -0.0755
      3 O           5.3601   -8.0631  -31.1242 O.co2   1  UNL1       -0.7130
      4 N           6.0711   -6.9855  -31.7323 N.2     1  UNL1       -0.3078
      5 C           6.2299   -7.3147  -33.0104 C.2     1  UNL1        0.0367
      6 C           5.6223   -9.2887  -34.6485 C.2     1  UNL1        0.0726
      7 C           4.4157  -10.2507  -31.7225 C.3     1  UNL1        0.0342
      8 C           2.7690  -11.7861  -32.8373 C.2     1  UNL1        0.2178
      9 N           3.2783  -10.5164  -32.6096 N.am    1  UNL1       -0.3095
     10 O           5.7571  -10.4993  -34.6606 O.co2   1  UNL1       -0.5446
     11 O           3.2617  -12.7567  -32.2857 O.2     1  UNL1       -0.2754
     12 C           1.5774  -11.9164  -33.7886 C.3     1  UNL1        0.0492
     13 C           1.4924  -10.7115  -34.7187 C.ar    1  UNL1       -0.0352
     14 O           5.4727   -8.6258  -35.6584 O.co2   1  UNL1       -0.5446
     15 C           0.6269   -9.6433  -34.4120 C.ar    1  UNL1       -0.0163
     16 C           0.5080   -8.5485  -35.2949 C.ar    1  UNL1        0.1204
     17 O          -0.3429   -7.4893  -35.0427 O.3     1  UNL1       -0.4951
     18 C           6.9288   -6.4443  -34.0274 C.3     1  UNL1       -0.0225
     19 C           3.9581  -10.2574  -30.2459 C.3     1  UNL1       -0.0435
     20 C           2.1303   -9.5887  -36.7831 C.ar    1  UNL1       -0.0580
     21 C           2.2416  -10.6803  -35.9081 C.ar    1  UNL1       -0.0579
     22 C           1.2657   -8.5269  -36.4781 C.ar    1  UNL1       -0.0199
     23 C          -1.4296   -7.5678  -34.1033 C.3     1  UNL1        0.0788
     24 H           5.1291  -11.0395  -31.8402 H       1  UNL1        0.0534
     25 H           2.8547   -9.7543  -33.0669 H       1  UNL1        0.1492
     26 H           0.6763  -11.9811  -33.2152 H       1  UNL1        0.0407
     27 H           1.7064  -12.7981  -34.3808 H       1  UNL1        0.0407
     28 H           0.0776   -9.6613  -33.5385 H       1  UNL1        0.0657
     29 H           7.2733   -5.5488  -33.5538 H       1  UNL1        0.0292
     30 H           6.2454   -6.1929  -34.8114 H       1  UNL1        0.0292
     31 H           7.7628   -6.9745  -34.4376 H       1  UNL1        0.0292
     32 H           3.2412   -9.4782  -30.0911 H       1  UNL1        0.0250
     33 H           4.8032  -10.0961  -29.6098 H       1  UNL1        0.0250
     34 H           3.5129  -11.2026  -30.0147 H       1  UNL1        0.0250
     35 H           2.6856   -9.5671  -37.6526 H       1  UNL1        0.0619
     36 H           2.8748  -11.4621  -36.1382 H       1  UNL1        0.0620
     37 H           1.1859   -7.7270  -37.1251 H       1  UNL1        0.0654
     38 H          -1.9464   -6.6313  -34.0766 H       1  UNL1        0.0660
     39 H          -1.0443   -7.7904  -33.1301 H       1  UNL1        0.0660
     40 H          -2.1062   -8.3401  -34.4043 H       1  UNL1        0.0660
@<TRIPOS>BOND
     1     1     2    2
     2     2     3    1
     3     4     5    2
     4     1     5    1
     5     1     6    1
     6     2     7    1
     7     8     9   am
     8     7     9    1
     9     6    10   ar
    10     8    11    2
    11     8    12    1
    12    12    13    1
    13     6    14   ar
    14    13    15   ar
    15    15    16   ar
    16    16    17    1
    17     5    18    1
    18     7    19    1
    19    20    21   ar
    20    13    21   ar
    21    16    22   ar
    22    17    23    1
    23     3     4    1
    24    20    22   ar
    25     7    24    1
    26     9    25    1
    27    12    26    1
    28    12    27    1
    29    15    28    1
    30    18    29    1
    31    18    30    1
    32    18    31    1
    33    19    32    1
    34    19    33    1
    35    19    34    1
    36    20    35    1
    37    21    36    1
    38    22    37    1
    39    23    38    1
    40    23    39    1
    41    23    40    1
@<TRIPOS>SUBSTRUCTURE
     1 UNL1        1 TEMP              0 ****  ****    0 ROOT


