##########                                Name: HTS1710-05407639-01
##########                    Molecular_Weight:              340.38
##########                DOCK_Rotatable_Bonds:                   7
##########                       Formal_Charge:                  -2
##########                     HBond_Acceptors:                   9
##########                        HBond_Donors:                   1
##########                         Heavy_Atoms:                  23
##########                          Grid_Score:          -81.139191
##########                     Grid_vdw_energy:          -43.945610
##########                      Grid_es_energy:          -37.193577
##########           Internal_energy_repulsive:           14.161020

@<TRIPOS>MOLECULE
HTS1710-05407639-01
 41 42 1 0 0
SMALL
USER_CHARGES


@<TRIPOS>ATOM
      1 C           6.7028   -7.1139  -34.0491 C.3     1  UNL1       -0.0524
      2 C           5.7481   -8.2811  -34.0015 C.2     1  UNL1       -0.1101
      3 O           5.3892   -8.8658  -35.1784 O.co2   1  UNL1       -0.7844
      4 C           4.5478   -9.8390  -34.7245 C.2     1  UNL1       -0.0934
      5 C           3.9168  -10.7604  -35.7378 C.3     1  UNL1       -0.0512
      6 C           4.3586   -9.8989  -33.3571 C.2     1  UNL1        0.1023
      7 C           5.1879   -8.8315  -32.8642 C.2     1  UNL1        0.0118
      8 C           5.3931   -8.4018  -31.4486 C.2     1  UNL1        0.0727
      9 O           5.8543   -7.2939  -31.2422 O.co2   1  UNL1       -0.5446
     10 O           5.0902   -9.1781  -30.5627 O.co2   1  UNL1       -0.5446
     11 S           3.2886  -11.0621  -32.4755 S.O2    1  UNL1        0.0581
     12 O           2.7701  -12.0129  -33.4633 O.2     1  UNL1       -0.1531
     13 O           2.4197  -10.3752  -31.5157 O.2     1  UNL1       -0.1531
     14 N           4.3389  -12.0110  -31.5363 N.3     1  UNL1       -0.1900
     15 C           3.8799  -13.3527  -31.1395 C.3     1  UNL1        0.0177
     16 C           2.9845  -13.2677  -29.8824 C.3     1  UNL1       -0.0347
     17 C           3.7494  -12.7620  -28.6343 C.3     1  UNL1       -0.0236
     18 C           4.7279  -13.7873  -28.1250 C.ar    1  UNL1       -0.0099
     19 C           6.0064  -13.4663  -27.6176 C.ar    1  UNL1        0.0525
     20 N           6.6239  -14.5768  -27.2486 N.ar    1  UNL1       -0.1796
     21 N           5.7336  -15.5952  -27.5290 N.ar    1  UNL1       -0.2742
     22 C           6.0818  -16.9890  -27.2388 C.3     1  UNL1        0.0302
     23 C           4.5465  -15.1325  -28.0765 C.ar    1  UNL1        0.0283
     24 H           6.9681   -6.9113  -35.0657 H       1  UNL1        0.0266
     25 H           7.5843   -7.3513  -33.4910 H       1  UNL1        0.0266
     26 H           6.2331   -6.2515  -33.6244 H       1  UNL1        0.0266
     27 H           4.2388  -10.4843  -36.7201 H       1  UNL1        0.0267
     28 H           2.8515  -10.6821  -35.6764 H       1  UNL1        0.0267
     29 H           4.2125  -11.7687  -35.5357 H       1  UNL1        0.0267
     30 H           4.5362  -11.4914  -30.6811 H       1  UNL1        0.1480
     31 H           4.7296  -13.9669  -30.9259 H       1  UNL1        0.0441
     32 H           3.3117  -13.7757  -31.9415 H       1  UNL1        0.0441
     33 H           2.5953  -14.2422  -29.6732 H       1  UNL1        0.0281
     34 H           2.2047  -12.5649  -30.0890 H       1  UNL1        0.0281
     35 H           3.0435  -12.5426  -27.8607 H       1  UNL1        0.0315
     36 H           4.2989  -11.8871  -28.9126 H       1  UNL1        0.0315
     37 H           6.3978  -12.5142  -27.5459 H       1  UNL1        0.0850
     38 H           7.0656  -17.0311  -26.8203 H       1  UNL1        0.0473
     39 H           6.0545  -17.5593  -28.1438 H       1  UNL1        0.0473
     40 H           5.3795  -17.3942  -26.5406 H       1  UNL1        0.0473
     41 H           3.7234  -15.6788  -28.3751 H       1  UNL1        0.0829
@<TRIPOS>BOND
     1     1     2    1
     2     2     3    1
     3     3     4    1
     4     4     5    1
     5     4     6    2
     6     6     7    1
     7     2     7    2
     8     7     8    1
     9     8     9   ar
    10     8    10   ar
    11     6    11    1
    12    11    12    2
    13    11    13    2
    14    11    14    1
    15    14    15    1
    16    15    16    1
    17    16    17    1
    18    17    18    1
    19    18    19   ar
    20    19    20   ar
    21    20    21   ar
    22    21    22    1
    23    21    23   ar
    24    18    23   ar
    25     1    24    1
    26     1    25    1
    27     1    26    1
    28     5    27    1
    29     5    28    1
    30     5    29    1
    31    14    30    1
    32    15    31    1
    33    15    32    1
    34    16    33    1
    35    16    34    1
    36    17    35    1
    37    17    36    1
    38    19    37    1
    39    22    38    1
    40    22    39    1
    41    22    40    1
    42    23    41    1
@<TRIPOS>SUBSTRUCTURE
     1 UNL1        1 TEMP              0 ****  ****    0 ROOT


