##########                                Name: HTS1710-01263438-01
##########                    Molecular_Weight:             416.341
##########                DOCK_Rotatable_Bonds:                   9
##########                       Formal_Charge:                  -2
##########                     HBond_Acceptors:                  10
##########                        HBond_Donors:                   4
##########                         Heavy_Atoms:                  30
##########                          Grid_Score:          -79.328964
##########                     Grid_vdw_energy:          -44.402180
##########                      Grid_es_energy:          -34.926788
##########           Internal_energy_repulsive:           11.458070

@<TRIPOS>MOLECULE
HTS1710-01263438-01
 46 49 1 0 0
SMALL
USER_CHARGES


@<TRIPOS>ATOM
      1 C           3.7360   -7.4339  -31.4852 C.2     1  UNL1       -0.0603
      2 C           2.8452   -9.7051  -30.7442 C.2     1  UNL1       -0.0603
      3 C           2.5136   -8.2691  -31.1388 C.3     1  UNL1        0.0154
      4 C           4.7989   -7.9937  -32.1762 C.2     1  UNL1        0.1535
      5 C           3.4483  -10.0401  -29.5342 C.2     1  UNL1        0.1535
      6 C           3.7400  -11.4395  -29.1809 C.2     1  UNL1        0.2184
      7 C           5.9796   -7.2000  -32.5488 C.2     1  UNL1        0.2184
      8 O           2.4886  -10.6449  -31.6932 O.co2   1  UNL1       -0.7814
      9 O           3.6992   -6.1101  -31.0885 O.co2   1  UNL1       -0.7814
     10 C           1.4154   -8.1733  -32.2056 C.ar    1  UNL1       -0.0339
     11 C           3.3319  -12.3832  -30.2181 C.2     1  UNL1       -0.0198
     12 C           5.8768   -5.8035  -32.1271 C.2     1  UNL1       -0.0198
     13 C           4.7773   -5.3287  -31.4454 C.2     1  UNL1       -0.0884
     14 C           2.7481  -11.9653  -31.3925 C.2     1  UNL1       -0.0884
     15 C           0.1372   -7.6363  -31.9079 C.ar    1  UNL1       -0.0121
     16 C          -0.8147   -7.6019  -32.9311 C.ar    1  UNL1        0.1665
     17 C          -0.5465   -8.0632  -34.1882 C.ar    1  UNL1        0.1662
     18 O          -2.0911   -7.1378  -32.8527 O.3     1  UNL1       -0.4526
     19 O          -1.6342   -7.9230  -34.9945 O.3     1  UNL1       -0.4526
     20 C          -2.6799   -7.3251  -34.1742 C.3     1  UNL1        0.2332
     21 C           1.6811   -8.6529  -33.5174 C.ar    1  UNL1       -0.0541
     22 O           4.2665  -11.7907  -28.1378 O.2     1  UNL1       -0.2841
     23 O           6.9445   -7.6438  -33.1495 O.2     1  UNL1       -0.2841
     24 O           3.8303   -9.1591  -28.5814 O.2     1  UNL1       -0.5038
     25 O           4.8560   -9.2845  -32.5761 O.2     1  UNL1       -0.5038
     26 C           0.6968   -8.5997  -34.5259 C.ar    1  UNL1       -0.0159
     27 C           4.7113   -3.8783  -31.0466 C.3     1  UNL1        0.0566
     28 C           2.3409  -12.9806  -32.4307 C.3     1  UNL1        0.0566
     29 O           4.0564   -3.7235  -29.7918 O.3     1  UNL1       -0.3915
     30 O           0.9218  -13.0703  -32.5379 O.3     1  UNL1       -0.3915
     31 H           2.1063   -7.8296  -30.2524 H       1  UNL1        0.0425
     32 H           3.4857  -13.3923  -30.0662 H       1  UNL1        0.0649
     33 H           6.6494   -5.1554  -32.3461 H       1  UNL1        0.0649
     34 H          -0.0836   -7.2815  -30.9643 H       1  UNL1        0.0658
     35 H          -2.9825   -6.3841  -34.5840 H       1  UNL1        0.1166
     36 H          -3.5506   -7.9457  -34.1327 H       1  UNL1        0.1166
     37 H           2.6099   -9.0465  -33.7352 H       1  UNL1        0.0622
     38 H           4.1357   -9.4695  -27.7517 H       1  UNL1        0.2923
     39 H           4.1400   -9.8622  -32.3981 H       1  UNL1        0.2923
     40 H           0.8888   -8.9450  -35.4793 H       1  UNL1        0.0655
     41 H           4.1707   -3.3345  -31.7929 H       1  UNL1        0.0596
     42 H           5.7095   -3.5030  -30.9588 H       1  UNL1        0.0596
     43 H           2.7309  -13.9378  -32.1541 H       1  UNL1        0.0596
     44 H           2.7326  -12.6718  -33.3773 H       1  UNL1        0.0596
     45 H           4.0197   -2.7824  -29.5601 H       1  UNL1        0.2098
     46 H           0.5410  -13.2345  -31.6610 H       1  UNL1        0.2098
@<TRIPOS>BOND
     1     2     3    1
     2     1     3    1
     3     1     4    2
     4     2     5    2
     5     5     6    1
     6     4     7    1
     7     2     8    1
     8     1     9    1
     9     3    10    1
    10    11    14    2
    11    12    13    2
    12     9    13    1
    13     8    14    1
    14    10    15   ar
    15    15    16   ar
    16    17    26   ar
    17    16    18    1
    18    17    19    1
    19    18    20    1
    20    10    21   ar
    21     6    22    2
    22     7    23    2
    23     5    24    1
    24     4    25    1
    25    21    26   ar
    26    13    27    1
    27    14    28    1
    28    27    29    1
    29    28    30    1
    30     7    12    1
    31    16    17   ar
    32     6    11    1
    33    19    20    1
    34     3    31    1
    35    11    32    1
    36    12    33    1
    37    15    34    1
    38    20    35    1
    39    20    36    1
    40    21    37    1
    41    24    38    1
    42    25    39    1
    43    26    40    1
    44    27    41    1
    45    27    42    1
    46    28    43    1
    47    28    44    1
    48    29    45    1
    49    30    46    1
@<TRIPOS>SUBSTRUCTURE
     1 UNL1        1 TEMP              0 ****  ****    0 ROOT


