##########                                Name: HTS1710-04949495-01
##########                    Molecular_Weight:             324.293
##########                DOCK_Rotatable_Bonds:                   5
##########                       Formal_Charge:                  -2
##########                     HBond_Acceptors:                   7
##########                        HBond_Donors:                   1
##########                         Heavy_Atoms:                  24
##########                          Grid_Score:          -74.750305
##########                     Grid_vdw_energy:          -37.759434
##########                      Grid_es_energy:          -36.990868
##########           Internal_energy_repulsive:           15.241249

@<TRIPOS>MOLECULE
HTS1710-04949495-01
 36 38 1 0 0
SMALL
USER_CHARGES


@<TRIPOS>ATOM
      1 N           3.9958  -11.2901  -34.0484 N.ar    1  UNL1       -0.3057
      2 C           4.1594  -10.2493  -31.8360 C.ar    1  UNL1        0.0137
      3 C           3.9978  -10.1730  -33.2098 C.ar    1  UNL1        0.0175
      4 C           3.8549  -11.0389  -35.5142 C.3     1  UNL1        0.0804
      5 C           1.4780  -10.2344  -35.1775 C.ar    1  UNL1       -0.0200
      6 C           4.1463  -12.5876  -33.5552 C.ar    1  UNL1        0.2519
      7 C           2.3709  -11.1574  -35.9670 C.3     1  UNL1        0.0005
      8 N           0.1068   -9.5284  -33.4986 N.ar    1  UNL1       -0.3604
      9 C           4.3000  -11.5636  -31.2563 C.ar    1  UNL1       -0.0464
     10 C           4.1907   -9.0220  -30.9979 C.2     1  UNL1        0.0731
     11 C           0.9949  -10.5456  -33.9042 C.ar    1  UNL1        0.0060
     12 C           4.2868  -12.6554  -32.0923 C.ar    1  UNL1        0.0036
     13 C           4.5696   -9.7397  -35.9539 C.2     1  UNL1        0.0649
     14 C           0.8519   -8.9916  -35.5496 C.ar    1  UNL1        0.0029
     15 C           0.0403   -8.6157  -34.5249 C.ar    1  UNL1        0.0467
     16 O           4.1874  -13.5852  -34.2560 O.2     1  UNL1       -0.2677
     17 O           4.0809   -7.9452  -31.5603 O.co2   1  UNL1       -0.5446
     18 O           4.1366   -9.1440  -36.9268 O.co2   1  UNL1       -0.5477
     19 O           4.3196   -9.1565  -29.7932 O.co2   1  UNL1       -0.5446
     20 O           5.5367   -9.3956  -35.2968 O.co2   1  UNL1       -0.5477
     21 C           0.9408   -8.2370  -36.7263 C.ar    1  UNL1       -0.0523
     22 C          -0.7565   -7.4673  -34.5781 C.ar    1  UNL1       -0.0378
     23 C           0.1582   -7.0666  -36.8175 C.ar    1  UNL1       -0.0611
     24 C          -0.6881   -6.6842  -35.7485 C.ar    1  UNL1       -0.0598
     25 H           3.8722   -9.2416  -33.6361 H       1  UNL1        0.0817
     26 H           4.3713  -11.8133  -36.0420 H       1  UNL1        0.0593
     27 H           2.3025  -10.9044  -37.0044 H       1  UNL1        0.0338
     28 H           2.0474  -12.1633  -35.7985 H       1  UNL1        0.0338
     29 H          -0.3751   -9.4805  -32.6415 H       1  UNL1        0.1653
     30 H           4.4080  -11.6815  -30.2367 H       1  UNL1        0.0626
     31 H           1.2461  -11.3808  -33.3525 H       1  UNL1        0.0810
     32 H           4.3823  -13.5890  -31.6629 H       1  UNL1        0.0672
     33 H           1.5581   -8.5274  -37.5007 H       1  UNL1        0.0624
     34 H          -1.3702   -7.2035  -33.7915 H       1  UNL1        0.0638
     35 H           0.2027   -6.4854  -37.6690 H       1  UNL1        0.0618
     36 H          -1.2581   -5.8274  -35.8266 H       1  UNL1        0.0618
@<TRIPOS>BOND
     1     2     3   ar
     2     1     3   ar
     3     1     4    1
     4     5     7    1
     5     1     6   ar
     6     4     7    1
     7     8    11   ar
     8     9    12   ar
     9     2    10    1
    10     5    11   ar
    11     6    12   ar
    12     4    13    1
    13     5    14   ar
    14    14    15   ar
    15     6    16    2
    16    10    17   ar
    17    13    18   ar
    18    10    19   ar
    19    13    20   ar
    20    14    21   ar
    21    15    22   ar
    22    21    23   ar
    23    23    24   ar
    24     2     9   ar
    25     8    15   ar
    26    22    24   ar
    27     3    25    1
    28     4    26    1
    29     7    27    1
    30     7    28    1
    31     8    29    1
    32     9    30    1
    33    11    31    1
    34    12    32    1
    35    21    33    1
    36    22    34    1
    37    23    35    1
    38    24    36    1
@<TRIPOS>SUBSTRUCTURE
     1 UNL1        1 TEMP              0 ****  ****    0 ROOT


