##########                                Name: HTS1710-01553850-01
##########                    Molecular_Weight:              367.36
##########                DOCK_Rotatable_Bonds:                   8
##########                       Formal_Charge:                  -2
##########                     HBond_Acceptors:                  10
##########                        HBond_Donors:                   2
##########                         Heavy_Atoms:                  24
##########                          Grid_Score:          -76.246475
##########                     Grid_vdw_energy:          -35.480366
##########                      Grid_es_energy:          -40.766109
##########           Internal_energy_repulsive:            7.477610

@<TRIPOS>MOLECULE
HTS1710-01553850-01
 33 34 1 0 0
SMALL
USER_CHARGES


@<TRIPOS>ATOM
      1 N           2.5977  -10.2468  -32.3676 N.am    1  UNL1       -0.2463
      2 C           2.5143  -11.5763  -32.7675 C.2     1  UNL1        0.1211
      3 C           1.7769   -9.3811  -33.0910 C.2     1  UNL1        0.2589
      4 C           1.0481  -10.1360  -34.1401 C.2     1  UNL1        0.0772
      5 S           1.3275  -11.8629  -34.0716 S.3     1  UNL1       -0.0610
      6 C           3.4911   -9.7577  -31.2815 C.3     1  UNL1        0.0765
      7 C           2.7066   -8.9581  -30.1994 C.3     1  UNL1        0.0111
      8 C           0.1730   -9.6162  -35.0710 C.2     1  UNL1       -0.0356
      9 C           4.7082   -9.0102  -31.8735 C.2     1  UNL1        0.0629
     10 S           3.4601  -12.8383  -32.1964 S.2     1  UNL1       -0.0272
     11 C           2.9431   -9.5131  -28.7874 C.2     1  UNL1        0.0439
     12 C          -1.9296   -6.4543  -35.0409 C.ar    1  UNL1        0.1588
     13 O           1.6558   -8.1942  -32.8442 O.2     1  UNL1       -0.2690
     14 C          -0.3327   -8.2650  -35.4550 C.ar    1  UNL1       -0.0201
     15 C          -1.4051   -5.7321  -36.1275 C.ar    1  UNL1        0.1582
     16 C          -1.4027   -7.7169  -34.7179 C.ar    1  UNL1       -0.0093
     17 O           4.7461   -8.8259  -33.0788 O.co2   1  UNL1       -0.5479
     18 O           2.1991  -10.3974  -28.4012 O.co2   1  UNL1       -0.5497
     19 C          -0.3689   -6.2871  -36.8925 C.ar    1  UNL1       -0.0160
     20 O           5.5623   -8.6425  -31.0846 O.co2   1  UNL1       -0.5479
     21 C           0.1567   -7.5470  -36.5652 C.ar    1  UNL1       -0.0509
     22 O           3.8491   -9.0177  -28.1392 O.co2   1  UNL1       -0.5497
     23 O          -2.9536   -5.9395  -34.2955 O.3     1  UNL1       -0.5033
     24 O          -1.9093   -4.5042  -36.4589 O.3     1  UNL1       -0.5033
     25 H           3.8899  -10.5998  -30.7554 H       1  UNL1        0.0570
     26 H           1.6611   -9.0120  -30.4208 H       1  UNL1        0.0347
     27 H           3.0556   -7.9468  -30.2190 H       1  UNL1        0.0347
     28 H          -0.2419  -10.3574  -35.6570 H       1  UNL1        0.0636
     29 H          -1.8043   -8.2499  -33.9307 H       1  UNL1        0.0661
     30 H           0.0090   -5.7668  -37.6998 H       1  UNL1        0.0655
     31 H           0.9094   -7.9520  -37.1435 H       1  UNL1        0.0625
     32 H          -3.2725   -5.0761  -34.4707 H       1  UNL1        0.2923
     33 H          -2.5564   -4.1009  -35.9142 H       1  UNL1        0.2923
@<TRIPOS>BOND
     1     1     2    1
     2     1     3   am
     3     3     4    1
     4     2     5    1
     5     1     6    1
     6     6     7    1
     7     4     8    2
     8     6     9    1
     9     2    10    2
    10     7    11    1
    11    12    16   ar
    12     3    13    2
    13     8    14    1
    14    15    19   ar
    15    14    16   ar
    16     9    17   ar
    17    11    18   ar
    18    19    21   ar
    19     9    20   ar
    20    14    21   ar
    21    11    22   ar
    22    12    23    1
    23    15    24    1
    24     4     5    1
    25    12    15   ar
    26     6    25    1
    27     7    26    1
    28     7    27    1
    29     8    28    1
    30    16    29    1
    31    19    30    1
    32    21    31    1
    33    23    32    1
    34    24    33    1
@<TRIPOS>SUBSTRUCTURE
     1 UNL1        1 TEMP              0 ****  ****    0 ROOT


