##########                                Name: HTS1710-01932997-01
##########                    Molecular_Weight:             373.362
##########                DOCK_Rotatable_Bonds:                   9
##########                       Formal_Charge:                  -2
##########                     HBond_Acceptors:                   8
##########                        HBond_Donors:                   3
##########                         Heavy_Atoms:                  27
##########                          Grid_Score:          -80.717339
##########                     Grid_vdw_energy:          -43.592106
##########                      Grid_es_energy:          -37.125233
##########           Internal_energy_repulsive:           10.001819

@<TRIPOS>MOLECULE
HTS1710-01932997-01
 46 48 1 0 0
SMALL
USER_CHARGES


@<TRIPOS>ATOM
      1 C           4.3925   -9.5806  -30.3823 C.2     1  UNL1       -0.0555
      2 C           4.7000  -10.4781  -31.3910 C.2     1  UNL1       -0.1091
      3 C           5.3903   -8.4938  -32.7760 C.2     1  UNL1        0.0538
      4 C           5.0598   -7.7198  -31.6974 C.2     1  UNL1       -0.0306
      5 O           4.4965   -8.2197  -30.5527 O.co2   1  UNL1       -0.7688
      6 C           5.1079   -9.9953  -32.7537 C.3     1  UNL1        0.0283
      7 C           3.9341  -10.0568  -29.0697 C.2     1  UNL1        0.1708
      8 O           4.6237  -11.8508  -31.2549 O.co2   1  UNL1       -0.7839
      9 C           3.8631  -11.5133  -28.9744 C.2     1  UNL1       -0.0241
     10 C           5.9840   -8.0111  -34.0882 C.2     1  UNL1        0.3367
     11 C           4.1984  -12.3261  -30.0347 C.2     1  UNL1       -0.0886
     12 C           4.0381  -10.3500  -33.7897 C.ar    1  UNL1       -0.0365
     13 N           5.2845   -6.3629  -31.6647 N.pl3   1  UNL1       -0.3685
     14 O           3.6424   -9.3161  -28.1460 O.2     1  UNL1       -0.2886
     15 O           5.7444   -8.5569  -35.1536 O.2     1  UNL1       -0.2453
     16 O           6.7679   -6.8939  -33.9862 O.3     1  UNL1       -0.4590
     17 C           4.1201  -13.8250  -29.8904 C.3     1  UNL1        0.0566
     18 O           4.8604  -14.2779  -28.7600 O.3     1  UNL1       -0.3915
     19 O           5.7414   -4.2046  -33.8484 O.3     1  UNL1       -0.3796
     20 C           4.3244  -11.2651  -34.8233 C.ar    1  UNL1       -0.0577
     21 C           2.7530   -9.7807  -33.7115 C.ar    1  UNL1       -0.0577
     22 C           6.9063   -5.9869  -35.1018 C.3     1  UNL1        0.1160
     23 C           6.9503   -4.5287  -34.5675 C.3     1  UNL1        0.0815
     24 C           5.7525   -2.9490  -33.1454 C.3     1  UNL1        0.0366
     25 C           3.3373  -11.6096  -35.7589 C.ar    1  UNL1       -0.0615
     26 C           1.7662  -10.1244  -34.6499 C.ar    1  UNL1       -0.0615
     27 C           2.0573  -11.0405  -35.6731 C.ar    1  UNL1       -0.0617
     28 H           6.0205  -10.4945  -33.0044 H       1  UNL1        0.0437
     29 H           3.5534  -11.9443  -28.0893 H       1  UNL1        0.0647
     30 H           4.7936   -5.7980  -31.0252 H       1  UNL1        0.1413
     31 H           5.9363   -5.9569  -32.2808 H       1  UNL1        0.1413
     32 H           4.5182  -14.2810  -30.7727 H       1  UNL1        0.0596
     33 H           3.0944  -14.0968  -29.7522 H       1  UNL1        0.0596
     34 H           4.7139  -15.2289  -28.6375 H       1  UNL1        0.2098
     35 H           5.2651  -11.6837  -34.8921 H       1  UNL1        0.0621
     36 H           2.5348   -9.1074  -32.9605 H       1  UNL1        0.0621
     37 H           6.0726   -6.1016  -35.7627 H       1  UNL1        0.0721
     38 H           7.8091   -6.2039  -35.6335 H       1  UNL1        0.0721
     39 H           7.7877   -4.4220  -33.9100 H       1  UNL1        0.0593
     40 H           7.0404   -3.8630  -35.4004 H       1  UNL1        0.0593
     41 H           4.8144   -2.8091  -32.6502 H       1  UNL1        0.0524
     42 H           5.9109   -2.1519  -33.8414 H       1  UNL1        0.0524
     43 H           6.5407   -2.9524  -32.4217 H       1  UNL1        0.0524
     44 H           3.5527  -12.2825  -36.5112 H       1  UNL1        0.0618
     45 H           0.8262   -9.7030  -34.5873 H       1  UNL1        0.0618
     46 H           1.3313  -11.2950  -36.3609 H       1  UNL1        0.0618
@<TRIPOS>BOND
     1     1     2    2
     2     1     5    1
     3     1     7    1
     4     2     6    1
     5     2     8    1
     6     3     4    2
     7     3     6    1
     8     3    10    1
     9     4     5    1
    10     4    13    1
    11     6    12    1
    12     7     9    1
    13     7    14    2
    14     8    11    1
    15     9    11    2
    16    10    15    2
    17    10    16    1
    18    11    17    1
    19    12    20   ar
    20    12    21   ar
    21    16    22    1
    22    17    18    1
    23    19    23    1
    24    19    24    1
    25    20    25   ar
    26    21    26   ar
    27    22    23    1
    28    25    27   ar
    29    26    27   ar
    30     6    28    1
    31     9    29    1
    32    13    30    1
    33    13    31    1
    34    17    32    1
    35    17    33    1
    36    18    34    1
    37    20    35    1
    38    21    36    1
    39    22    37    1
    40    22    38    1
    41    23    39    1
    42    23    40    1
    43    24    41    1
    44    24    42    1
    45    24    43    1
    46    25    44    1
    47    26    45    1
    48    27    46    1
@<TRIPOS>SUBSTRUCTURE
     1 UNL1        1 TEMP              0 ****  ****    0 ROOT


