##########                                Name: HTS1710-01226709-01
##########                    Molecular_Weight:              384.39
##########                DOCK_Rotatable_Bonds:                   5
##########                       Formal_Charge:                  -2
##########                     HBond_Acceptors:                  11
##########                        HBond_Donors:                   4
##########                         Heavy_Atoms:                  25
##########                          Grid_Score:          -75.538673
##########                     Grid_vdw_energy:          -42.199230
##########                      Grid_es_energy:          -33.339443
##########           Internal_energy_repulsive:           15.419722

@<TRIPOS>MOLECULE
HTS1710-01226709-01
 37 38 1 0 0
SMALL
USER_CHARGES


@<TRIPOS>ATOM
      1 S           3.3059   -9.8191  -36.9898 S.3     1  UNL1       -0.0505
      2 S           3.8084   -9.1775  -29.9867 S.3     1  UNL1       -0.0509
      3 C           2.0745   -9.4699  -35.6955 C.ar    1  UNL1        0.0888
      4 C           2.1161  -10.1028  -34.4251 C.ar    1  UNL1        0.0416
      5 C           3.5281  -10.9523  -30.2925 C.ar    1  UNL1        0.0819
      6 C           3.1733  -11.0986  -34.0444 C.2     1  UNL1        0.1693
      7 C           3.6488  -11.5354  -31.5867 C.ar    1  UNL1       -0.0160
      8 C           4.0626  -10.7556  -32.8392 C.3     1  UNL1        0.0375
      9 C           1.0404   -8.5462  -35.9665 C.ar    1  UNL1       -0.0165
     10 C           3.1426  -11.7718  -29.2077 C.ar    1  UNL1       -0.0169
     11 C           1.1340   -9.7965  -33.4634 C.ar    1  UNL1       -0.0477
     12 O           3.0088   -8.8462  -38.0466 O.2     1  UNL1       -0.1803
     13 O           4.5881   -9.6207  -36.3090 O.2     1  UNL1       -0.1803
     14 O           3.6328   -9.0492  -28.5375 O.2     1  UNL1       -0.1803
     15 O           2.7903   -8.4965  -30.7922 O.2     1  UNL1       -0.1803
     16 O           3.2943  -12.1545  -34.6428 O.2     1  UNL1       -0.2916
     17 O           3.0061  -11.2121  -37.3369 O.co2   1  UNL1       -0.7201
     18 O           5.1862   -8.9939  -30.4542 O.co2   1  UNL1       -0.7202
     19 C           3.3739  -12.9072  -31.7515 C.ar    1  UNL1       -0.0546
     20 C           0.0701   -8.2485  -34.9958 C.ar    1  UNL1        0.0264
     21 C           2.8765  -13.1379  -29.3924 C.ar    1  UNL1        0.0263
     22 C           0.1177   -8.8751  -33.7442 C.ar    1  UNL1       -0.0403
     23 N          -0.9274   -7.3431  -35.2726 N.pl3   1  UNL1       -0.3579
     24 N           2.4954  -13.9180  -28.3258 N.pl3   1  UNL1       -0.3579
     25 C           2.9914  -13.7044  -30.6663 C.ar    1  UNL1       -0.0407
     26 H           5.0774  -10.9966  -33.0777 H       1  UNL1        0.0394
     27 H           3.9540   -9.7115  -32.6321 H       1  UNL1        0.0394
     28 H           0.9974   -8.0848  -36.8886 H       1  UNL1        0.0655
     29 H           3.0554  -11.3598  -28.2655 H       1  UNL1        0.0655
     30 H           1.1638  -10.2569  -32.5403 H       1  UNL1        0.0626
     31 H           3.4560  -13.3318  -32.6885 H       1  UNL1        0.0622
     32 H          -0.5950   -8.6582  -33.0301 H       1  UNL1        0.0636
     33 H          -0.9617   -6.9020  -36.1521 H       1  UNL1        0.1423
     34 H          -1.6072   -7.1359  -34.5913 H       1  UNL1        0.1423
     35 H           2.3094  -14.8757  -28.4580 H       1  UNL1        0.1423
     36 H           2.4086  -13.5187  -27.4301 H       1  UNL1        0.1423
     37 H           2.7946  -14.7077  -30.8057 H       1  UNL1        0.0636
@<TRIPOS>BOND
     1     2     5    1
     2     1     3    1
     3     3     4   ar
     4     5     7   ar
     5     4     6    1
     6     7     8    1
     7     6     8    1
     8     3     9   ar
     9     5    10   ar
    10     4    11   ar
    11     1    12    2
    12     1    13    2
    13     2    14    2
    14     2    15    2
    15     6    16    2
    16     1    17    1
    17     2    18    1
    18     7    19   ar
    19     9    20   ar
    20    21    25   ar
    21    20    22   ar
    22    20    23    1
    23    21    24    1
    24    19    25   ar
    25    11    22   ar
    26    10    21   ar
    27     8    26    1
    28     8    27    1
    29     9    28    1
    30    10    29    1
    31    11    30    1
    32    19    31    1
    33    22    32    1
    34    23    33    1
    35    23    34    1
    36    24    35    1
    37    24    36    1
    38    25    37    1
@<TRIPOS>SUBSTRUCTURE
     1 UNL1        1 TEMP              0 ****  ****    0 ROOT


