##########                                Name: HTS1710-00300437-01
##########                    Molecular_Weight:             329.332
##########                DOCK_Rotatable_Bonds:                   7
##########                       Formal_Charge:                  -2
##########                     HBond_Acceptors:                   7
##########                        HBond_Donors:                   1
##########                         Heavy_Atoms:                  24
##########                          Grid_Score:          -74.847488
##########                     Grid_vdw_energy:          -35.761250
##########                      Grid_es_energy:          -39.086243
##########           Internal_energy_repulsive:           11.738052

@<TRIPOS>MOLECULE
HTS1710-00300437-01
 41 43 1 0 0
SMALL
USER_CHARGES


@<TRIPOS>ATOM
      1 C           4.1370   -9.1751  -32.3292 C.2     1  UNL1        0.0144
      2 C           3.9752  -10.1080  -31.3405 C.2     1  UNL1       -0.0752
      3 N           5.6638   -8.8382  -30.6421 N.2     1  UNL1       -0.3024
      4 C           5.1933   -8.3524  -31.7888 C.2     1  UNL1        0.0695
      5 O           4.8580   -9.9698  -30.3192 O.co2   1  UNL1       -0.7128
      6 C           2.9748  -11.8363  -28.9087 C.2     1  UNL1        0.2165
      7 C           3.4604   -9.1412  -33.6639 C.2     1  UNL1        0.0729
      8 N           3.3434  -12.1625  -30.2070 N.am    1  UNL1       -0.3096
      9 C           3.3384  -12.7907  -27.8069 C.3     1  UNL1        0.0356
     10 C           3.0389  -11.3022  -31.3588 C.3     1  UNL1        0.0342
     11 C           2.3845  -13.9190  -27.5080 C.3     1  UNL1       -0.0412
     12 C           3.6981  -14.2071  -28.1810 C.3     1  UNL1       -0.0412
     13 C           5.6422   -7.0929  -32.4157 C.ar    1  UNL1        0.0004
     14 O           2.3734  -10.8005  -28.6761 O.2     1  UNL1       -0.2755
     15 O           4.1428   -9.2683  -34.6636 O.co2   1  UNL1       -0.5446
     16 C           6.3313   -7.1528  -33.6459 C.ar    1  UNL1       -0.0491
     17 C           5.5353   -5.8414  -31.7727 C.ar    1  UNL1       -0.0491
     18 O           2.2482   -9.0262  -33.6918 O.co2   1  UNL1       -0.5446
     19 C           6.6711   -4.7400  -33.6258 C.ar    1  UNL1        0.1201
     20 C           6.0312   -4.6762  -32.3794 C.ar    1  UNL1       -0.0193
     21 C           6.8280   -5.9908  -34.2569 C.ar    1  UNL1       -0.0193
     22 O           7.1484   -3.5673  -34.1796 O.3     1  UNL1       -0.4951
     23 C           3.1523  -12.1476  -32.6519 C.3     1  UNL1       -0.0435
     24 C           7.2649   -2.3422  -33.4343 C.3     1  UNL1        0.0788
     25 H           3.8289  -13.0048  -30.3624 H       1  UNL1        0.1492
     26 H           3.8054  -12.0185  -27.2321 H       1  UNL1        0.0394
     27 H           2.0407  -10.9193  -31.3156 H       1  UNL1        0.0534
     28 H           1.4712  -14.0069  -28.0583 H       1  UNL1        0.0273
     29 H           1.8903  -14.2784  -26.6296 H       1  UNL1        0.0273
     30 H           4.4705  -14.7213  -27.6483 H       1  UNL1        0.0273
     31 H           3.9932  -14.6990  -29.0842 H       1  UNL1        0.0273
     32 H           6.4725   -8.0667  -34.1041 H       1  UNL1        0.0625
     33 H           5.0869   -5.7818  -30.8450 H       1  UNL1        0.0625
     34 H           5.9241   -3.7662  -31.9046 H       1  UNL1        0.0654
     35 H           7.3082   -6.0521  -35.1683 H       1  UNL1        0.0654
     36 H           4.1411  -12.5489  -32.7300 H       1  UNL1        0.0250
     37 H           2.9502  -11.5292  -33.5013 H       1  UNL1        0.0250
     38 H           2.4439  -12.9489  -32.6175 H       1  UNL1        0.0250
     39 H           7.6559   -1.5746  -34.0688 H       1  UNL1        0.0660
     40 H           7.9250   -2.4905  -32.6053 H       1  UNL1        0.0660
     41 H           6.3003   -2.0506  -33.0744 H       1  UNL1        0.0660
@<TRIPOS>BOND
     1     1     2    2
     2     3     4    2
     3     1     4    1
     4     2     5    1
     5     6     8   am
     6     1     7    1
     7     8    10    1
     8     6     9    1
     9     2    10    1
    10     9    11    1
    11     9    12    1
    12     4    13    1
    13     6    14    2
    14     7    15   ar
    15    13    16   ar
    16    13    17   ar
    17     7    18   ar
    18    19    20   ar
    19    17    20   ar
    20    16    21   ar
    21    19    22    1
    22    10    23    1
    23    22    24    1
    24     3     5    1
    25    19    21   ar
    26    11    12    1
    27     8    25    1
    28     9    26    1
    29    10    27    1
    30    11    28    1
    31    11    29    1
    32    12    30    1
    33    12    31    1
    34    16    32    1
    35    17    33    1
    36    20    34    1
    37    21    35    1
    38    23    36    1
    39    23    37    1
    40    23    38    1
    41    24    39    1
    42    24    40    1
    43    24    41    1
@<TRIPOS>SUBSTRUCTURE
     1 UNL1        1 TEMP              0 ****  ****    0 ROOT


