HTS1710-03576611-01
 OpenBabel03232612353D

 42 44  0  0  0  0  0  0  0  0999 V2000
    2.5892  -10.1772  -29.9150 C   0  0  0  0  0  0  0  0  0  0  0  0
    3.4576  -11.8847  -31.1798 C   0  0  0  0  0  0  0  0  0  0  0  0
    2.7902  -10.7110  -31.1386 N   0  0  0  0  0  0  0  0  0  0  0  0
    2.9810  -10.7664  -28.7649 N   0  0  0  0  0  0  0  0  0  0  0  0
    3.8853  -12.5427  -30.0826 N   0  0  0  0  0  0  0  0  0  0  0  0
    3.6239  -11.9490  -28.8924 C   0  0  0  0  0  0  0  0  0  0  0  0
    4.0819   -9.4499  -36.3288 C   0  0  0  0  0  0  0  0  0  0  0  0
    5.6779   -6.5220  -31.9321 C   0  0  0  0  0  0  0  0  0  0  0  0
    3.3392  -10.4999  -35.5361 C   0  0  0  0  0  0  0  0  0  0  0  0
    4.2457   -6.5783  -31.4497 C   0  0  0  0  0  0  0  0  0  0  0  0
    3.7109  -12.4603  -32.4081 O   0  0  0  0  0  0  0  0  0  0  0  0
    1.9362   -8.9667  -29.8224 O   0  0  0  0  0  0  0  0  0  0  0  0
    3.8918  -11.0184  -34.3471 C   0  0  0  0  0  0  0  0  0  0  0  0
    3.7338   -7.7551  -30.8592 C   0  0  0  0  0  0  0  0  0  0  0  0
    5.0745   -8.9588  -35.8205 O   0  5  0  0  0  0  0  0  0  0  0  0
    6.0708   -5.4716  -32.4098 O   0  5  0  0  0  0  0  0  0  0  0  0
    3.1908  -11.9795  -33.5920 C   0  0  0  0  0  0  0  0  0  0  0  0
    2.4052   -7.8079  -30.4075 C   0  0  0  0  0  0  0  0  0  0  0  0
    4.0264  -12.5703  -27.7281 O   0  0  0  0  0  0  0  0  0  0  0  0
    6.3522   -7.5309  -31.8128 O   0  0  0  0  0  0  0  0  0  0  0  0
    3.6424   -9.1617  -37.4292 O   0  0  0  0  0  0  0  0  0  0  0  0
    2.0821  -10.9756  -35.9667 C   0  0  0  0  0  0  0  0  0  0  0  0
    3.3942   -5.4589  -31.5806 C   0  0  0  0  0  0  0  0  0  0  0  0
    2.0622   -5.5175  -31.1401 C   0  0  0  0  0  0  0  0  0  0  0  0
    1.3964  -11.9524  -35.2259 C   0  0  0  0  0  0  0  0  0  0  0  0
    1.9504  -12.4563  -34.0393 C   0  0  0  0  0  0  0  0  0  0  0  0
    1.5632   -6.6904  -30.5580 C   0  0  0  0  0  0  0  0  0  0  0  0
    4.0275  -14.0044  -27.5828 C   0  0  0  0  0  0  0  0  0  0  0  0
    5.4893  -14.4729  -27.4604 C   0  0  0  0  0  0  0  0  0  0  0  0
    4.8169  -10.6914  -34.0274 H   0  0  0  0  0  0  0  0  0  0  0  0
    4.3415   -8.5831  -30.7588 H   0  0  0  0  0  0  0  0  0  0  0  0
    1.6631  -10.6026  -36.8330 H   0  0  0  0  0  0  0  0  0  0  0  0
    3.7545   -4.5895  -32.0042 H   0  0  0  0  0  0  0  0  0  0  0  0
    1.4490   -4.6942  -31.2453 H   0  0  0  0  0  0  0  0  0  0  0  0
    0.4824  -12.3005  -35.5552 H   0  0  0  0  0  0  0  0  0  0  0  0
    1.4466  -13.1757  -33.4975 H   0  0  0  0  0  0  0  0  0  0  0  0
    0.5820   -6.7346  -30.2411 H   0  0  0  0  0  0  0  0  0  0  0  0
    3.5727  -14.4559  -28.4396 H   0  0  0  0  0  0  0  0  0  0  0  0
    3.4736  -14.2888  -26.7127 H   0  0  0  0  0  0  0  0  0  0  0  0
    6.0314  -14.1824  -28.3360 H   0  0  0  0  0  0  0  0  0  0  0  0
    5.5154  -15.5380  -27.3618 H   0  0  0  0  0  0  0  0  0  0  0  0
    5.9368  -14.0238  -26.5985 H   0  0  0  0  0  0  0  0  0  0  0  0
  1  3  2  0  0  0  0
  1  4  1  0  0  0  0
  1 12  1  0  0  0  0
  2  3  1  0  0  0  0
  2 11  1  0  0  0  0
  2  5  2  0  0  0  0
  4  6  2  0  0  0  0
  5  6  1  0  0  0  0
  6 19  1  0  0  0  0
  7  9  1  0  0  0  0
  7 15  1  0  0  0  0
  7 21  2  0  0  0  0
  8 10  1  0  0  0  0
  8 16  1  0  0  0  0
  8 20  2  0  0  0  0
  9 13  2  0  0  0  0
  9 22  1  0  0  0  0
 10 14  2  0  0  0  0
 10 23  1  0  0  0  0
 11 17  1  0  0  0  0
 12 18  1  0  0  0  0
 13 17  1  0  0  0  0
 13 30  1  0  0  0  0
 14 18  1  0  0  0  0
 14 31  1  0  0  0  0
 17 26  2  0  0  0  0
 18 27  2  0  0  0  0
 19 28  1  0  0  0  0
 22 25  2  0  0  0  0
 22 32  1  0  0  0  0
 23 24  2  0  0  0  0
 23 33  1  0  0  0  0
 24 27  1  0  0  0  0
 24 34  1  0  0  0  0
 25 26  1  0  0  0  0
 25 35  1  0  0  0  0
 26 36  1  0  0  0  0
 27 37  1  0  0  0  0
 28 29  1  0  0  0  0
 28 38  1  0  0  0  0
 28 39  1  0  0  0  0
 29 40  1  0  0  0  0
 29 41  1  0  0  0  0
 29 42  1  0  0  0  0
M  CHG  2  15  -1  16  -1
M  END
$$$$
