HTS1710-00624290-01
 OpenBabel03232612343D

 27 27  0  0  1  0  0  0  0  0999 V2000
    4.2968  -10.5331  -31.7511 C   0  0  1  0  0  0  0  0  0  0  0  0
    3.0854  -11.6785  -31.0051 S   0  0  0  0  0  0  0  0  0  0  0  0
    4.2926  -10.6177  -33.3058 C   0  0  0  0  0  0  0  0  0  0  0  0
    4.0622   -9.1001  -31.2379 C   0  0  0  0  0  0  0  0  0  0  0  0
    3.8010  -13.3364  -31.1992 C   0  0  0  0  0  0  0  0  0  0  0  0
    1.8639  -11.6343  -31.7929 O   0  0  0  0  0  0  0  0  0  0  0  0
    3.0158  -11.3900  -29.5831 O   0  0  0  0  0  0  0  0  0  0  0  0
    5.1164   -9.5053  -33.9709 C   0  0  0  0  0  0  0  0  0  0  0  0
    3.2941   -8.4020  -31.8774 O   0  5  0  0  0  0  0  0  0  0  0  0
    4.6686   -8.7476  -30.2399 O   0  0  0  0  0  0  0  0  0  0  0  0
    4.2341  -13.9150  -29.8785 C   0  0  0  0  0  0  0  0  0  0  0  0
    6.0361   -9.0298  -33.3264 O   0  5  0  0  0  0  0  0  0  0  0  0
    4.7892   -9.1616  -35.0936 O   0  0  0  0  0  0  0  0  0  0  0  0
    5.4550  -13.5946  -29.3514 O   0  0  0  0  0  0  0  0  0  0  0  0
    3.4859  -14.7912  -29.1392 C   0  0  0  0  0  0  0  0  0  0  0  0
    5.4374  -14.3309  -28.1883 C   0  0  0  0  0  0  0  0  0  0  0  0
    4.2881  -15.0658  -28.0066 C   0  0  0  0  0  0  0  0  0  0  0  0
    6.5841  -14.3118  -27.2504 C   0  0  0  0  0  0  0  0  0  0  0  0
    7.3196  -13.3386  -27.2722 O   0  5  0  0  0  0  0  0  0  0  0  0
    6.7271  -15.2714  -26.5128 O   0  0  0  0  0  0  0  0  0  0  0  0
    5.2772  -10.8314  -31.4435 H   0  0  0  0  0  0  0  0  0  0  0  0
    3.2815  -10.5441  -33.6483 H   0  0  0  0  0  0  0  0  0  0  0  0
    4.7396  -11.5515  -33.5762 H   0  0  0  0  0  0  0  0  0  0  0  0
    4.6513  -13.2734  -31.8456 H   0  0  0  0  0  0  0  0  0  0  0  0
    3.0506  -13.9768  -31.6135 H   0  0  0  0  0  0  0  0  0  0  0  0
    2.5497  -15.1661  -29.3583 H   0  0  0  0  0  0  0  0  0  0  0  0
    4.0600  -15.6853  -27.2134 H   0  0  0  0  0  0  0  0  0  0  0  0
  1  2  1  0  0  0  0
  1  3  1  0  0  0  0
  1  4  1  0  0  0  0
  1 21  1  1  0  0  0
  2  5  1  0  0  0  0
  2  6  2  0  0  0  0
  2  7  2  0  0  0  0
  3  8  1  0  0  0  0
  3 22  1  0  0  0  0
  3 23  1  0  0  0  0
  4  9  1  0  0  0  0
  4 10  2  0  0  0  0
  5 11  1  0  0  0  0
  5 24  1  0  0  0  0
  5 25  1  0  0  0  0
  8 12  1  0  0  0  0
  8 13  2  0  0  0  0
 11 14  1  0  0  0  0
 11 15  2  0  0  0  0
 14 16  1  0  0  0  0
 15 17  1  0  0  0  0
 15 26  1  0  0  0  0
 16 18  1  0  0  0  0
 16 17  2  0  0  0  0
 17 27  1  0  0  0  0
 18 19  1  0  0  0  0
 18 20  2  0  0  0  0
M  CHG  3   9  -1  12  -1  19  -1
M  END
$$$$
