##########                                Name: HTS1710-02915513-01
##########                    Molecular_Weight:             429.043
##########                DOCK_Rotatable_Bonds:                   6
##########                       Formal_Charge:                  -2
##########                     HBond_Acceptors:                   8
##########                        HBond_Donors:                   1
##########                         Heavy_Atoms:                  20
##########                          Grid_Score:          -75.543785
##########                     Grid_vdw_energy:          -38.017197
##########                      Grid_es_energy:          -37.526588
##########           Internal_energy_repulsive:            8.726820

@<TRIPOS>MOLECULE
HTS1710-02915513-01
 27 27 1 0 0
SMALL
USER_CHARGES


@<TRIPOS>ATOM
      1 S           3.6597  -12.1229  -32.2586 S.O2    1  UNL1        0.0601
      2 C           3.5673  -13.2048  -30.8040 C.ar    1  UNL1        0.1202
      3 N           4.5941  -10.7758  -31.7926 N.3     1  UNL1       -0.1810
      4 C           4.4191   -9.4673  -32.4680 C.3     1  UNL1        0.0730
      5 C           5.1354   -9.4296  -33.8618 C.3     1  UNL1        0.0090
      6 C           4.8214   -8.3234  -31.5053 C.2     1  UNL1        0.0606
      7 C           4.6362  -13.1857  -29.8851 C.ar    1  UNL1       -0.0203
      8 O           4.5004  -12.7794  -33.2639 O.2     1  UNL1       -0.1530
      9 O           2.3301  -11.5919  -32.5746 O.2     1  UNL1       -0.1530
     10 C           4.2352   -9.4246  -35.1188 C.2     1  UNL1        0.0436
     11 C           2.4643  -14.0607  -30.5594 C.ar    1  UNL1        0.0442
     12 O           5.7526   -8.5078  -30.7394 O.co2   1  UNL1       -0.5481
     13 O           3.0473   -9.6712  -34.9987 O.co2   1  UNL1       -0.5498
     14 C           2.4471  -14.8746  -29.4136 C.ar    1  UNL1       -0.0448
     15 C           4.6079  -14.0000  -28.7426 C.ar    1  UNL1        0.0198
     16 O           4.1801   -7.2892  -31.5828 O.co2   1  UNL1       -0.5481
     17 BR          0.9697  -14.1919  -31.7547 Br      1  UNL1       -0.0483
     18 O           4.7894   -9.1641  -36.1735 O.co2   1  UNL1       -0.5498
     19 C           3.5138  -14.8445  -28.5044 C.ar    1  UNL1       -0.0466
     20 BR          6.0624  -13.9561  -27.5070 Br      1  UNL1       -0.0502
     21 H           5.5711  -11.0408  -31.9178 H       1  UNL1        0.1487
     22 H           3.3853   -9.3193  -32.7008 H       1  UNL1        0.0542
     23 H           5.7677  -10.2907  -33.9222 H       1  UNL1        0.0344
     24 H           5.6459   -8.4896  -33.8843 H       1  UNL1        0.0344
     25 H           5.4457  -12.5683  -30.0538 H       1  UNL1        0.0648
     26 H           1.6437  -15.4987  -29.2404 H       1  UNL1        0.0629
     27 H           3.4941  -15.4417  -27.6629 H       1  UNL1        0.0629
@<TRIPOS>BOND
     1     1     2    1
     2     1     3    1
     3     1     8    2
     4     1     9    2
     5     2     7   ar
     6     2    11   ar
     7     3     4    1
     8     4     5    1
     9     4     6    1
    10     5    10    1
    11     6    12   ar
    12     6    16   ar
    13     7    15   ar
    14    10    13   ar
    15    10    18   ar
    16    11    14   ar
    17    11    17    1
    18    14    19   ar
    19    15    19   ar
    20    15    20    1
    21     3    21    1
    22     4    22    1
    23     5    23    1
    24     5    24    1
    25     7    25    1
    26    14    26    1
    27    19    27    1
@<TRIPOS>SUBSTRUCTURE
     1 UNL1        1 TEMP              0 ****  ****    0 ROOT


