##########                                Name: HTS1710-05420874-01
##########                    Molecular_Weight:             312.279
##########                DOCK_Rotatable_Bonds:                  11
##########                       Formal_Charge:                  -3
##########                     HBond_Acceptors:                   9
##########                        HBond_Donors:                   1
##########                         Heavy_Atoms:                  22
##########                          Grid_Score:          -92.642670
##########                     Grid_vdw_energy:          -38.663158
##########                      Grid_es_energy:          -53.979511
##########           Internal_energy_repulsive:           12.403123

@<TRIPOS>MOLECULE
HTS1710-05420874-01
 38 38 1 0 0
SMALL
USER_CHARGES


@<TRIPOS>ATOM
      1 C           0.8218  -13.0169  -34.1299 C.3     1  UNL1       -0.0653
      2 C           1.3325  -11.7459  -33.4134 C.3     1  UNL1       -0.0558
      3 C           0.9166  -10.4316  -34.1215 C.3     1  UNL1       -0.0513
      4 C           1.4182  -10.3346  -35.5877 C.3     1  UNL1       -0.0292
      5 CA          2.9636  -10.2026  -35.6980 C.3     1  UNL1        0.0629
      6 N           3.5054   -9.5084  -34.5188 N.am    1  UNL1       -0.3022
      7 C           4.6832   -9.8862  -33.8842 C.2     1  UNL1        0.2620
      8 O           5.3105  -10.8414  -34.3090 O.2     1  UNL1       -0.2685
      9 CA          5.1141   -9.0981  -32.7053 C.2     1  UNL1        0.1156
     10 N           5.7065   -7.8788  -32.7778 N.2     1  UNL1       -0.2657
     11 C           5.9069   -7.5609  -31.5093 C.2     1  UNL1       -0.0365
     12 O           5.4908   -8.4742  -30.5625 O.co2   1  UNL1       -0.7726
     13 C           4.9891   -9.4406  -31.3874 C.2     1  UNL1       -0.0600
     14 C           4.3594  -10.6840  -30.8096 C.3     1  UNL1        0.0625
     15 O           4.5395  -10.6820  -29.3800 O.3     1  UNL1       -0.3705
     16 C           4.3285  -11.9586  -28.7371 C.3     1  UNL1        0.0872
     17 C           3.0628  -11.9791  -27.8636 C.2     1  UNL1        0.0673
     18 O           2.1859  -11.1853  -28.1564 O.co2   1  UNL1       -0.5474
     19 O           3.0298  -12.7460  -26.9165 O.co2   1  UNL1       -0.5474
     20 C           3.3878   -9.4305  -36.9580 C.2     1  UNL1        0.0620
     21 O           4.5655   -9.1352  -37.0751 O.co2   1  UNL1       -0.5479
     22 OXT         2.5123   -9.1628  -37.7623 O.co2   1  UNL1       -0.5479
     23 H           1.1430  -13.8837  -33.5909 H       1  UNL1        0.0230
     24 H           1.2161  -13.0488  -35.1241 H       1  UNL1        0.0230
     25 H          -0.2473  -12.9982  -34.1707 H       1  UNL1        0.0230
     26 H           2.4009  -11.7857  -33.3724 H       1  UNL1        0.0263
     27 H           0.8908  -11.7334  -32.4389 H       1  UNL1        0.0263
     28 H           1.3191   -9.6075  -33.5703 H       1  UNL1        0.0266
     29 H          -0.1528  -10.4145  -34.1522 H       1  UNL1        0.0266
     30 H           0.9700   -9.4771  -36.0445 H       1  UNL1        0.0287
     31 H           1.1402  -11.2430  -36.0800 H       1  UNL1        0.0287
     32 H           3.3546  -11.1969  -35.7568 H       1  UNL1        0.0560
     33 H           3.0086   -8.7374  -34.1613 H       1  UNL1        0.1497
     34 H           6.3541   -6.6706  -31.2403 H       1  UNL1        0.0668
     35 H           4.8270  -11.5505  -31.2286 H       1  UNL1        0.0599
     36 H           3.3149  -10.7007  -31.0417 H       1  UNL1        0.0599
     37 H           5.1748  -12.1752  -28.1192 H       1  UNL1        0.0622
     38 H           4.2032  -12.6919  -29.5063 H       1  UNL1        0.0622
@<TRIPOS>BOND
     1     1     2    1
     2     2     3    1
     3     3     4    1
     4     4     5    1
     5     5     6    1
     6     6     7   am
     7     7     8    2
     8     7     9    1
     9     9    10    1
    10    10    11    2
    11    11    12    1
    12    12    13    1
    13     9    13    2
    14    13    14    1
    15    14    15    1
    16    15    16    1
    17    16    17    1
    18    17    18   ar
    19    17    19   ar
    20     5    20    1
    21    20    21   ar
    22    20    22   ar
    23     1    23    1
    24     1    24    1
    25     1    25    1
    26     2    26    1
    27     2    27    1
    28     3    28    1
    29     3    29    1
    30     4    30    1
    31     4    31    1
    32     5    32    1
    33     6    33    1
    34    11    34    1
    35    14    35    1
    36    14    36    1
    37    16    37    1
    38    16    38    1
@<TRIPOS>SUBSTRUCTURE
     1 UNL1        1 TEMP              0 ****  ****    0 ROOT


