##########                                Name: HTS1710-00155710-01
##########                    Molecular_Weight:             248.215
##########                DOCK_Rotatable_Bonds:                   5
##########                       Formal_Charge:                  -3
##########                     HBond_Acceptors:                   6
##########                        HBond_Donors:                   1
##########                         Heavy_Atoms:                  18
##########                          Grid_Score:          -80.230545
##########                     Grid_vdw_energy:          -31.837332
##########                      Grid_es_energy:          -48.393215
##########           Internal_energy_repulsive:            1.442925

@<TRIPOS>MOLECULE
HTS1710-00155710-01
 28 29 1 0 0
SMALL
USER_CHARGES


@<TRIPOS>ATOM
      1 C           6.3645   -7.3627  -33.9289 C.2     1  UNL1       -0.0174
      2 C           5.8117   -8.5794  -34.4006 C.2     1  UNL1       -0.0633
      3 C           5.4743   -9.2613  -33.2640 C.2     1  UNL1       -0.1001
      4 O           5.7436   -8.6158  -32.0871 O.co2   1  UNL1       -0.7865
      5 C           6.2929   -7.4482  -32.5590 C.2     1  UNL1       -0.1249
      6 C           6.8999   -6.2495  -34.7381 C.2     1  UNL1        0.0705
      7 O           7.3139   -5.2695  -34.1432 O.co2   1  UNL1       -0.5447
      8 O           6.8945   -6.3822  -35.9492 O.co2   1  UNL1       -0.5447
      9 C           4.8399  -10.6258  -33.2588 C.3     1  UNL1        0.0243
     10 N           4.2906  -10.9052  -31.9253 N.am    1  UNL1       -0.3084
     11 C           3.8546  -12.1671  -31.5399 C.2     1  UNL1        0.2432
     12 C           3.3202  -12.3359  -30.1759 C.2     1  UNL1        0.0220
     13 O           3.9225  -13.0986  -32.3249 O.2     1  UNL1       -0.2702
     14 C           3.0787  -13.5557  -29.4970 C.2     1  UNL1       -0.0617
     15 C           2.5941  -13.1737  -28.2748 C.2     1  UNL1       -0.1206
     16 O           2.4893  -11.8236  -28.0815 O.co2   1  UNL1       -0.7876
     17 C           2.9516  -11.3544  -29.2857 C.2     1  UNL1       -0.1216
     18 C           2.1965  -14.1299  -27.1821 C.3     1  UNL1       -0.0530
     19 H           5.6912   -8.8823  -35.3797 H       1  UNL1        0.0615
     20 H           6.6249   -6.6961  -31.9352 H       1  UNL1        0.0461
     21 H           5.5764  -11.3625  -33.5027 H       1  UNL1        0.0500
     22 H           4.0522  -10.6556  -33.9825 H       1  UNL1        0.0500
     23 H           4.2286  -10.1669  -31.2770 H       1  UNL1        0.1493
     24 H           3.2330  -14.5150  -29.8450 H       1  UNL1        0.0616
     25 H           3.0172  -10.3481  -29.5051 H       1  UNL1        0.0462
     26 H           2.3473  -15.1353  -27.5158 H       1  UNL1        0.0266
     27 H           1.1644  -13.9854  -26.9399 H       1  UNL1        0.0266
     28 H           2.7953  -13.9485  -26.3142 H       1  UNL1        0.0266
@<TRIPOS>BOND
     1     1     2    1
     2     2     3    2
     3     3     4    1
     4     4     5    1
     5     1     5    2
     6     1     6    1
     7     6     7   ar
     8     6     8   ar
     9     3     9    1
    10     9    10    1
    11    10    11   am
    12    11    12    1
    13    11    13    2
    14    12    14    1
    15    14    15    2
    16    15    16    1
    17    16    17    1
    18    12    17    2
    19    15    18    1
    20     2    19    1
    21     5    20    1
    22     9    21    1
    23     9    22    1
    24    10    23    1
    25    14    24    1
    26    17    25    1
    27    18    26    1
    28    18    27    1
    29    18    28    1
@<TRIPOS>SUBSTRUCTURE
     1 UNL1        1 TEMP              0 ****  ****    0 ROOT


