##########                                Name: HTS1710-04760628-01
##########                    Molecular_Weight:             310.327
##########                DOCK_Rotatable_Bonds:                   8
##########                       Formal_Charge:                  -2
##########                     HBond_Acceptors:                   7
##########                        HBond_Donors:                   1
##########                         Heavy_Atoms:                  22
##########                          Grid_Score:          -76.465225
##########                     Grid_vdw_energy:          -38.541477
##########                      Grid_es_energy:          -37.923744
##########           Internal_energy_repulsive:            8.790260

@<TRIPOS>MOLECULE
HTS1710-04760628-01
 42 43 1 0 0
SMALL
USER_CHARGES


@<TRIPOS>ATOM
      1 C           1.9296  -14.2158  -30.3304 C.3     1  UNL1       -0.0301
      2 C           2.7706  -14.2665  -29.0283 C.3     1  UNL1        0.1316
      3 O           1.9018  -14.4970  -27.8919 O.3     1  UNL1       -0.3651
      4 C           2.4927  -15.0998  -26.7192 C.3     1  UNL1        0.0748
      5 C           1.4022  -15.9188  -25.9967 C.3     1  UNL1        0.0820
      6 C           1.9345  -16.8255  -24.8658 C.3     1  UNL1       -0.0224
      7 C           0.8405  -16.7616  -23.7829 C.3     1  UNL1       -0.0270
      8 C          -0.2208  -15.8085  -24.3628 C.3     1  UNL1        0.0482
      9 O           0.5196  -15.0220  -25.3074 O.3     1  UNL1       -0.3743
     10 C           3.6479  -13.0219  -28.8030 C.2     1  UNL1        0.2419
     11 O           4.8011  -13.0989  -28.4110 O.2     1  UNL1       -0.2730
     12 N           3.0843  -11.7781  -29.0570 N.am    1  UNL1       -0.3102
     13 C           3.8228  -10.5223  -28.8785 C.3     1  UNL1        0.0240
     14 C           4.1927   -9.9387  -30.2172 C.2     1  UNL1       -0.1000
     15 C           3.7500  -10.4215  -31.4206 C.2     1  UNL1       -0.0630
     16 C           4.3380   -9.5716  -32.3947 C.2     1  UNL1       -0.0144
     17 C           4.1705   -9.6781  -33.8646 C.2     1  UNL1        0.0708
     18 O           3.2018  -10.2985  -34.2676 O.co2   1  UNL1       -0.5447
     19 O           4.9987   -9.1489  -34.5845 O.co2   1  UNL1       -0.5447
     20 C           5.0663   -8.6683  -31.6453 C.2     1  UNL1       -0.1120
     21 C           5.8857   -7.5292  -32.1975 C.3     1  UNL1       -0.0524
     22 O           5.0133   -8.8477  -30.2869 O.co2   1  UNL1       -0.7845
     23 H           1.3499  -15.1112  -30.4157 H       1  UNL1        0.0259
     24 H           2.5828  -14.1321  -31.1739 H       1  UNL1        0.0259
     25 H           1.2759  -13.3692  -30.3001 H       1  UNL1        0.0259
     26 H           3.4545  -15.0822  -29.1371 H       1  UNL1        0.0690
     27 H           2.8639  -14.3366  -26.0676 H       1  UNL1        0.0586
     28 H           3.3066  -15.7350  -27.0003 H       1  UNL1        0.0586
     29 H           0.9506  -16.5074  -26.7677 H       1  UNL1        0.0619
     30 H           2.8643  -16.4546  -24.4880 H       1  UNL1        0.0292
     31 H           2.1249  -17.8249  -25.1973 H       1  UNL1        0.0292
     32 H           1.2367  -16.3745  -22.8674 H       1  UNL1        0.0288
     33 H           0.4389  -17.7263  -23.5529 H       1  UNL1        0.0288
     34 H          -0.6408  -15.1913  -23.5963 H       1  UNL1        0.0560
     35 H          -1.0479  -16.3235  -24.8051 H       1  UNL1        0.0560
     36 H           2.1516  -11.7371  -29.3694 H       1  UNL1        0.1491
     37 H           4.7142  -10.7135  -28.3183 H       1  UNL1        0.0500
     38 H           3.2029   -9.8253  -28.3541 H       1  UNL1        0.0500
     39 H           3.1257  -11.2269  -31.5835 H       1  UNL1        0.0615
     40 H           5.8220   -7.5290  -33.2656 H       1  UNL1        0.0266
     41 H           6.9069   -7.6480  -31.9012 H       1  UNL1        0.0266
     42 H           5.5095   -6.6023  -31.8176 H       1  UNL1        0.0266
@<TRIPOS>BOND
     1     1     2    1
     2     2     3    1
     3     3     4    1
     4     4     5    1
     5     5     6    1
     6     6     7    1
     7     7     8    1
     8     8     9    1
     9     5     9    1
    10     2    10    1
    11    10    11    2
    12    10    12   am
    13    12    13    1
    14    13    14    1
    15    14    15    2
    16    15    16    1
    17    16    17    1
    18    17    18   ar
    19    17    19   ar
    20    16    20    2
    21    20    21    1
    22    20    22    1
    23    14    22    1
    24     1    23    1
    25     1    24    1
    26     1    25    1
    27     2    26    1
    28     4    27    1
    29     4    28    1
    30     5    29    1
    31     6    30    1
    32     6    31    1
    33     7    32    1
    34     7    33    1
    35     8    34    1
    36     8    35    1
    37    12    36    1
    38    13    37    1
    39    13    38    1
    40    15    39    1
    41    21    40    1
    42    21    41    1
    43    21    42    1
@<TRIPOS>SUBSTRUCTURE
     1 UNL1        1 TEMP              0 ****  ****    0 ROOT


