HTS1710-05328726-01
 OpenBabel03232612353D

 41 43  0  0  0  0  0  0  0  0999 V2000
    5.8713   -8.6259  -35.2771 O   0  5  0  0  0  0  0  0  0  0  0  0
    6.2693   -7.5151  -34.9711 C   0  0  0  0  0  0  0  0  0  0  0  0
    6.8185   -6.7489  -35.7417 O   0  0  0  0  0  0  0  0  0  0  0  0
    6.0670   -7.0866  -33.5596 C   0  0  0  0  0  0  0  0  0  0  0  0
    6.3492   -5.8404  -33.0976 N   0  0  0  0  0  0  0  0  0  0  0  0
    6.0239   -5.9028  -31.8178 C   0  0  0  0  0  0  0  0  0  0  0  0
    5.5351   -7.1069  -31.3549 O   0  0  0  0  0  0  0  0  0  0  0  0
    5.5850   -7.8297  -32.5142 C   0  0  0  0  0  0  0  0  0  0  0  0
    5.1647   -9.2780  -32.5177 C   0  0  0  0  0  0  0  0  0  0  0  0
    4.8964   -9.6838  -31.1659 O   0  0  0  0  0  0  0  0  0  0  0  0
    4.0904  -10.8654  -31.0486 C   0  0  0  0  0  0  0  0  0  0  0  0
    4.0373  -11.3350  -29.5833 C   0  0  0  0  0  0  0  0  0  0  0  0
    4.5401  -10.6469  -28.7094 O   0  0  0  0  0  0  0  0  0  0  0  0
    3.4812  -12.6021  -29.3222 N   0  0  0  0  0  0  0  0  0  0  0  0
    3.4209  -13.0741  -27.9131 C   0  0  0  0  0  0  0  0  0  0  0  0
    4.6000  -13.9701  -27.5604 C   0  0  0  0  0  0  0  0  0  0  0  0
    5.9056  -13.4470  -27.5579 C   0  0  0  0  0  0  0  0  0  0  0  0
    6.9980  -14.2725  -27.2459 C   0  0  0  0  0  0  0  0  0  0  0  0
    6.7892  -15.6259  -26.9349 C   0  0  0  0  0  0  0  0  0  0  0  0
    5.4882  -16.1524  -26.9368 C   0  0  0  0  0  0  0  0  0  0  0  0
    4.3956  -15.3268  -27.2498 C   0  0  0  0  0  0  0  0  0  0  0  0
    3.2692  -13.5947  -30.3828 C   0  0  0  0  0  0  0  0  0  0  0  0
    1.9607  -14.3538  -30.3134 C   0  0  0  0  0  0  0  0  0  0  0  0
    2.1219  -13.2296  -31.2950 C   0  0  0  0  0  0  0  0  0  0  0  0
    6.1307   -5.0881  -31.1936 H   0  0  0  0  0  0  0  0  0  0  0  0
    5.9501   -9.8798  -32.9249 H   0  0  0  0  0  0  0  0  0  0  0  0
    4.2862   -9.4009  -33.1160 H   0  0  0  0  0  0  0  0  0  0  0  0
    4.5122  -11.6414  -31.6526 H   0  0  0  0  0  0  0  0  0  0  0  0
    3.0970  -10.6424  -31.3780 H   0  0  0  0  0  0  0  0  0  0  0  0
    2.5143  -13.6246  -27.7718 H   0  0  0  0  0  0  0  0  0  0  0  0
    3.4559  -12.2155  -27.2754 H   0  0  0  0  0  0  0  0  0  0  0  0
    6.0614  -12.4527  -27.7861 H   0  0  0  0  0  0  0  0  0  0  0  0
    7.9543  -13.8845  -27.2451 H   0  0  0  0  0  0  0  0  0  0  0  0
    7.5917  -16.2329  -26.7052 H   0  0  0  0  0  0  0  0  0  0  0  0
    5.3342  -17.1468  -26.7082 H   0  0  0  0  0  0  0  0  0  0  0  0
    3.4401  -15.7167  -27.2518 H   0  0  0  0  0  0  0  0  0  0  0  0
    4.2933  -13.8832  -30.4966 H   0  0  0  0  0  0  0  0  0  0  0  0
    1.3183  -14.2356  -29.4660 H   0  0  0  0  0  0  0  0  0  0  0  0
    1.6797  -15.3838  -30.3833 H   0  0  0  0  0  0  0  0  0  0  0  0
    1.5932  -12.3113  -31.1467 H   0  0  0  0  0  0  0  0  0  0  0  0
    2.0022  -13.1292  -32.3535 H   0  0  0  0  0  0  0  0  0  0  0  0
  1  2  1  0  0  0  0
  2  3  2  0  0  0  0
  2  4  1  0  0  0  0
  4  5  1  0  0  0  0
  4  8  2  0  0  0  0
  5  6  2  0  0  0  0
  6  7  1  0  0  0  0
  6 25  1  0  0  0  0
  7  8  1  0  0  0  0
  8  9  1  0  0  0  0
  9 10  1  0  0  0  0
  9 26  1  0  0  0  0
  9 27  1  0  0  0  0
 10 11  1  0  0  0  0
 11 12  1  0  0  0  0
 11 28  1  0  0  0  0
 11 29  1  0  0  0  0
 12 13  2  0  0  0  0
 12 14  1  0  0  0  0
 14 15  1  0  0  0  0
 14 22  1  0  0  0  0
 15 16  1  0  0  0  0
 15 30  1  0  0  0  0
 15 31  1  0  0  0  0
 16 17  2  0  0  0  0
 16 21  1  0  0  0  0
 17 18  1  0  0  0  0
 17 32  1  0  0  0  0
 18 19  2  0  0  0  0
 18 33  1  0  0  0  0
 19 20  1  0  0  0  0
 19 34  1  0  0  0  0
 20 21  2  0  0  0  0
 20 35  1  0  0  0  0
 21 36  1  0  0  0  0
 22 23  1  0  0  0  0
 22 24  1  0  0  0  0
 22 37  1  0  0  0  0
 23 24  1  0  0  0  0
 23 38  1  0  0  0  0
 23 39  1  0  0  0  0
 24 40  1  0  0  0  0
 24 41  1  0  0  0  0
M  CHG  1   1  -1
M  END
$$$$
