##########                                Name: HTS1710-01239291-01
##########                    Molecular_Weight:             340.293
##########                DOCK_Rotatable_Bonds:                  11
##########                       Formal_Charge:                  -2
##########                     HBond_Acceptors:                   7
##########                        HBond_Donors:                   1
##########                         Heavy_Atoms:                  23
##########                          Grid_Score:          -76.621048
##########                     Grid_vdw_energy:          -38.967525
##########                      Grid_es_energy:          -37.653526
##########           Internal_energy_repulsive:            7.229933

@<TRIPOS>MOLECULE
HTS1710-01239291-01
 42 42 1 0 0
SMALL
USER_CHARGES


@<TRIPOS>ATOM
      1 P           4.0768   -9.4475  -30.0750 P.3     1  UNL1        0.1085
      2 C           0.8530   -8.7038  -34.8958 C.2     1  UNL1        0.2178
      3 N           1.3993   -9.4318  -35.9450 N.am    1  UNL1       -0.3071
      4 C           3.3648   -9.1449  -37.3908 C.2     1  UNL1        0.0619
      5 CA          2.8309   -9.7469  -36.0811 C.3     1  UNL1        0.0626
      6 O           5.4646   -8.9743  -30.3250 O.2     1  UNL1       -0.4607
      7 O           1.6279   -8.2955  -34.0479 O.2     1  UNL1       -0.2754
      8 O           2.5619   -8.9123  -38.2786 O.co2   1  UNL1       -0.5479
      9 O           3.8800   -9.8424  -28.6548 O.co2   1  UNL1       -0.3575
     10 O           3.0723   -8.4408  -30.5061 O.co2   1  UNL1       -0.3575
     11 C          -0.6514   -8.4020  -34.8007 C.3     1  UNL1        0.0491
     12 OXT         4.5624   -8.9208  -37.4460 O.co2   1  UNL1       -0.5479
     13 C           3.8077  -10.9514  -31.1077 C.3     1  UNL1        0.0012
     14 C          -1.0119   -7.1043  -35.5183 C.ar    1  UNL1       -0.0386
     15 C           3.0576  -11.2842  -36.0377 C.3     1  UNL1       -0.0292
     16 C          -0.3593   -6.7399  -36.7121 C.ar    1  UNL1       -0.0581
     17 C          -2.0048   -6.2561  -34.9906 C.ar    1  UNL1       -0.0581
     18 C           4.1637  -10.7309  -32.5961 C.3     1  UNL1       -0.0465
     19 C           4.0694  -11.7431  -34.9513 C.3     1  UNL1       -0.0510
     20 C           3.4930  -11.7790  -33.5137 C.3     1  UNL1       -0.0526
     21 C          -2.3335   -5.0567  -35.6431 C.ar    1  UNL1       -0.0615
     22 C          -0.6870   -5.5393  -37.3616 C.ar    1  UNL1       -0.0615
     23 C          -1.6737   -4.6967  -36.8268 C.ar    1  UNL1       -0.0617
     24 H           0.7884   -9.7589  -36.6443 H       1  UNL1        0.1493
     25 H           3.3680   -9.3174  -35.2614 H       1  UNL1        0.0560
     26 H          -0.9235   -8.3154  -33.7695 H       1  UNL1        0.0407
     27 H          -1.1832   -9.2027  -35.2710 H       1  UNL1        0.0407
     28 H           2.7771  -11.2313  -31.0410 H       1  UNL1        0.0341
     29 H           4.4537  -11.7178  -30.7333 H       1  UNL1        0.0341
     30 H           3.4242  -11.5975  -36.9928 H       1  UNL1        0.0287
     31 H           2.1161  -11.7292  -35.7917 H       1  UNL1        0.0287
     32 H           0.3637   -7.3587  -37.1114 H       1  UNL1        0.0620
     33 H          -2.4934   -6.5174  -34.1199 H       1  UNL1        0.0620
     34 H           5.2253  -10.7998  -32.7113 H       1  UNL1        0.0269
     35 H           3.8052   -9.7640  -32.8818 H       1  UNL1        0.0269
     36 H           4.9003  -11.0691  -34.9619 H       1  UNL1        0.0266
     37 H           4.3441  -12.7481  -35.1951 H       1  UNL1        0.0266
     38 H           3.6537  -12.7530  -33.1011 H       1  UNL1        0.0265
     39 H           2.4492  -11.5505  -33.5696 H       1  UNL1        0.0265
     40 H          -3.0615   -4.4395  -35.2508 H       1  UNL1        0.0618
     41 H          -0.2017   -5.2760  -38.2336 H       1  UNL1        0.0618
     42 H          -1.9134   -3.8136  -37.3039 H       1  UNL1        0.0618
@<TRIPOS>BOND
     1     2     3   am
     2     3     5    1
     3     4     5    1
     4     5    15    1
     5     1     6    2
     6     2     7    2
     7     4     8   ar
     8     1     9    1
     9     1    10    1
    10     2    11    1
    11     4    12   ar
    12     1    13    1
    13    11    14    1
    14    15    19    1
    15    14    16   ar
    16    14    17   ar
    17    13    18    1
    18    19    20    1
    19    18    20    1
    20    17    21   ar
    21    16    22   ar
    22    21    23   ar
    23    22    23   ar
    24     3    24    1
    25     5    25    1
    26    11    26    1
    27    11    27    1
    28    13    28    1
    29    13    29    1
    30    15    30    1
    31    15    31    1
    32    16    32    1
    33    17    33    1
    34    18    34    1
    35    18    35    1
    36    19    36    1
    37    19    37    1
    38    20    38    1
    39    20    39    1
    40    21    40    1
    41    22    41    1
    42    23    42    1
@<TRIPOS>SUBSTRUCTURE
     1 UNL1        1 TEMP              0 ****  ****    0 ROOT


