##########                                Name: HTS1710-01924933-01
##########                    Molecular_Weight:             423.379
##########                DOCK_Rotatable_Bonds:                   8
##########                       Formal_Charge:                  -2
##########                     HBond_Acceptors:                   9
##########                        HBond_Donors:                   0
##########                         Heavy_Atoms:                  31
##########                          Grid_Score:          -75.209373
##########                     Grid_vdw_energy:          -43.349400
##########                      Grid_es_energy:          -31.859972
##########           Internal_energy_repulsive:           13.543391

@<TRIPOS>MOLECULE
HTS1710-01924933-01
 48 50 1 0 0
SMALL
USER_CHARGES


@<TRIPOS>ATOM
      1 C           3.6709  -11.3938  -29.8658 C.2     1  UNL1        0.0170
      2 N           3.9225   -9.0709  -30.2039 N.am    1  UNL1       -0.2568
      3 C           3.3528   -9.2690  -28.9517 C.2     1  UNL1        0.2372
      4 C           3.2012  -10.7227  -28.7994 C.2     1  UNL1       -0.0354
      5 C           4.1452  -10.3701  -30.8929 C.3     1  UNL1        0.0842
      6 C           3.5975  -12.8393  -30.2289 C.2     1  UNL1        0.1579
      7 C           4.1256   -7.8297  -30.8755 C.ar    1  UNL1        0.0378
      8 C           1.2399  -10.7976  -35.9748 C.2     1  UNL1        0.3389
      9 C           3.3970  -10.4656  -32.2198 C.ar    1  UNL1       -0.0221
     10 O           3.0372   -8.4063  -28.1503 O.2     1  UNL1       -0.2709
     11 C           1.9806  -10.6713  -34.6647 C.ar    1  UNL1        0.0590
     12 C           2.8062   -2.6156  -33.2418 C.2     1  UNL1        0.0789
     13 O           2.6281  -11.2469  -27.6912 O.co2   1  UNL1       -0.8701
     14 O           0.4543  -11.7043  -36.2034 O.2     1  UNL1       -0.2450
     15 O           4.5758  -13.5643  -30.1689 O.2     1  UNL1       -0.2926
     16 O           2.9942   -1.9066  -34.2165 O.co2   1  UNL1       -0.5463
     17 C           2.1317   -9.8715  -32.3593 C.ar    1  UNL1       -0.0557
     18 C           3.9551  -11.1584  -33.3089 C.ar    1  UNL1       -0.0557
     19 C           1.4284   -9.9722  -33.5701 C.ar    1  UNL1       -0.0474
     20 C           3.2529  -11.2613  -34.5194 C.ar    1  UNL1       -0.0474
     21 C           5.2874   -7.6063  -31.6394 C.ar    1  UNL1       -0.0368
     22 C           3.1849   -6.7912  -30.7394 C.ar    1  UNL1       -0.0368
     23 O           4.7389   -4.0785  -32.6841 O.3     1  UNL1       -0.4862
     24 C           3.9913   -2.9017  -32.3000 C.3     1  UNL1        0.1286
     25 C           4.5643   -5.3261  -32.1135 C.ar    1  UNL1        0.1212
     26 O           1.5331   -9.8044  -36.8702 O.3     1  UNL1       -0.4645
     27 O           1.7450   -3.1366  -32.9465 O.co2   1  UNL1       -0.5463
     28 C           3.4025   -5.5507  -31.3582 C.ar    1  UNL1       -0.0182
     29 C           5.5084   -6.3652  -32.2581 C.ar    1  UNL1       -0.0182
     30 C           2.2879  -13.3240  -30.8548 C.3     1  UNL1       -0.0017
     31 C           2.8510   -9.7349  -37.4445 C.3     1  UNL1        0.0820
     32 H           5.1651  -10.5202  -31.1794 H       1  UNL1        0.0605
     33 H           1.7163   -9.3578  -31.5665 H       1  UNL1        0.0621
     34 H           4.8863  -11.5936  -33.2173 H       1  UNL1        0.0621
     35 H           0.4998   -9.5313  -33.6606 H       1  UNL1        0.0626
     36 H           3.6718  -11.7737  -35.3112 H       1  UNL1        0.0626
     37 H           5.9827   -8.3615  -31.7455 H       1  UNL1        0.0637
     38 H           2.3301   -6.9431  -30.1814 H       1  UNL1        0.0637
     39 H           3.6141   -3.0444  -31.3089 H       1  UNL1        0.0760
     40 H           4.6561   -2.0650  -32.3542 H       1  UNL1        0.0760
     41 H           2.7037   -4.7982  -31.2573 H       1  UNL1        0.0655
     42 H           6.3613   -6.2128  -32.8187 H       1  UNL1        0.0655
     43 H           1.5594  -12.5416  -30.8086 H       1  UNL1        0.0309
     44 H           1.9298  -14.1770  -30.3172 H       1  UNL1        0.0309
     45 H           2.4587  -13.5923  -31.8765 H       1  UNL1        0.0309
     46 H           2.9036   -8.9044  -38.1171 H       1  UNL1        0.0661
     47 H           3.0559  -10.6395  -37.9780 H       1  UNL1        0.0661
     48 H           3.5734   -9.6089  -36.6653 H       1  UNL1        0.0661
@<TRIPOS>BOND
     1     1     4    2
     2     1     5    1
     3     1     6    1
     4     2     3   am
     5     2     5    1
     6     2     7    1
     7     3     4    1
     8     3    10    2
     9     4    13    1
    10     5     9    1
    11     6    15    2
    12     6    30    1
    13     7    21   ar
    14     7    22   ar
    15     8    11    1
    16     8    14    2
    17     8    26    1
    18     9    17   ar
    19     9    18   ar
    20    11    19   ar
    21    11    20   ar
    22    12    16   ar
    23    12    24    1
    24    12    27   ar
    25    17    19   ar
    26    18    20   ar
    27    21    29   ar
    28    22    28   ar
    29    23    24    1
    30    23    25    1
    31    25    28   ar
    32    25    29   ar
    33    26    31    1
    34     5    32    1
    35    17    33    1
    36    18    34    1
    37    19    35    1
    38    20    36    1
    39    21    37    1
    40    22    38    1
    41    24    39    1
    42    24    40    1
    43    28    41    1
    44    29    42    1
    45    30    43    1
    46    30    44    1
    47    30    45    1
    48    31    46    1
    49    31    47    1
    50    31    48    1
@<TRIPOS>SUBSTRUCTURE
     1 UNL1        1 TEMP              0 ****  ****    0 ROOT


