HTS1710-03595626-01
 OpenBabel03232612353D

 25 26  0  0  0  0  0  0  0  0999 V2000
    2.2998  -10.1485  -36.4866 S   0  0  0  0  0  0  0  0  0  0  0  0
    2.8209   -8.7915  -32.5547 C   0  0  0  0  0  0  0  0  0  0  0  0
    3.0052   -9.6659  -34.8715 C   0  0  0  0  0  0  0  0  0  0  0  0
    2.2174   -9.1263  -33.8099 C   0  0  0  0  0  0  0  0  0  0  0  0
    4.2358   -8.9387  -32.4210 C   0  0  0  0  0  0  0  0  0  0  0  0
    1.9770   -8.3241  -31.4950 C   0  0  0  0  0  0  0  0  0  0  0  0
    5.0467   -8.4844  -31.2424 C   0  0  0  0  0  0  0  0  0  0  0  0
    2.4187   -8.0858  -30.0803 C   0  0  0  0  0  0  0  0  0  0  0  0
    4.3843   -9.8432  -34.6773 C   0  0  0  0  0  0  0  0  0  0  0  0
    4.9855   -9.4727  -33.4777 C   0  0  0  0  0  0  0  0  0  0  0  0
    3.3687  -10.9628  -37.0747 O   0  0  0  0  0  1  0  0  0  0  0  0
    1.0771  -10.8885  -36.1576 O   0  0  0  0  0  0  0  0  0  0  0  0
    2.0770   -8.8571  -37.1437 O   0  0  0  0  0  0  0  0  0  0  0  0
    5.4220   -9.3434  -30.4618 O   0  5  0  0  0  0  0  0  0  0  0  0
    2.7191   -9.0666  -29.4193 O   0  5  0  0  0  0  0  0  0  0  0  0
    2.5043   -6.9258  -29.7147 O   0  0  0  0  0  0  0  0  0  0  0  0
    5.3222   -7.2988  -31.1840 O   0  0  0  0  0  0  0  0  0  0  0  0
    0.8294   -8.9164  -33.9883 C   0  0  0  0  0  0  0  0  0  0  0  0
    0.6058   -8.1285  -31.7194 C   0  0  0  0  0  0  0  0  0  0  0  0
    0.0369   -8.4088  -32.9591 C   0  0  0  0  0  0  0  0  0  0  0  0
    4.9580  -10.2523  -35.4314 H   0  0  0  0  0  0  0  0  0  0  0  0
    6.0041   -9.5938  -33.3643 H   0  0  0  0  0  0  0  0  0  0  0  0
    0.3955   -9.1430  -34.8968 H   0  0  0  0  0  0  0  0  0  0  0  0
    0.0108   -7.7721  -30.9552 H   0  0  0  0  0  0  0  0  0  0  0  0
   -0.9692   -8.2413  -33.1159 H   0  0  0  0  0  0  0  0  0  0  0  0
  1  3  1  0  0  0  0
  1 11  1  0  0  0  0
  1 12  2  0  0  0  0
  1 13  2  0  0  0  0
  2  4  1  0  0  0  0
  2  5  2  0  0  0  0
  2  6  1  0  0  0  0
  3  4  2  0  0  0  0
  3  9  1  0  0  0  0
  4 18  1  0  0  0  0
  5  7  1  0  0  0  0
  5 10  1  0  0  0  0
  6  8  1  0  0  0  0
  6 19  2  0  0  0  0
  7 14  1  0  0  0  0
  7 17  2  0  0  0  0
  8 15  1  0  0  0  0
  8 16  2  0  0  0  0
  9 10  2  0  0  0  0
  9 21  1  0  0  0  0
 10 22  1  0  0  0  0
 18 20  2  0  0  0  0
 18 23  1  0  0  0  0
 19 20  1  0  0  0  0
 19 24  1  0  0  0  0
 20 25  1  0  0  0  0
M  CHG  2  14  -1  15  -1
M  END
$$$$
