##########                                Name: HTS1710-00277859-01
##########                    Molecular_Weight:             337.315
##########                DOCK_Rotatable_Bonds:                   6
##########                       Formal_Charge:                  -2
##########                     HBond_Acceptors:                   8
##########                        HBond_Donors:                   1
##########                         Heavy_Atoms:                  25
##########                          Grid_Score:          -77.711014
##########                     Grid_vdw_energy:          -39.146839
##########                      Grid_es_energy:          -38.564178
##########           Internal_energy_repulsive:           13.505166

@<TRIPOS>MOLECULE
HTS1710-00277859-01
 38 40 1 0 0
SMALL
USER_CHARGES


@<TRIPOS>ATOM
      1 C           3.3761  -12.1587  -32.2187 C.3     1  UNL1       -0.0435
      2 C           3.8254  -11.4630  -30.9144 C.3     1  UNL1        0.0345
      3 N           4.6839  -12.3511  -30.1204 N.am    1  UNL1       -0.3046
      4 C           4.2101  -13.1185  -29.0637 C.2     1  UNL1        0.2628
      5 O           3.0284  -13.0638  -28.7615 O.2     1  UNL1       -0.2685
      6 C           5.1766  -13.9988  -28.3119 C.ar    1  UNL1        0.1253
      7 C           4.8568  -15.3477  -28.0432 C.ar    1  UNL1       -0.0312
      8 C           5.7737  -16.1413  -27.3372 C.ar    1  UNL1       -0.0582
      9 C           6.9805  -15.5632  -26.9193 C.ar    1  UNL1       -0.0436
     10 C           7.2231  -14.2139  -27.2269 C.ar    1  UNL1        0.0284
     11 N           6.3453  -13.4487  -27.9056 N.ar    1  UNL1       -0.2504
     12 C           4.4829  -10.1148  -31.1571 C.2     1  UNL1       -0.0752
     13 C           4.5244   -9.3598  -32.3026 C.2     1  UNL1        0.0144
     14 C           3.8508   -9.6069  -33.6188 C.2     1  UNL1        0.0729
     15 O           2.8695   -8.9405  -33.8934 O.co2   1  UNL1       -0.5446
     16 O           4.2787  -10.4870  -34.3413 O.co2   1  UNL1       -0.5446
     17 C           5.2807   -8.2115  -31.8637 C.2     1  UNL1        0.0709
     18 N           5.5364   -8.2472  -30.5582 N.2     1  UNL1       -0.3024
     19 O           5.0415   -9.4979  -30.0867 O.co2   1  UNL1       -0.7128
     20 C           5.7891   -7.1813  -32.7905 C.ar    1  UNL1        0.0183
     21 C           6.3451   -7.5718  -34.0261 C.ar    1  UNL1       -0.0497
     22 C           6.7639   -6.5856  -34.9316 C.ar    1  UNL1       -0.0430
     23 C           6.5832   -5.2357  -34.5940 C.ar    1  UNL1        0.0276
     24 N           6.0060   -4.8444  -33.4417 N.ar    1  UNL1       -0.2626
     25 C           5.6126   -5.7967  -32.5691 C.ar    1  UNL1        0.0367
     26 H           2.9228  -13.0989  -31.9835 H       1  UNL1        0.0250
     27 H           4.2264  -12.3203  -32.8479 H       1  UNL1        0.0250
     28 H           2.6681  -11.5388  -32.7280 H       1  UNL1        0.0250
     29 H           2.9399  -11.2584  -30.3498 H       1  UNL1        0.0535
     30 H           5.6403  -12.4052  -30.3475 H       1  UNL1        0.1496
     31 H           3.9594  -15.7451  -28.3623 H       1  UNL1        0.0640
     32 H           5.5640  -17.1303  -27.1298 H       1  UNL1        0.0619
     33 H           7.6764  -16.1175  -26.3963 H       1  UNL1        0.0633
     34 H           8.1125  -13.7900  -26.9197 H       1  UNL1        0.0830
     35 H           6.4429   -8.5718  -34.2616 H       1  UNL1        0.0625
     36 H           7.1973   -6.8483  -35.8306 H       1  UNL1        0.0633
     37 H           6.9060   -4.5127  -35.2560 H       1  UNL1        0.0829
     38 H           5.1581   -5.4970  -31.6924 H       1  UNL1        0.0836
@<TRIPOS>BOND
     1     1     2    1
     2     2     3    1
     3     3     4   am
     4     4     5    2
     5     4     6    1
     6     6     7   ar
     7     7     8   ar
     8     8     9   ar
     9     9    10   ar
    10    10    11   ar
    11     6    11   ar
    12     2    12    1
    13    12    13    2
    14    13    14    1
    15    14    15   ar
    16    14    16   ar
    17    13    17    1
    18    17    18    2
    19    18    19    1
    20    12    19    1
    21    17    20    1
    22    20    21   ar
    23    21    22   ar
    24    22    23   ar
    25    23    24   ar
    26    24    25   ar
    27    20    25   ar
    28     1    26    1
    29     1    27    1
    30     1    28    1
    31     2    29    1
    32     3    30    1
    33     7    31    1
    34     8    32    1
    35     9    33    1
    36    10    34    1
    37    21    35    1
    38    22    36    1
    39    23    37    1
    40    25    38    1
@<TRIPOS>SUBSTRUCTURE
     1 UNL1        1 TEMP              0 ****  ****    0 ROOT


