HTS1710-01164318-01
 OpenBabel03232612363D

 38 40  0  0  1  0  0  0  0  0999 V2000
    4.4642   -7.3874  -31.3274 C   0  0  0  0  0  0  0  0  0  0  0  0
    4.9945   -8.3720  -32.1427 C   0  0  0  0  0  0  0  0  0  0  0  0
    3.8222  -10.0450  -30.6799 C   0  0  0  0  0  0  0  0  0  0  0  0
    3.3803   -8.9801  -29.9493 C   0  0  0  0  0  0  0  0  0  0  0  0
    3.5807   -7.6739  -30.3126 O   0  0  0  0  0  0  0  0  0  0  0  0
    4.5613   -9.8046  -32.0019 C   0  0  1  0  0  0  0  0  0  0  0  0
    4.8243   -5.9768  -31.5231 C   0  0  0  0  0  0  0  0  0  0  0  0
    5.8917   -8.1301  -33.1657 O   0  0  0  0  0  0  0  0  0  0  0  0
    5.7655   -5.7670  -32.6213 C   0  0  0  0  0  0  0  0  0  0  0  0
    3.6066  -11.4949  -30.2742 C   0  0  0  0  0  0  0  0  0  0  0  0
    6.2522   -6.8161  -33.3710 C   0  0  0  0  0  0  0  0  0  0  0  0
    3.7050  -10.2107  -33.2014 C   0  0  0  0  0  0  0  0  0  0  0  0
    2.6832   -9.1498  -28.7756 N   0  0  0  0  0  0  0  0  0  0  0  0
    4.3860   -5.0664  -30.8420 O   0  0  0  0  0  0  0  0  0  0  0  0
    2.6649  -11.9027  -29.6122 O   0  0  0  0  0  0  0  0  0  0  0  0
    1.5601  -10.1207  -34.3318 N   0  0  0  0  0  0  0  0  0  0  0  0
    4.5990  -12.3176  -30.7381 O   0  0  0  0  0  0  0  0  0  0  0  0
    7.2103   -6.5559  -34.5057 C   0  0  0  0  0  0  0  0  0  0  0  0
    2.3651   -9.7848  -33.3037 C   0  0  0  0  0  0  0  0  0  0  0  0
    6.7031   -7.0466  -35.7442 O   0  0  0  0  0  0  0  0  0  0  0  0
    2.0644  -10.9024  -35.3072 C   0  0  0  0  0  0  0  0  0  0  0  0
    4.2201  -11.0323  -34.2222 C   0  0  0  0  0  0  0  0  0  0  0  0
    4.2555  -13.5774  -31.3426 C   0  0  0  0  0  0  0  0  0  0  0  0
    3.3856  -11.3803  -35.2937 C   0  0  0  0  0  0  0  0  0  0  0  0
    5.4361  -10.4204  -31.9830 H   0  0  0  0  0  0  0  0  0  0  0  0
    6.0742   -4.8071  -32.8415 H   0  0  0  0  0  0  0  0  0  0  0  0
    1.8080   -8.7153  -28.6556 H   0  0  0  0  0  0  0  0  0  0  0  0
    3.0596   -9.7057  -28.0555 H   0  0  0  0  0  0  0  0  0  0  0  0
    8.1395   -7.0424  -34.2939 H   0  0  0  0  0  0  0  0  0  0  0  0
    7.3441   -5.4981  -34.5946 H   0  0  0  0  0  0  0  0  0  0  0  0
    1.9817   -9.1868  -32.5551 H   0  0  0  0  0  0  0  0  0  0  0  0
    6.5647   -8.0045  -35.6802 H   0  0  0  0  0  0  0  0  0  0  0  0
    1.4538  -11.1611  -36.0980 H   0  0  0  0  0  0  0  0  0  0  0  0
    5.1937  -11.3720  -34.1824 H   0  0  0  0  0  0  0  0  0  0  0  0
    5.1487  -14.0836  -31.6441 H   0  0  0  0  0  0  0  0  0  0  0  0
    3.6369  -13.4053  -32.1985 H   0  0  0  0  0  0  0  0  0  0  0  0
    3.7258  -14.1800  -30.6347 H   0  0  0  0  0  0  0  0  0  0  0  0
    3.7356  -11.9772  -36.0593 H   0  0  0  0  0  0  0  0  0  0  0  0
  1  2  2  0  0  0  0
  1  5  1  0  0  0  0
  1  7  1  0  0  0  0
  2  6  1  0  0  0  0
  2  8  1  0  0  0  0
  3  4  2  0  0  0  0
  3 10  1  0  0  0  0
  3  6  1  0  0  0  0
  4  5  1  0  0  0  0
  4 13  1  0  0  0  0
  6 12  1  0  0  0  0
  6 25  1  6  0  0  0
  7  9  1  0  0  0  0
  7 14  2  0  0  0  0
  8 11  1  0  0  0  0
  9 11  2  0  0  0  0
  9 26  1  0  0  0  0
 10 15  2  0  0  0  0
 10 17  1  0  0  0  0
 11 18  1  0  0  0  0
 12 19  2  0  0  0  0
 12 22  1  0  0  0  0
 13 27  1  0  0  0  0
 13 28  1  0  0  0  0
 16 19  1  0  0  0  0
 16 21  2  0  0  0  0
 17 23  1  0  0  0  0
 18 20  1  0  0  0  0
 18 29  1  0  0  0  0
 18 30  1  0  0  0  0
 19 31  1  0  0  0  0
 20 32  1  0  0  0  0
 21 24  1  0  0  0  0
 21 33  1  0  0  0  0
 22 24  2  0  0  0  0
 22 34  1  0  0  0  0
 23 35  1  0  0  0  0
 23 36  1  0  0  0  0
 23 37  1  0  0  0  0
 24 38  1  0  0  0  0
M  END
$$$$
