##########                                Name: HTS1710-01164311-01
##########                    Molecular_Weight:               347.3
##########                DOCK_Rotatable_Bonds:                   6
##########                       Formal_Charge:                  -2
##########                     HBond_Acceptors:                   8
##########                        HBond_Donors:                   3
##########                         Heavy_Atoms:                  25
##########                          Grid_Score:          -76.120659
##########                     Grid_vdw_energy:          -36.892628
##########                      Grid_es_energy:          -39.228031
##########           Internal_energy_repulsive:            4.242005

@<TRIPOS>MOLECULE
HTS1710-01164311-01
 39 41 1 0 0
SMALL
USER_CHARGES


@<TRIPOS>ATOM
      1 C           4.4777   -7.3777  -31.3597 C.2     1  UNL1       -0.0555
      2 C           5.0476   -8.3416  -32.1755 C.2     1  UNL1       -0.1091
      3 C           3.9053  -10.0581  -30.7398 C.2     1  UNL1        0.0538
      4 C           3.4194   -9.0105  -30.0104 C.2     1  UNL1       -0.0306
      5 O           3.5864   -7.6974  -30.3629 O.co2   1  UNL1       -0.7688
      6 C           4.6500   -9.7867  -32.0522 C.3     1  UNL1        0.0283
      7 C           4.8027   -5.9558  -31.5384 C.2     1  UNL1        0.1708
      8 O           5.9481   -8.0651  -33.1857 O.co2   1  UNL1       -0.7839
      9 C           5.7536   -5.7116  -32.6201 C.2     1  UNL1       -0.0241
     10 C           3.7345  -11.5154  -30.3383 C.2     1  UNL1        0.3364
     11 C           6.2732   -6.7396  -33.3751 C.2     1  UNL1       -0.0886
     12 C           3.8026  -10.2033  -33.2559 C.ar    1  UNL1       -0.0363
     13 N           2.7151   -9.2087  -28.8460 N.pl3   1  UNL1       -0.3685
     14 O           4.3300   -5.0635  -30.8562 O.2     1  UNL1       -0.2886
     15 O           2.8810  -12.2676  -30.7813 O.2     1  UNL1       -0.2453
     16 C           2.4116   -9.9720  -33.2595 C.ar    1  UNL1       -0.0550
     17 C           4.4030  -10.8106  -34.3768 C.ar    1  UNL1       -0.0550
     18 O           4.6544  -11.9085  -29.4035 O.3     1  UNL1       -0.4646
     19 C           2.2409  -10.9541  -35.4742 C.ar    1  UNL1        0.1234
     20 C           3.6248  -11.1886  -35.4819 C.ar    1  UNL1       -0.0262
     21 C           1.6326  -10.3461  -34.3655 C.ar    1  UNL1       -0.0262
     22 F           1.4927  -11.3138  -36.5372 F       1  UNL1       -0.2055
     23 C           7.2447   -6.4379  -34.4864 C.3     1  UNL1        0.0566
     24 O           6.6832   -6.7515  -35.7582 O.3     1  UNL1       -0.3915
     25 C           4.6231  -13.2539  -28.8931 C.3     1  UNL1        0.0820
     26 H           5.5430  -10.3759  -32.0375 H       1  UNL1        0.0437
     27 H           6.0440   -4.7425  -32.8241 H       1  UNL1        0.0647
     28 H           2.8586  -10.0266  -28.3170 H       1  UNL1        0.1413
     29 H           2.0673   -8.5329  -28.5414 H       1  UNL1        0.1413
     30 H           1.9638   -9.5251  -32.4443 H       1  UNL1        0.0621
     31 H           5.4213  -10.9783  -34.3852 H       1  UNL1        0.0621
     32 H           4.0689  -11.6379  -36.2980 H       1  UNL1        0.0646
     33 H           0.6150  -10.1745  -34.3632 H       1  UNL1        0.0646
     34 H           8.1313   -7.0194  -34.3429 H       1  UNL1        0.0596
     35 H           7.4725   -5.3927  -34.4641 H       1  UNL1        0.0596
     36 H           6.4612   -7.6953  -35.7898 H       1  UNL1        0.2098
     37 H           5.4084  -13.3823  -28.1778 H       1  UNL1        0.0661
     38 H           4.7585  -13.9444  -29.6992 H       1  UNL1        0.0661
     39 H           3.6792  -13.4351  -28.4229 H       1  UNL1        0.0661
@<TRIPOS>BOND
     1     1     2    2
     2     3     4    2
     3     4     5    1
     4     1     5    1
     5     2     6    1
     6     1     7    1
     7     2     8    1
     8     7     9    1
     9     3    10    1
    10     9    11    2
    11     6    12    1
    12     4    13    1
    13     7    14    2
    14    10    15    2
    15    12    16   ar
    16    12    17   ar
    17    10    18    1
    18    19    20   ar
    19    17    20   ar
    20    16    21   ar
    21    19    22    1
    22    11    23    1
    23    23    24    1
    24    18    25    1
    25     3     6    1
    26     8    11    1
    27    19    21   ar
    28     6    26    1
    29     9    27    1
    30    13    28    1
    31    13    29    1
    32    16    30    1
    33    17    31    1
    34    20    32    1
    35    21    33    1
    36    23    34    1
    37    23    35    1
    38    24    36    1
    39    25    37    1
    40    25    38    1
    41    25    39    1
@<TRIPOS>SUBSTRUCTURE
     1 UNL1        1 TEMP              0 ****  ****    0 ROOT


