HTS1710-00624292-01
 OpenBabel03232612353D

 25 25  0  0  1  0  0  0  0  0999 V2000
    4.7039  -10.2334  -33.5789 C   0  0  0  0  0  0  0  0  0  0  0  0
    5.5255   -9.2138  -33.1792 O   0  0  0  0  0  0  0  0  0  0  0  0
    4.4299  -10.2749  -34.9193 C   0  0  0  0  0  0  0  0  0  0  0  0
    4.1663  -11.2258  -32.5819 C   0  0  0  0  0  0  0  0  0  0  0  0
    5.7592   -8.5822  -34.3808 C   0  0  0  0  0  0  0  0  0  0  0  0
    5.1345   -9.1712  -35.4552 C   0  0  0  0  0  0  0  0  0  0  0  0
    4.6181  -10.7708  -30.8529 S   0  0  0  0  0  0  0  0  0  0  0  0
    6.6179   -7.3769  -34.4612 C   0  0  0  0  0  0  0  0  0  0  0  0
    3.1260   -9.7994  -30.3460 C   0  0  2  0  0  0  0  0  0  0  0  0
    6.9176   -6.9704  -35.5712 O   0  5  0  0  0  0  0  0  0  0  0  0
    6.9742   -6.8612  -33.4147 O   0  0  0  0  0  0  0  0  0  0  0  0
    3.1724   -8.3538  -30.9115 C   0  0  0  0  0  0  0  0  0  0  0  0
    3.0355   -9.7944  -28.8098 C   0  0  0  0  0  0  0  0  0  0  0  0
    1.9702   -7.4996  -30.4849 C   0  0  0  0  0  0  0  0  0  0  0  0
    2.4474  -10.7249  -28.2870 O   0  5  0  0  0  0  0  0  0  0  0  0
    3.5603   -8.8685  -28.2145 O   0  0  0  0  0  0  0  0  0  0  0  0
    0.9158   -7.6865  -31.0676 O   0  5  0  0  0  0  0  0  0  0  0  0
    2.1568   -6.6723  -29.6098 O   0  0  0  0  0  0  0  0  0  0  0  0
    3.8426  -10.9566  -35.4246 H   0  0  0  0  0  0  0  0  0  0  0  0
    4.5697  -12.1920  -32.8026 H   0  0  0  0  0  0  0  0  0  0  0  0
    3.0989  -11.2289  -32.6574 H   0  0  0  0  0  0  0  0  0  0  0  0
    5.1718   -8.8718  -36.4421 H   0  0  0  0  0  0  0  0  0  0  0  0
    2.2501  -10.2608  -30.7521 H   0  0  0  0  0  0  0  0  0  0  0  0
    3.1900   -8.4068  -31.9801 H   0  0  0  0  0  0  0  0  0  0  0  0
    4.0508   -7.8861  -30.5182 H   0  0  0  0  0  0  0  0  0  0  0  0
  1  2  1  0  0  0  0
  1  3  2  0  0  0  0
  1  4  1  0  0  0  0
  2  5  1  0  0  0  0
  3  6  1  0  0  0  0
  3 19  1  0  0  0  0
  4  7  1  0  0  0  0
  4 20  1  0  0  0  0
  4 21  1  0  0  0  0
  5  8  1  0  0  0  0
  5  6  2  0  0  0  0
  6 22  1  0  0  0  0
  7  9  1  0  0  0  0
  8 10  1  0  0  0  0
  8 11  2  0  0  0  0
  9 12  1  0  0  0  0
  9 13  1  0  0  0  0
  9 23  1  6  0  0  0
 12 14  1  0  0  0  0
 12 24  1  0  0  0  0
 12 25  1  0  0  0  0
 13 15  1  0  0  0  0
 13 16  2  0  0  0  0
 14 17  1  0  0  0  0
 14 18  2  0  0  0  0
M  CHG  3  10  -1  15  -1  17  -1
M  END
$$$$
