##########                                Name: HTS1710-04600939-01
##########                    Molecular_Weight:             379.347
##########                DOCK_Rotatable_Bonds:                   8
##########                       Formal_Charge:                  -2
##########                     HBond_Acceptors:                  10
##########                        HBond_Donors:                   2
##########                         Heavy_Atoms:                  26
##########                          Grid_Score:          -80.926117
##########                     Grid_vdw_energy:          -42.701954
##########                      Grid_es_energy:          -38.224167
##########           Internal_energy_repulsive:            8.675016

@<TRIPOS>MOLECULE
HTS1710-04600939-01
 39 40 1 0 0
SMALL
USER_CHARGES


@<TRIPOS>ATOM
      1 S           1.3259  -12.2697  -33.3632 S.O2    1  UNL1        0.0725
      2 C           2.8739  -11.9897  -29.5652 C.ar    1  UNL1        0.0408
      3 N           2.7211  -12.2494  -34.3382 N.pl3   1  UNL1       -0.2127
      4 C           3.5059  -11.1650  -34.6843 C.ar    1  UNL1        0.0900
      5 C           1.9118  -12.6987  -31.7131 C.ar    1  UNL1        0.1093
      6 C           2.4688  -11.7070  -30.8915 C.ar    1  UNL1       -0.0227
      7 C           3.4514  -10.8523  -28.7246 C.2     1  UNL1        0.0752
      8 C           5.7617   -8.5741  -32.9756 C.2     1  UNL1        0.0717
      9 C           5.0208   -9.3453  -34.0429 C.ar    1  UNL1       -0.0007
     10 C           4.1757  -10.4195  -33.6938 C.ar    1  UNL1       -0.0269
     11 O           0.7650  -10.9166  -33.4087 O.2     1  UNL1       -0.1500
     12 O           0.6143  -13.4448  -33.8767 O.2     1  UNL1       -0.1500
     13 C           2.7169  -13.3210  -29.0803 C.ar    1  UNL1        0.1294
     14 C           3.6435  -10.8022  -36.0384 C.ar    1  UNL1        0.1391
     15 O           4.6070  -10.5312  -28.9417 O.co2   1  UNL1       -0.5445
     16 O           6.5568   -7.7249  -33.3437 O.co2   1  UNL1       -0.5446
     17 C           1.7610  -14.0029  -31.2269 C.ar    1  UNL1       -0.0316
     18 C           5.1640   -9.0085  -35.4050 C.ar    1  UNL1       -0.0493
     19 C           2.1583  -14.3113  -29.9211 C.ar    1  UNL1       -0.0174
     20 C           4.4742   -9.7274  -36.3927 C.ar    1  UNL1       -0.0177
     21 O           2.7453  -10.3230  -27.8849 O.co2   1  UNL1       -0.5445
     22 O           5.5172   -8.8462  -31.8127 O.co2   1  UNL1       -0.5446
     23 O           2.9925  -11.4993  -37.0194 O.3     1  UNL1       -0.5049
     24 O           3.0876  -13.6339  -27.7815 O.3     1  UNL1       -0.4916
     25 C           4.4440  -13.7509  -27.3067 C.3     1  UNL1        0.0868
     26 C           5.2722  -14.5669  -28.3240 C.3     1  UNL1       -0.0307
     27 H           3.0048  -13.1193  -34.7013 H       1  UNL1        0.1738
     28 H           2.5855  -10.7510  -31.2623 H       1  UNL1        0.0645
     29 H           4.0463  -10.6627  -32.6993 H       1  UNL1        0.0644
     30 H           1.3574  -14.7360  -31.8309 H       1  UNL1        0.0638
     31 H           5.7810   -8.2274  -35.6771 H       1  UNL1        0.0625
     32 H           2.0420  -15.2737  -29.5671 H       1  UNL1        0.0655
     33 H           4.5778   -9.4645  -37.3853 H       1  UNL1        0.0655
     34 H           2.3728  -12.1635  -36.7896 H       1  UNL1        0.2922
     35 H           4.4495  -14.2492  -26.3598 H       1  UNL1        0.0694
     36 H           4.8707  -12.7760  -27.1967 H       1  UNL1        0.0694
     37 H           4.8440  -15.5414  -28.4326 H       1  UNL1        0.0262
     38 H           6.2792  -14.6568  -27.9738 H       1  UNL1        0.0262
     39 H           5.2670  -14.0675  -29.2703 H       1  UNL1        0.0262
@<TRIPOS>BOND
     1     2     6   ar
     2     1     3    1
     3     3     4    1
     4     1     5    1
     5     5     6   ar
     6     2     7    1
     7     8     9    1
     8     9    10   ar
     9     4    10   ar
    10     1    11    2
    11     1    12    2
    12     2    13   ar
    13     4    14   ar
    14     7    15   ar
    15     8    16   ar
    16     5    17   ar
    17    18    20   ar
    18    17    19   ar
    19    14    20   ar
    20     7    21   ar
    21     8    22   ar
    22    14    23    1
    23    13    24    1
    24    24    25    1
    25    25    26    1
    26    13    19   ar
    27     9    18   ar
    28     3    27    1
    29     6    28    1
    30    10    29    1
    31    17    30    1
    32    18    31    1
    33    19    32    1
    34    20    33    1
    35    23    34    1
    36    25    35    1
    37    25    36    1
    38    26    37    1
    39    26    38    1
    40    26    39    1
@<TRIPOS>SUBSTRUCTURE
     1 UNL1        1 TEMP              0 ****  ****    0 ROOT


