HTS1710-02939262-01
 OpenBabel03232612353D

 40 43  0  0  1  0  0  0  0  0999 V2000
    6.5672  -14.7150  -27.3185 C   0  0  0  0  0  0  0  0  0  0  0  0
    1.0087   -8.8508  -35.4399 C   0  0  0  0  0  0  0  0  0  0  0  0
    4.4412  -14.0286  -28.0397 C   0  0  0  0  0  0  0  0  0  0  0  0
    2.8628  -11.8754  -28.9312 C   0  0  0  0  0  0  0  0  0  0  0  0
    4.5838   -9.5492  -30.0987 C   0  0  0  0  0  0  0  0  0  0  0  0
    2.5871   -9.7532  -37.2520 C   0  0  0  0  0  0  0  0  0  0  0  0
    3.7601   -9.9249  -36.2890 C   0  0  0  0  0  0  0  0  0  0  0  0
    2.8187  -12.9597  -31.1830 C   0  0  0  0  0  0  0  0  0  0  0  0
    3.3200  -11.7552  -30.3824 C   0  0  0  0  0  0  0  0  0  0  0  0
    4.7602  -11.1817  -34.3823 C   0  0  1  0  0  0  0  0  0  0  0  0
    4.8791  -10.0034  -33.3735 C   0  0  0  0  0  0  0  0  0  0  0  0
    4.2826  -11.9997  -33.1320 C   0  0  1  0  0  0  0  0  0  0  0  0
    4.0921  -10.7428  -30.9072 C   0  0  0  0  0  0  0  0  0  0  0  0
    4.4603  -10.7908  -32.3160 N   0  0  0  0  0  0  0  0  0  0  0  0
    4.7270   -9.1824  -36.3135 O   0  0  0  0  0  0  0  0  0  0  0  0
    3.6842  -10.9398  -35.3482 N   0  0  0  0  0  0  0  0  0  0  0  0
    2.5084  -12.4330  -32.9111 S   0  0  0  0  0  0  0  0  0  0  0  0
    5.1497   -8.8165  -33.3653 O   0  0  0  0  0  0  0  0  0  0  0  0
    0.0830   -7.3411  -36.6397 N   0  0  0  0  0  0  0  0  0  0  0  0
    4.0696   -9.3558  -29.0120 O   0  5  0  0  0  0  0  0  0  0  0  0
    5.4565   -8.8346  -30.5548 O   0  0  0  0  0  0  0  0  0  0  0  0
    0.9495   -7.9101  -37.4414 N   0  0  0  0  0  0  0  0  0  0  0  0
    2.7988  -13.6853  -28.5718 S   0  0  0  0  0  0  0  0  0  0  0  0
    1.5475   -8.8719  -36.6990 N   0  0  0  0  0  0  0  0  0  0  0  0
    5.0803  -15.5821  -27.5801 S   0  0  0  0  0  0  0  0  0  0  0  0
    0.0973   -7.9079  -35.3862 N   0  0  0  0  0  0  0  0  0  0  0  0
    6.5331  -13.4158  -27.5654 N   0  0  0  0  0  0  0  0  0  0  0  0
    5.2820  -13.0114  -27.9924 N   0  0  0  0  0  0  0  0  0  0  0  0
    7.6823  -15.3370  -26.8891 O   0  0  0  0  0  0  0  0  0  0  0  0
    1.2755   -9.4738  -34.6616 H   0  0  0  0  0  0  0  0  0  0  0  0
    1.8946  -11.4367  -28.8080 H   0  0  0  0  0  0  0  0  0  0  0  0
    3.5272  -11.3652  -28.2656 H   0  0  0  0  0  0  0  0  0  0  0  0
    2.1577  -10.7134  -37.4488 H   0  0  0  0  0  0  0  0  0  0  0  0
    2.9583   -9.3051  -38.1500 H   0  0  0  0  0  0  0  0  0  0  0  0
    1.9114  -13.3265  -30.7504 H   0  0  0  0  0  0  0  0  0  0  0  0
    3.5528  -13.7380  -31.1665 H   0  0  0  0  0  0  0  0  0  0  0  0
    5.5484  -11.5102  -35.0270 H   0  0  0  0  0  0  0  0  0  0  0  0
    4.7482  -12.9573  -33.0270 H   0  0  0  0  0  0  0  0  0  0  0  0
    2.8851  -11.5146  -35.3280 H   0  0  0  0  0  0  0  0  0  0  0  0
    8.2158  -14.9397  -26.2293 H   0  0  0  0  0  0  0  0  0  0  0  0
  1 25  1  0  0  0  0
  1 27  2  0  0  0  0
  1 29  1  0  0  0  0
  2 24  1  0  0  0  0
  2 26  2  0  0  0  0
  2 30  1  0  0  0  0
  3 23  1  0  0  0  0
  3 25  1  0  0  0  0
  3 28  2  0  0  0  0
  4  9  1  0  0  0  0
  4 23  1  0  0  0  0
  4 31  1  0  0  0  0
  4 32  1  0  0  0  0
  5 13  1  0  0  0  0
  5 20  1  0  0  0  0
  5 21  2  0  0  0  0
  6  7  1  0  0  0  0
  6 24  1  0  0  0  0
  6 33  1  0  0  0  0
  6 34  1  0  0  0  0
  7 16  1  0  0  0  0
  7 15  2  0  0  0  0
  8  9  1  0  0  0  0
  8 17  1  0  0  0  0
  8 35  1  0  0  0  0
  8 36  1  0  0  0  0
  9 13  2  0  0  0  0
 10 16  1  0  0  0  0
 10 11  1  0  0  0  0
 10 12  1  0  0  0  0
 10 37  1  6  0  0  0
 11 18  2  0  0  0  0
 11 14  1  0  0  0  0
 12 17  1  0  0  0  0
 12 14  1  0  0  0  0
 12 38  1  1  0  0  0
 13 14  1  0  0  0  0
 16 39  1  0  0  0  0
 19 22  2  0  0  0  0
 19 26  1  0  0  0  0
 22 24  1  0  0  0  0
 27 28  1  0  0  0  0
 29 40  1  0  0  0  0
M  CHG  1  20  -1
M  END
$$$$
