HTS1710-00488361-01
 OpenBabel03232612363D

 32 33  0  0  0  0  0  0  0  0999 V2000
    1.6795  -12.4148  -32.4729 C   0  0  0  0  0  0  0  0  0  0  0  0
    0.9866  -12.6127  -33.6904 C   0  0  0  0  0  0  0  0  0  0  0  0
    2.3177  -11.1604  -32.2644 C   0  0  0  0  0  0  0  0  0  0  0  0
    1.7185  -13.5029  -31.4583 C   0  0  0  0  0  0  0  0  0  0  0  0
    0.9242  -11.6101  -34.6694 C   0  0  0  0  0  0  0  0  0  0  0  0
    0.3505  -13.7995  -33.9511 O   0  0  0  0  0  0  0  0  0  0  0  0
    2.2480  -10.1551  -33.2567 C   0  0  0  0  0  0  0  0  0  0  0  0
    3.0094  -10.9331  -31.0908 O   0  0  0  0  0  0  0  0  0  0  0  0
    1.0424  -14.6532  -31.8279 C   0  0  0  0  0  0  0  0  0  0  0  0
    2.3913  -13.5027  -30.0997 C   0  0  0  0  0  0  0  0  0  0  0  0
    1.5586  -10.3746  -34.4544 C   0  0  0  0  0  0  0  0  0  0  0  0
    0.3239  -14.8545  -33.0971 C   0  0  0  0  0  0  0  0  0  0  0  0
    2.6202   -9.9637  -30.0946 C   0  0  0  0  0  0  0  0  0  0  0  0
    1.5291   -9.3586  -35.3900 O   0  0  0  0  0  0  0  0  0  0  0  0
   -0.2552  -15.8918  -33.3683 O   0  0  0  0  0  0  0  0  0  0  0  0
    3.8449   -9.4337  -29.3338 C   0  0  0  0  0  0  0  0  0  0  0  0
    1.8098   -9.5717  -36.7901 C   0  0  0  0  0  0  0  0  0  0  0  0
    4.9237   -9.4459  -29.9020 O   0  5  0  0  0  0  0  0  0  0  0  0
    3.6575   -9.0710  -28.1862 O   0  0  0  0  0  0  0  0  0  0  0  0
    3.2803   -9.2790  -37.1238 C   0  0  0  0  0  0  0  0  0  0  0  0
    4.0912   -9.5061  -36.2429 O   0  5  0  0  0  0  0  0  0  0  0  0
    3.5478   -8.8462  -38.2316 O   0  0  0  0  0  0  0  0  0  0  0  0
    0.4116  -11.7800  -35.5490 H   0  0  0  0  0  0  0  0  0  0  0  0
    2.7118   -9.2474  -33.0953 H   0  0  0  0  0  0  0  0  0  0  0  0
    1.0420  -15.4366  -31.1561 H   0  0  0  0  0  0  0  0  0  0  0  0
    2.8737  -12.5610  -29.9407 H   0  0  0  0  0  0  0  0  0  0  0  0
    3.1184  -14.2868  -30.0617 H   0  0  0  0  0  0  0  0  0  0  0  0
    1.6567  -13.6603  -29.3379 H   0  0  0  0  0  0  0  0  0  0  0  0
    1.9498  -10.4254  -29.4001 H   0  0  0  0  0  0  0  0  0  0  0  0
    2.1429   -9.1421  -30.5867 H   0  0  0  0  0  0  0  0  0  0  0  0
    1.1865   -8.9248  -37.3714 H   0  0  0  0  0  0  0  0  0  0  0  0
    1.6133  -10.5985  -37.0179 H   0  0  0  0  0  0  0  0  0  0  0  0
  1  2  2  0  0  0  0
  1  3  1  0  0  0  0
  1  4  1  0  0  0  0
  2  5  1  0  0  0  0
  2  6  1  0  0  0  0
  3  7  2  0  0  0  0
  3  8  1  0  0  0  0
  4  9  2  0  0  0  0
  4 10  1  0  0  0  0
  5 11  2  0  0  0  0
  5 23  1  0  0  0  0
  6 12  1  0  0  0  0
  7 11  1  0  0  0  0
  7 24  1  0  0  0  0
  8 13  1  0  0  0  0
  9 12  1  0  0  0  0
  9 25  1  0  0  0  0
 10 26  1  0  0  0  0
 10 27  1  0  0  0  0
 10 28  1  0  0  0  0
 11 14  1  0  0  0  0
 12 15  2  0  0  0  0
 13 16  1  0  0  0  0
 13 29  1  0  0  0  0
 13 30  1  0  0  0  0
 14 17  1  0  0  0  0
 16 18  1  0  0  0  0
 16 19  2  0  0  0  0
 17 20  1  0  0  0  0
 17 31  1  0  0  0  0
 17 32  1  0  0  0  0
 20 21  1  0  0  0  0
 20 22  2  0  0  0  0
M  CHG  2  18  -1  21  -1
M  END
$$$$
