HTS1710-00862656-01
 OpenBabel03232612363D

 37 38  0  0  1  0  0  0  0  0999 V2000
    2.9966  -10.5696  -32.5926 N   0  0  0  0  0  0  0  0  0  0  0  0
    3.2238  -11.8222  -33.1519 C   0  0  0  0  0  0  0  0  0  0  0  0
    2.1764   -9.7458  -33.3627 C   0  0  0  0  0  0  0  0  0  0  0  0
    1.7335  -10.4591  -34.5838 C   0  0  0  0  0  0  0  0  0  0  0  0
    2.3782  -12.0819  -34.7052 S   0  0  0  0  0  0  0  0  0  0  0  0
    3.5855  -10.1107  -31.3039 C   0  0  2  0  0  0  0  0  0  0  0  0
    2.4877   -9.7195  -30.2690 C   0  0  0  0  0  0  0  0  0  0  0  0
    0.8877   -9.8639  -35.4985 C   0  0  0  0  0  0  0  0  0  0  0  0
    4.6682   -9.0387  -31.5714 C   0  0  0  0  0  0  0  0  0  0  0  0
    4.2465  -13.0025  -32.5415 S   0  0  0  0  0  0  0  0  0  0  0  0
   -1.8734   -4.7161  -35.8834 C   0  0  0  0  0  0  0  0  0  0  0  0
    3.0269   -8.8133  -29.1523 C   0  0  0  0  0  0  0  0  0  0  0  0
    1.8684   -8.6034  -33.0639 O   0  0  0  0  0  0  0  0  0  0  0  0
   -1.1551   -6.0406  -35.7818 C   0  0  0  0  0  0  0  0  0  0  0  0
    4.7009   -8.4973  -32.6638 O   0  5  0  0  0  0  0  0  0  0  0  0
   -2.8667   -4.5581  -36.5759 O   0  0  0  0  0  0  0  0  0  0  0  0
    3.9383   -9.2548  -28.4731 O   0  5  0  0  0  0  0  0  0  0  0  0
    0.2106   -8.5370  -35.6353 C   0  0  0  0  0  0  0  0  0  0  0  0
   -0.2638   -6.4366  -36.7972 C   0  0  0  0  0  0  0  0  0  0  0  0
   -1.3530   -6.9057  -34.6864 C   0  0  0  0  0  0  0  0  0  0  0  0
    5.4281   -8.7946  -30.6499 O   0  0  0  0  0  0  0  0  0  0  0  0
   -1.3077   -3.7241  -35.1294 O   0  0  0  0  0  0  0  0  0  0  0  0
    2.4886   -7.7312  -28.9934 O   0  0  0  0  0  0  0  0  0  0  0  0
   -0.6766   -8.1346  -34.6179 C   0  0  0  0  0  0  0  0  0  0  0  0
    0.4094   -7.6667  -36.7270 C   0  0  0  0  0  0  0  0  0  0  0  0
   -1.5947   -3.6562  -33.7201 C   0  0  0  0  0  0  0  0  0  0  0  0
    4.0952  -10.9214  -30.8268 H   0  0  0  0  0  0  0  0  0  0  0  0
    2.0985  -10.6131  -29.8276 H   0  0  0  0  0  0  0  0  0  0  0  0
    1.7288   -9.1750  -30.7909 H   0  0  0  0  0  0  0  0  0  0  0  0
    0.6670  -10.4928  -36.2864 H   0  0  0  0  0  0  0  0  0  0  0  0
   -0.1032   -5.8140  -37.6044 H   0  0  0  0  0  0  0  0  0  0  0  0
   -1.9996   -6.6340  -33.9294 H   0  0  0  0  0  0  0  0  0  0  0  0
   -0.8325   -8.7541  -33.8074 H   0  0  0  0  0  0  0  0  0  0  0  0
    1.0575   -7.9371  -37.4833 H   0  0  0  0  0  0  0  0  0  0  0  0
   -1.0737   -2.8268  -33.2896 H   0  0  0  0  0  0  0  0  0  0  0  0
   -1.2763   -4.5617  -33.2473 H   0  0  0  0  0  0  0  0  0  0  0  0
   -2.6473   -3.5297  -33.5762 H   0  0  0  0  0  0  0  0  0  0  0  0
  1  2  1  0  0  0  0
  1  3  1  0  0  0  0
  1  6  1  0  0  0  0
  2  5  1  0  0  0  0
  2 10  2  0  0  0  0
  3  4  1  0  0  0  0
  3 13  2  0  0  0  0
  4  8  2  0  0  0  0
  4  5  1  0  0  0  0
  6  7  1  0  0  0  0
  6  9  1  0  0  0  0
  6 27  1  1  0  0  0
  7 12  1  0  0  0  0
  7 28  1  0  0  0  0
  7 29  1  0  0  0  0
  8 18  1  0  0  0  0
  8 30  1  0  0  0  0
  9 15  1  0  0  0  0
  9 21  2  0  0  0  0
 11 14  1  0  0  0  0
 11 16  2  0  0  0  0
 11 22  1  0  0  0  0
 12 17  1  0  0  0  0
 12 23  2  0  0  0  0
 14 19  2  0  0  0  0
 14 20  1  0  0  0  0
 18 24  1  0  0  0  0
 18 25  2  0  0  0  0
 19 25  1  0  0  0  0
 19 31  1  0  0  0  0
 20 24  2  0  0  0  0
 20 32  1  0  0  0  0
 22 26  1  0  0  0  0
 24 33  1  0  0  0  0
 25 34  1  0  0  0  0
 26 35  1  0  0  0  0
 26 36  1  0  0  0  0
 26 37  1  0  0  0  0
M  CHG  2  15  -1  17  -1
M  END
$$$$
