##########                                Name: HTS1710-02007381-01
##########                    Molecular_Weight:             394.381
##########                DOCK_Rotatable_Bonds:                  14
##########                       Formal_Charge:                  -2
##########                     HBond_Acceptors:                  10
##########                        HBond_Donors:                   2
##########                         Heavy_Atoms:                  28
##########                          Grid_Score:          -76.901367
##########                     Grid_vdw_energy:          -43.665321
##########                      Grid_es_energy:          -33.236042
##########           Internal_energy_repulsive:           14.338814

@<TRIPOS>MOLECULE
HTS1710-02007381-01
 50 50 1 0 0
SMALL
USER_CHARGES


@<TRIPOS>ATOM
      1 C           0.4565   -8.1705  -33.6547 C.ar    1  UNL1        0.0792
      2 C           2.1121  -10.1716  -32.5031 C.ar    1  UNL1        0.0792
      3 C           2.0348   -8.8849  -31.9286 C.ar    1  UNL1        0.0067
      4 C           0.4863   -9.4754  -34.1931 C.ar    1  UNL1        0.0067
      5 N          -0.3329   -7.1411  -34.1679 N.am    1  UNL1       -0.2825
      6 N           2.8930  -11.2031  -31.9785 N.am    1  UNL1       -0.2825
      7 C           1.2212   -7.8857  -32.5051 C.ar    1  UNL1        0.1436
      8 C           1.3122  -10.4692  -33.6250 C.ar    1  UNL1        0.1436
      9 C          -0.4872   -6.7880  -35.5062 C.2     1  UNL1        0.2176
     10 C           2.4479  -12.4296  -31.4921 C.2     1  UNL1        0.2176
     11 C          -3.4572   -6.9379  -35.0322 C.2     1  UNL1        0.0422
     12 C           4.0949  -11.7864  -29.0847 C.2     1  UNL1        0.0422
     13 O           1.2627  -12.7125  -31.4569 O.2     1  UNL1       -0.2755
     14 O           0.1132   -7.3660  -36.3966 O.2     1  UNL1       -0.2755
     15 O          -4.2545   -7.0533  -35.9477 O.co2   1  UNL1       -0.5498
     16 O           3.0718  -12.1552  -28.5336 O.co2   1  UNL1       -0.5498
     17 C          -1.4170   -5.6115  -35.8180 C.3     1  UNL1        0.0293
     18 C           3.5065  -13.4025  -30.9650 C.3     1  UNL1        0.0293
     19 C          -2.6883   -5.6149  -34.9343 C.3     1  UNL1       -0.0049
     20 C           4.6404  -12.6677  -30.2140 C.3     1  UNL1       -0.0049
     21 O           4.7292  -10.7852  -28.8036 O.co2   1  UNL1       -0.5498
     22 O          -3.2317   -7.7764  -34.1783 O.co2   1  UNL1       -0.5498
     23 O           1.1373   -6.6131  -31.9609 O.3     1  UNL1       -0.4903
     24 O           1.3655  -11.7515  -34.1463 O.3     1  UNL1       -0.4903
     25 C           1.5853  -12.0387  -35.5388 C.3     1  UNL1        0.0869
     26 C           0.1459   -6.1919  -31.0020 C.3     1  UNL1        0.0869
     27 C           3.0909  -11.8839  -35.8227 C.3     1  UNL1       -0.0307
     28 C           0.5912   -4.8610  -30.3561 C.3     1  UNL1       -0.0307
     29 H           2.5789   -8.6722  -31.0779 H       1  UNL1        0.0674
     30 H          -0.1013   -9.7047  -35.0098 H       1  UNL1        0.0674
     31 H          -0.8359   -6.6058  -33.5124 H       1  UNL1        0.1549
     32 H           3.8645  -11.0462  -31.9492 H       1  UNL1        0.1549
     33 H          -1.7121   -5.6693  -36.8448 H       1  UNL1        0.0362
     34 H          -0.8804   -4.7084  -35.6148 H       1  UNL1        0.0362
     35 H           3.9277  -13.9364  -31.7911 H       1  UNL1        0.0362
     36 H           3.0308  -14.0700  -30.2771 H       1  UNL1        0.0362
     37 H          -2.4006   -5.4580  -33.9157 H       1  UNL1        0.0329
     38 H          -3.3321   -4.8339  -35.2814 H       1  UNL1        0.0329
     39 H           5.3066  -13.3934  -29.7964 H       1  UNL1        0.0329
     40 H           5.1492  -12.0371  -30.9129 H       1  UNL1        0.0329
     41 H           1.0290  -11.3532  -36.1435 H       1  UNL1        0.0694
     42 H           1.2630  -13.0326  -35.7696 H       1  UNL1        0.0694
     43 H           0.0420   -6.9397  -30.2437 H       1  UNL1        0.0694
     44 H          -0.7933   -6.0535  -31.4956 H       1  UNL1        0.0694
     45 H           3.3975  -10.8861  -35.5873 H       1  UNL1        0.0262
     46 H           3.2809  -12.0807  -36.8571 H       1  UNL1        0.0262
     47 H           3.6404  -12.5773  -35.2209 H       1  UNL1        0.0262
     48 H           1.5303   -5.0006  -29.8629 H       1  UNL1        0.0262
     49 H          -0.1428   -4.5472  -29.6436 H       1  UNL1        0.0262
     50 H           0.6944   -4.1135  -31.1147 H       1  UNL1        0.0262
@<TRIPOS>BOND
     1     1     4   ar
     2     1     5    1
     3     1     7   ar
     4     2     3   ar
     5     2     6    1
     6     2     8   ar
     7     3     7   ar
     8     4     8   ar
     9     5     9   am
    10     6    10   am
    11     7    23    1
    12     8    24    1
    13     9    14    2
    14     9    17    1
    15    10    13    2
    16    10    18    1
    17    11    15   ar
    18    11    19    1
    19    11    22   ar
    20    12    16   ar
    21    12    20    1
    22    12    21   ar
    23    17    19    1
    24    18    20    1
    25    23    26    1
    26    24    25    1
    27    25    27    1
    28    26    28    1
    29     3    29    1
    30     4    30    1
    31     5    31    1
    32     6    32    1
    33    17    33    1
    34    17    34    1
    35    18    35    1
    36    18    36    1
    37    19    37    1
    38    19    38    1
    39    20    39    1
    40    20    40    1
    41    25    41    1
    42    25    42    1
    43    26    43    1
    44    26    44    1
    45    27    45    1
    46    27    46    1
    47    27    47    1
    48    28    48    1
    49    28    49    1
    50    28    50    1
@<TRIPOS>SUBSTRUCTURE
     1 UNL1        1 TEMP              0 ****  ****    0 ROOT


