HTS1710-00507263-01
 OpenBabel03232612353D

 34 33  0  0  1  0  0  0  0  0999 V2000
    2.1485   -9.6404  -35.7904 C   0  0  1  0  0  0  0  0  0  0  0  0
    0.9389   -8.8152  -35.9358 N   0  0  0  0  0  0  0  0  0  0  0  0
    1.7892  -11.1432  -35.6286 C   0  0  0  0  0  0  0  0  0  0  0  0
    3.1171   -9.4137  -36.9665 C   0  0  0  0  0  0  0  0  0  0  0  0
    0.4025   -8.0627  -34.8974 C   0  0  0  0  0  0  0  0  0  0  0  0
    1.4528  -11.6570  -33.8831 S   0  0  0  0  0  0  0  0  0  0  0  0
    4.3064   -9.5299  -36.7232 O   0  5  0  0  0  0  0  0  0  0  0  0
    2.6476   -9.1070  -38.0489 O   0  0  0  0  0  0  0  0  0  0  0  0
   -0.8665   -7.2353  -35.1593 C   0  0  0  0  0  0  0  0  0  0  0  0
    0.9361   -8.0769  -33.7999 O   0  0  0  0  0  0  0  0  0  0  0  0
    3.3068  -11.6576  -32.9486 S   0  0  0  0  0  0  0  0  0  0  0  0
   -1.9612   -7.8657  -34.6805 F   0  0  0  0  0  0  0  0  0  0  0  0
   -1.0480   -7.0432  -36.4835 F   0  0  0  0  0  0  0  0  0  0  0  0
   -0.8068   -6.0184  -34.5738 F   0  0  0  0  0  0  0  0  0  0  0  0
    2.9343  -11.2804  -31.1825 C   0  0  0  0  0  0  0  0  0  0  0  0
    4.2179  -11.1357  -30.3278 C   0  0  2  0  0  0  0  0  0  0  0  0
    4.0552  -11.8920  -29.0775 N   0  0  0  0  0  0  0  0  0  0  0  0
    4.5374   -9.6715  -29.9901 C   0  0  0  0  0  0  0  0  0  0  0  0
    4.5586  -13.1746  -28.8968 C   0  0  0  0  0  0  0  0  0  0  0  0
    5.3943   -9.1239  -30.6609 O   0  5  0  0  0  0  0  0  0  0  0  0
    3.9332   -9.1606  -29.0614 O   0  0  0  0  0  0  0  0  0  0  0  0
    4.3250  -13.8647  -27.5440 C   0  0  0  0  0  0  0  0  0  0  0  0
    5.1558  -13.7273  -29.8071 O   0  0  0  0  0  0  0  0  0  0  0  0
    3.3438  -13.2434  -26.8542 F   0  0  0  0  0  0  0  0  0  0  0  0
    5.4393  -13.8479  -26.7798 F   0  0  0  0  0  0  0  0  0  0  0  0
    3.9597  -15.1568  -27.7034 F   0  0  0  0  0  0  0  0  0  0  0  0
    2.6493   -9.3343  -34.8957 H   0  0  0  0  0  0  0  0  0  0  0  0
    0.4878   -8.7950  -36.8106 H   0  0  0  0  0  0  0  0  0  0  0  0
    2.6070  -11.7256  -35.9985 H   0  0  0  0  0  0  0  0  0  0  0  0
    0.8848  -11.3046  -36.1771 H   0  0  0  0  0  0  0  0  0  0  0  0
    2.3403  -12.0737  -30.7792 H   0  0  0  0  0  0  0  0  0  0  0  0
    2.4134  -10.3463  -31.1506 H   0  0  0  0  0  0  0  0  0  0  0  0
    5.0325  -11.5202  -30.9051 H   0  0  0  0  0  0  0  0  0  0  0  0
    3.5669  -11.4703  -28.3339 H   0  0  0  0  0  0  0  0  0  0  0  0
  1  2  1  0  0  0  0
  1  3  1  0  0  0  0
  1  4  1  0  0  0  0
  1 27  1  1  0  0  0
  2  5  1  0  0  0  0
  2 28  1  0  0  0  0
  3  6  1  0  0  0  0
  3 29  1  0  0  0  0
  3 30  1  0  0  0  0
  4  7  1  0  0  0  0
  4  8  2  0  0  0  0
  5  9  1  0  0  0  0
  5 10  2  0  0  0  0
  6 11  1  0  0  0  0
  9 12  1  0  0  0  0
  9 13  1  0  0  0  0
  9 14  1  0  0  0  0
 11 15  1  0  0  0  0
 15 16  1  0  0  0  0
 15 31  1  0  0  0  0
 15 32  1  0  0  0  0
 16 17  1  0  0  0  0
 16 18  1  0  0  0  0
 16 33  1  6  0  0  0
 17 19  1  0  0  0  0
 17 34  1  0  0  0  0
 18 20  1  0  0  0  0
 18 21  2  0  0  0  0
 19 22  1  0  0  0  0
 19 23  2  0  0  0  0
 22 24  1  0  0  0  0
 22 25  1  0  0  0  0
 22 26  1  0  0  0  0
M  CHG  2   7  -1  20  -1
M  END
$$$$
