HTS1710-00085404-01
 OpenBabel03232612363D

 15 15  0  0  0  0  0  0  0  0999 V2000
    5.1254   -8.8324  -31.8098 C   0  0  0  0  0  0  0  0  0  0  0  0
    3.8901   -9.8190  -30.0289 C   0  0  0  0  0  0  0  0  0  0  0  0
    4.5647   -8.7241  -30.5472 O   0  0  0  0  0  0  0  0  0  0  0  0
    5.0311   -9.9946  -32.5550 C   0  0  0  0  0  0  0  0  0  0  0  0
    3.7677  -11.0029  -30.7344 C   0  0  0  0  0  0  0  0  0  0  0  0
    4.3364  -11.1826  -32.0667 C   0  0  0  0  0  0  0  0  0  0  0  0
    5.8383   -7.6383  -32.3378 C   0  0  0  0  0  0  0  0  0  0  0  0
    3.2985   -9.6682  -28.6726 C   0  0  0  0  0  0  0  0  0  0  0  0
    5.9278   -6.6566  -31.6196 O   0  5  0  0  0  0  0  0  0  0  0  0
    3.3498   -8.5670  -28.1528 O   0  5  0  0  0  0  0  0  0  0  0  0
    4.2407  -12.2157  -32.7049 O   0  0  0  0  0  0  0  0  0  0  0  0
    2.7955  -10.6511  -28.1528 O   0  0  0  0  0  0  0  0  0  0  0  0
    6.2958   -7.7073  -33.4665 O   0  0  0  0  0  0  0  0  0  0  0  0
    5.4675  -10.0228  -33.4898 H   0  0  0  0  0  0  0  0  0  0  0  0
    3.2553  -11.7879  -30.3027 H   0  0  0  0  0  0  0  0  0  0  0  0
  1  3  1  0  0  0  0
  1  4  2  0  0  0  0
  1  7  1  0  0  0  0
  2  3  1  0  0  0  0
  2  8  1  0  0  0  0
  2  5  2  0  0  0  0
  4  6  1  0  0  0  0
  4 14  1  0  0  0  0
  5  6  1  0  0  0  0
  5 15  1  0  0  0  0
  6 11  2  0  0  0  0
  7  9  1  0  0  0  0
  7 13  2  0  0  0  0
  8 10  1  0  0  0  0
  8 12  2  0  0  0  0
M  CHG  2   9  -1  10  -1
M  END
$$$$
