##########                                Name: HTS1710-02553580-01
##########                    Molecular_Weight:             376.346
##########                DOCK_Rotatable_Bonds:                   7
##########                       Formal_Charge:                  -2
##########                     HBond_Acceptors:                  10
##########                        HBond_Donors:                   2
##########                         Heavy_Atoms:                  26
##########                          Grid_Score:          -80.058121
##########                     Grid_vdw_energy:          -45.809753
##########                      Grid_es_energy:          -34.248363
##########           Internal_energy_repulsive:            7.965192

@<TRIPOS>MOLECULE
HTS1710-02553580-01
 38 39 1 0 0
SMALL
USER_CHARGES


@<TRIPOS>ATOM
      1 S           2.6948  -11.4310  -35.9953 S.O2    1  UNL1        0.0723
      2 N           4.2652  -10.7919  -35.8378 N.pl3   1  UNL1       -0.2162
      3 C           5.0847   -9.3350  -32.5218 C.ar    1  UNL1       -0.0003
      4 C           6.0413   -7.9388  -34.3023 C.ar    1  UNL1       -0.0003
      5 C           6.8284   -6.7236  -34.7407 C.2     1  UNL1        0.0717
      6 C           4.8332   -9.6073  -31.0576 C.2     1  UNL1        0.0717
      7 C           1.5764  -10.0404  -35.7369 C.ar    1  UNL1        0.1086
      8 C           4.7793   -9.9566  -34.8667 C.ar    1  UNL1        0.0493
      9 C           5.8118   -8.1979  -32.9337 C.ar    1  UNL1       -0.0439
     10 O           2.6418  -11.7430  -37.4265 O.2     1  UNL1       -0.1500
     11 O           2.5483  -12.4501  -34.9518 O.2     1  UNL1       -0.1500
     12 C          -2.4285   -6.8716  -34.7527 C.2     1  UNL1        0.2141
     13 C           4.5872  -10.2181  -33.4989 C.ar    1  UNL1       -0.0304
     14 C           5.5154   -8.8285  -35.2618 C.ar    1  UNL1       -0.0304
     15 N          -1.1367   -6.8429  -35.2722 N.am    1  UNL1       -0.2857
     16 O           7.2400   -5.9736  -33.8715 O.co2   1  UNL1       -0.5446
     17 O           4.1792  -10.5961  -30.7713 O.co2   1  UNL1       -0.5446
     18 O          -2.9393   -7.9079  -34.3659 O.2     1  UNL1       -0.2758
     19 C           1.5555   -8.9648  -36.6386 C.ar    1  UNL1       -0.0333
     20 C           0.6997  -10.0443  -34.6398 C.ar    1  UNL1       -0.0333
     21 C          -0.2635   -7.9237  -35.3811 C.ar    1  UNL1        0.0335
     22 O           5.3037   -8.8213  -30.2517 O.co2   1  UNL1       -0.5446
     23 O           7.0039   -6.5679  -35.9375 O.co2   1  UNL1       -0.5446
     24 C          -0.2113   -8.9925  -34.4574 C.ar    1  UNL1       -0.0386
     25 C           0.6464   -7.9109  -36.4546 C.ar    1  UNL1       -0.0386
     26 C          -3.2054   -5.5567  -34.7336 C.3     1  UNL1        0.0125
     27 H           4.8994  -11.0571  -36.5426 H       1  UNL1        0.1737
     28 H           6.1811   -7.5460  -32.2240 H       1  UNL1        0.0630
     29 H           4.0760  -11.0662  -33.2080 H       1  UNL1        0.0643
     30 H           5.6733   -8.6482  -36.2656 H       1  UNL1        0.0643
     31 H          -0.8077   -5.9728  -35.5945 H       1  UNL1        0.1548
     32 H           2.2088   -8.9487  -37.4374 H       1  UNL1        0.0638
     33 H           0.7255  -10.8243  -33.9645 H       1  UNL1        0.0638
     34 H          -0.8468   -8.9995  -33.6443 H       1  UNL1        0.0637
     35 H           0.6453   -7.1175  -37.1144 H       1  UNL1        0.0637
     36 H          -2.5851   -4.7704  -35.1104 H       1  UNL1        0.0323
     37 H          -3.4982   -5.3299  -33.7298 H       1  UNL1        0.0323
     38 H          -4.0771   -5.6484  -35.3474 H       1  UNL1        0.0323
@<TRIPOS>BOND
     1     1     2    1
     2     1     7    1
     3     1    10    2
     4     1    11    2
     5     2     8    1
     6     3     6    1
     7     3     9   ar
     8     3    13   ar
     9     4     5    1
    10     4     9   ar
    11     4    14   ar
    12     5    16   ar
    13     5    23   ar
    14     6    17   ar
    15     6    22   ar
    16     7    19   ar
    17     7    20   ar
    18     8    13   ar
    19     8    14   ar
    20    12    15   am
    21    12    18    2
    22    12    26    1
    23    15    21    1
    24    19    25   ar
    25    20    24   ar
    26    21    24   ar
    27    21    25   ar
    28     2    27    1
    29     9    28    1
    30    13    29    1
    31    14    30    1
    32    15    31    1
    33    19    32    1
    34    20    33    1
    35    24    34    1
    36    25    35    1
    37    26    36    1
    38    26    37    1
    39    26    38    1
@<TRIPOS>SUBSTRUCTURE
     1 UNL1        1 TEMP              0 ****  ****    0 ROOT


