HTS1710-01164314-01
 OpenBabel03232612353D

 42 44  0  0  1  0  0  0  0  0999 V2000
    4.4091   -7.2641  -31.4767 C   0  0  0  0  0  0  0  0  0  0  0  0
    4.9949   -8.1806  -32.3344 C   0  0  0  0  0  0  0  0  0  0  0  0
    3.7796   -9.9710  -31.0506 C   0  0  0  0  0  0  0  0  0  0  0  0
    3.2762   -8.9656  -30.2768 C   0  0  0  0  0  0  0  0  0  0  0  0
    3.4897   -7.6353  -30.5239 O   0  0  0  0  0  0  0  0  0  0  0  0
    4.6005   -9.6324  -32.3002 C   0  0  1  0  0  0  0  0  0  0  0  0
    4.7520   -5.8378  -31.5562 C   0  0  0  0  0  0  0  0  0  0  0  0
    5.9272   -7.8500  -33.2992 O   0  0  0  0  0  0  0  0  0  0  0  0
    5.7363   -5.5350  -32.5919 C   0  0  0  0  0  0  0  0  0  0  0  0
    3.5450  -11.4477  -30.7730 C   0  0  0  0  0  0  0  0  0  0  0  0
    6.2696   -6.5189  -33.3945 C   0  0  0  0  0  0  0  0  0  0  0  0
    3.8368  -10.0051  -33.5729 C   0  0  0  0  0  0  0  0  0  0  0  0
    2.5045   -9.2273  -29.1684 N   0  0  0  0  0  0  0  0  0  0  0  0
    4.2678   -4.9856  -30.8313 O   0  0  0  0  0  0  0  0  0  0  0  0
    2.4621  -12.0065  -30.8373 O   0  0  0  0  0  0  0  0  0  0  0  0
    4.7008  -12.0996  -30.4303 O   0  0  0  0  0  0  0  0  0  0  0  0
    7.2756   -6.1585  -34.4563 C   0  0  0  0  0  0  0  0  0  0  0  0
    6.6407   -5.5798  -35.5936 O   0  0  0  0  0  0  0  0  0  0  0  0
    4.4686  -10.7425  -34.5931 C   0  0  0  0  0  0  0  0  0  0  0  0
    2.4907   -9.6204  -33.7344 C   0  0  0  0  0  0  0  0  0  0  0  0
    4.7022  -13.5133  -30.1431 C   0  0  0  0  0  0  0  0  0  0  0  0
    5.0831  -13.7290  -28.6618 C   0  0  0  0  0  0  0  0  0  0  0  0
    1.7864   -9.9762  -34.8952 C   0  0  0  0  0  0  0  0  0  0  0  0
    3.7621  -11.0985  -35.7537 C   0  0  0  0  0  0  0  0  0  0  0  0
    2.4207  -10.7162  -35.9042 C   0  0  0  0  0  0  0  0  0  0  0  0
    5.4977  -10.2136  -32.2546 H   0  0  0  0  0  0  0  0  0  0  0  0
    6.0402   -4.5579  -32.7258 H   0  0  0  0  0  0  0  0  0  0  0  0
    1.9334   -8.5212  -28.7883 H   0  0  0  0  0  0  0  0  0  0  0  0
    2.5233  -10.1208  -28.7554 H   0  0  0  0  0  0  0  0  0  0  0  0
    7.7952   -7.0435  -34.7594 H   0  0  0  0  0  0  0  0  0  0  0  0
    7.9571   -5.4418  -34.0476 H   0  0  0  0  0  0  0  0  0  0  0  0
    6.5345   -4.6257  -35.4541 H   0  0  0  0  0  0  0  0  0  0  0  0
    5.4561  -11.0227  -34.4873 H   0  0  0  0  0  0  0  0  0  0  0  0
    2.0205   -9.0744  -32.9957 H   0  0  0  0  0  0  0  0  0  0  0  0
    5.4147  -14.0056  -30.7714 H   0  0  0  0  0  0  0  0  0  0  0  0
    3.7293  -13.9190  -30.3274 H   0  0  0  0  0  0  0  0  0  0  0  0
    6.0561  -13.3224  -28.4809 H   0  0  0  0  0  0  0  0  0  0  0  0
    5.0881  -14.7765  -28.4438 H   0  0  0  0  0  0  0  0  0  0  0  0
    4.3689  -13.2376  -28.0346 H   0  0  0  0  0  0  0  0  0  0  0  0
    0.8003   -9.6931  -35.0066 H   0  0  0  0  0  0  0  0  0  0  0  0
    4.2300  -11.6416  -36.4961 H   0  0  0  0  0  0  0  0  0  0  0  0
    1.9011  -10.9789  -36.7563 H   0  0  0  0  0  0  0  0  0  0  0  0
  1  2  2  0  0  0  0
  1  5  1  0  0  0  0
  1  7  1  0  0  0  0
  2  6  1  0  0  0  0
  2  8  1  0  0  0  0
  3  4  2  0  0  0  0
  3 10  1  0  0  0  0
  3  6  1  0  0  0  0
  4  5  1  0  0  0  0
  4 13  1  0  0  0  0
  6 12  1  0  0  0  0
  6 26  1  1  0  0  0
  7  9  1  0  0  0  0
  7 14  2  0  0  0  0
  8 11  1  0  0  0  0
  9 11  2  0  0  0  0
  9 27  1  0  0  0  0
 10 15  2  0  0  0  0
 10 16  1  0  0  0  0
 11 17  1  0  0  0  0
 12 19  2  0  0  0  0
 12 20  1  0  0  0  0
 13 28  1  0  0  0  0
 13 29  1  0  0  0  0
 16 21  1  0  0  0  0
 17 18  1  0  0  0  0
 17 30  1  0  0  0  0
 17 31  1  0  0  0  0
 18 32  1  0  0  0  0
 19 24  1  0  0  0  0
 19 33  1  0  0  0  0
 20 23  2  0  0  0  0
 20 34  1  0  0  0  0
 21 22  1  0  0  0  0
 21 35  1  0  0  0  0
 21 36  1  0  0  0  0
 22 37  1  0  0  0  0
 22 38  1  0  0  0  0
 22 39  1  0  0  0  0
 23 25  1  0  0  0  0
 23 40  1  0  0  0  0
 24 25  2  0  0  0  0
 24 41  1  0  0  0  0
 25 42  1  0  0  0  0
M  END
$$$$
