##########                                Name: HTS1710-05326291-01
##########                    Molecular_Weight:             331.733
##########                DOCK_Rotatable_Bonds:                   4
##########                       Formal_Charge:                  -2
##########                     HBond_Acceptors:                   9
##########                        HBond_Donors:                   0
##########                         Heavy_Atoms:                  21
##########                          Grid_Score:          -74.703453
##########                     Grid_vdw_energy:          -36.117298
##########                      Grid_es_energy:          -38.586155
##########           Internal_energy_repulsive:            6.019780

@<TRIPOS>MOLECULE
HTS1710-05326291-01
 31 32 1 0 0
SMALL
USER_CHARGES


@<TRIPOS>ATOM
      1 C           2.2351  -13.9831  -28.6730 C.3     1  UNL1       -0.0382
      2 C           2.5587  -12.9275  -29.7278 C.ar    1  UNL1       -0.0296
      3 C           3.1780  -11.7283  -29.3348 C.ar    1  UNL1       -0.0485
      4 C           3.4983  -10.7336  -30.2787 C.ar    1  UNL1       -0.0005
      5 C           3.1860  -10.9563  -31.6341 C.ar    1  UNL1       -0.0250
      6 C           2.5612  -12.1478  -32.0484 C.ar    1  UNL1        0.1246
      7 C           2.2477  -13.1409  -31.0887 C.ar    1  UNL1        0.0702
      8 CL          1.4892  -14.6605  -31.5658 Cl      1  UNL1       -0.0812
      9 S           2.2039  -12.3735  -33.8117 S.O2    1  UNL1        0.0628
     10 O           0.9142  -13.0528  -33.9722 O.2     1  UNL1       -0.1528
     11 O           3.4167  -12.8818  -34.4604 O.2     1  UNL1       -0.1528
     12 N           2.0122  -10.7697  -34.3427 N.3     1  UNL1       -0.1679
     13 C           0.6771  -10.1298  -34.2040 C.3     1  UNL1        0.0230
     14 C           1.1596   -9.2101  -35.3679 C.3     1  UNL1       -0.0160
     15 C           1.9710  -10.4926  -35.8004 C.3     1  UNL1        0.0722
     16 C           3.1534   -9.6392  -36.3838 C.2     1  UNL1        0.0606
     17 O           3.0512   -9.1286  -37.4867 O.co2   1  UNL1       -0.5481
     18 O           4.1868   -9.4992  -35.7513 O.co2   1  UNL1       -0.5481
     19 C           4.1683   -9.4487  -29.8446 C.2     1  UNL1        0.0717
     20 O           5.2018   -9.1337  -30.4097 O.co2   1  UNL1       -0.5446
     21 O           3.6329   -8.8071  -28.9574 O.co2   1  UNL1       -0.5446
     22 H           2.5469  -13.6334  -27.7111 H       1  UNL1        0.0278
     23 H           2.7509  -14.8910  -28.9069 H       1  UNL1        0.0278
     24 H           1.1807  -14.1648  -28.6619 H       1  UNL1        0.0278
     25 H           3.4013  -11.5744  -28.3391 H       1  UNL1        0.0627
     26 H           3.4189  -10.2347  -32.3342 H       1  UNL1        0.0644
     27 H           0.5029   -9.6338  -33.2720 H       1  UNL1        0.0445
     28 H          -0.2415  -10.6777  -34.2317 H       1  UNL1        0.0445
     29 H           1.7504   -8.3673  -35.0755 H       1  UNL1        0.0297
     30 H           0.4997   -8.6743  -36.0178 H       1  UNL1        0.0297
     31 H           1.7797  -11.3322  -36.4355 H       1  UNL1        0.0541
@<TRIPOS>BOND
     1     1     2    1
     2     2     3   ar
     3     3     4   ar
     4     4     5   ar
     5     5     6   ar
     6     6     7   ar
     7     2     7   ar
     8     7     8    1
     9     6     9    1
    10     9    10    2
    11     9    11    2
    12     9    12    1
    13    12    13    1
    14    13    14    1
    15    14    15    1
    16    12    15    1
    17    15    16    1
    18    16    17   ar
    19    16    18   ar
    20     4    19    1
    21    19    20   ar
    22    19    21   ar
    23     1    22    1
    24     1    23    1
    25     1    24    1
    26     3    25    1
    27     5    26    1
    28    13    27    1
    29    13    28    1
    30    14    29    1
    31    14    30    1
    32    15    31    1
@<TRIPOS>SUBSTRUCTURE
     1 UNL1        1 TEMP              0 ****  ****    0 ROOT


