HTS1710-01463254-01
 OpenBabel03232612353D

 43 42  0  0  0  0  0  0  0  0999 V2000
    3.9140  -12.4937  -30.8044 P   0  0  1  0  0  0  0  0  0  0  0  0
    4.0359   -9.3917  -30.8527 P   0  0  2  0  0  0  0  0  0  0  0  0
    2.7007  -12.6904  -27.9088 P   0  0  2  0  0  0  0  0  0  0  0  0
    3.1020  -10.9118  -31.3464 C   0  0  0  0  0  0  0  0  0  0  0  0
    2.6903  -13.3244  -29.6627 C   0  0  0  0  0  0  0  0  0  0  0  0
    4.1487  -13.3341  -32.0105 O   0  0  0  0  0  1  0  0  0  0  0  0
    5.4346   -9.4157  -31.3571 O   0  0  0  0  0  1  0  0  0  0  0  0
    2.2516  -11.2728  -27.8959 O   0  0  0  0  0  1  0  0  0  0  0  0
    5.1557  -12.2169  -30.0330 O   0  0  0  0  0  0  0  0  0  0  0  0
    3.9401   -9.2437  -29.3749 O   0  0  0  0  0  0  0  0  0  0  0  0
    4.0740  -12.8396  -27.3571 O   0  0  0  0  0  0  0  0  0  0  0  0
    3.0862   -8.3337  -31.6344 O   0  0  0  0  0  0  0  0  0  0  0  0
    1.6486  -13.7303  -27.2428 O   0  0  0  0  0  0  0  0  0  0  0  0
    1.8402   -7.8452  -31.0991 C   0  0  0  0  0  0  0  0  0  0  0  0
    1.8286  -15.1630  -27.2342 C   0  0  0  0  0  0  0  0  0  0  0  0
    0.6337   -8.3287  -31.9423 C   0  0  0  0  0  0  0  0  0  0  0  0
    0.6656  -15.8885  -26.5040 C   0  0  0  0  0  0  0  0  0  0  0  0
    0.6585   -7.7036  -33.3572 C   0  0  0  0  0  0  0  0  0  0  0  0
    0.6059  -15.5868  -24.9833 C   0  0  0  0  0  0  0  0  0  0  0  0
   -0.4189   -8.3042  -34.2831 C   0  0  0  0  0  0  0  0  0  0  0  0
   -0.4632  -16.4375  -24.2658 C   0  0  0  0  0  0  0  0  0  0  0  0
    3.0155  -10.9242  -32.4127 H   0  0  0  0  0  0  0  0  0  0  0  0
    2.1495  -10.8661  -30.8611 H   0  0  0  0  0  0  0  0  0  0  0  0
    1.7091  -13.1782  -30.0635 H   0  0  0  0  0  0  0  0  0  0  0  0
    2.9771  -14.3541  -29.6120 H   0  0  0  0  0  0  0  0  0  0  0  0
    1.8575   -6.7754  -31.0978 H   0  0  0  0  0  0  0  0  0  0  0  0
    1.7294   -8.2247  -30.1048 H   0  0  0  0  0  0  0  0  0  0  0  0
    2.7471  -15.3932  -26.7359 H   0  0  0  0  0  0  0  0  0  0  0  0
    1.8453  -15.5013  -28.2492 H   0  0  0  0  0  0  0  0  0  0  0  0
   -0.2731   -8.0446  -31.4503 H   0  0  0  0  0  0  0  0  0  0  0  0
    0.6906   -9.3928  -32.0392 H   0  0  0  0  0  0  0  0  0  0  0  0
    0.7886  -16.9432  -26.6355 H   0  0  0  0  0  0  0  0  0  0  0  0
   -0.2472  -15.5299  -26.9321 H   0  0  0  0  0  0  0  0  0  0  0  0
    1.6208   -7.8760  -33.7923 H   0  0  0  0  0  0  0  0  0  0  0  0
    0.4563   -6.6578  -33.2559 H   0  0  0  0  0  0  0  0  0  0  0  0
    0.3731  -14.5516  -24.8454 H   0  0  0  0  0  0  0  0  0  0  0  0
    1.5587  -15.8292  -24.5610 H   0  0  0  0  0  0  0  0  0  0  0  0
   -0.2419   -9.3525  -34.4032 H   0  0  0  0  0  0  0  0  0  0  0  0
   -0.3767   -7.8236  -35.2381 H   0  0  0  0  0  0  0  0  0  0  0  0
   -1.3858   -8.1530  -33.8502 H   0  0  0  0  0  0  0  0  0  0  0  0
   -1.4280  -16.2135  -24.6707 H   0  0  0  0  0  0  0  0  0  0  0  0
   -0.4546  -16.2131  -23.2196 H   0  0  0  0  0  0  0  0  0  0  0  0
   -0.2484  -17.4759  -24.4096 H   0  0  0  0  0  0  0  0  0  0  0  0
  1  4  1  0  0  0  0
  1  5  1  0  0  0  0
  1  6  1  6  0  0  0
  1  9  2  0  0  0  0
  2  4  1  0  0  0  0
  2  7  1  6  0  0  0
  2 10  2  0  0  0  0
  2 12  1  0  0  0  0
  3  5  1  0  0  0  0
  3  8  1  1  0  0  0
  3 11  2  0  0  0  0
  3 13  1  0  0  0  0
  4 22  1  0  0  0  0
  4 23  1  0  0  0  0
  5 24  1  0  0  0  0
  5 25  1  0  0  0  0
 12 14  1  0  0  0  0
 13 15  1  0  0  0  0
 14 16  1  0  0  0  0
 14 26  1  0  0  0  0
 14 27  1  0  0  0  0
 15 17  1  0  0  0  0
 15 28  1  0  0  0  0
 15 29  1  0  0  0  0
 16 18  1  0  0  0  0
 16 30  1  0  0  0  0
 16 31  1  0  0  0  0
 17 19  1  0  0  0  0
 17 32  1  0  0  0  0
 17 33  1  0  0  0  0
 18 20  1  0  0  0  0
 18 34  1  0  0  0  0
 18 35  1  0  0  0  0
 19 21  1  0  0  0  0
 19 36  1  0  0  0  0
 19 37  1  0  0  0  0
 20 38  1  0  0  0  0
 20 39  1  0  0  0  0
 20 40  1  0  0  0  0
 21 41  1  0  0  0  0
 21 42  1  0  0  0  0
 21 43  1  0  0  0  0
M  END
$$$$
