##########                                Name: HTS1710-01463254-01
##########                    Molecular_Weight:             363.201
##########                DOCK_Rotatable_Bonds:                  12
##########                       Formal_Charge:                  -2
##########                     HBond_Acceptors:                   8
##########                        HBond_Donors:                   0
##########                         Heavy_Atoms:                  21
##########                          Grid_Score:          -79.153496
##########                     Grid_vdw_energy:          -37.473526
##########                      Grid_es_energy:          -41.679970
##########           Internal_energy_repulsive:            7.732932

@<TRIPOS>MOLECULE
HTS1710-01463254-01
 43 42 1 0 0
SMALL
USER_CHARGES


@<TRIPOS>ATOM
      1 P           3.9140  -12.4937  -30.8044 P.3     1  UNL1        0.2528
      2 P           4.0359   -9.3917  -30.8527 P.3     1  UNL1        0.1457
      3 P           2.7007  -12.6904  -27.9088 P.3     1  UNL1        0.1457
      4 C           3.1020  -10.9118  -31.3464 C.3     1  UNL1        0.0914
      5 C           2.6903  -13.3244  -29.6627 C.3     1  UNL1        0.0914
      6 O           4.1487  -13.3341  -32.0105 O.3     1  UNL1       -0.1682
      7 O           5.4346   -9.4157  -31.3571 O.co2   1  UNL1       -0.7809
      8 O           2.2516  -11.2728  -27.8959 O.co2   1  UNL1       -0.7809
      9 O           5.1557  -12.2169  -30.0330 O.2     1  UNL1       -0.2872
     10 O           3.9401   -9.2437  -29.3749 O.2     1  UNL1       -0.3063
     11 O           4.0740  -12.8396  -27.3571 O.2     1  UNL1       -0.3063
     12 O           3.0862   -8.3337  -31.6344 O.3     1  UNL1       -0.3368
     13 O           1.6486  -13.7303  -27.2428 O.3     1  UNL1       -0.3368
     14 C           1.8402   -7.8452  -31.0991 C.3     1  UNL1        0.0539
     15 C           1.8286  -15.1630  -27.2342 C.3     1  UNL1        0.0539
     16 C           0.6337   -8.3287  -31.9423 C.3     1  UNL1       -0.0293
     17 C           0.6656  -15.8885  -26.5040 C.3     1  UNL1       -0.0293
     18 C           0.6585   -7.7036  -33.3572 C.3     1  UNL1       -0.0538
     19 C           0.6059  -15.5868  -24.9833 C.3     1  UNL1       -0.0538
     20 C          -0.4189   -8.3042  -34.2831 C.3     1  UNL1       -0.0652
     21 C          -0.4632  -16.4375  -24.2658 C.3     1  UNL1       -0.0652
     22 H           3.0155  -10.9242  -32.4127 H       1  UNL1        0.0454
     23 H           2.1495  -10.8661  -30.8611 H       1  UNL1        0.0454
     24 H           1.7091  -13.1782  -30.0635 H       1  UNL1        0.0454
     25 H           2.9771  -14.3541  -29.6120 H       1  UNL1        0.0454
     26 H           1.8575   -6.7754  -31.0978 H       1  UNL1        0.0564
     27 H           1.7294   -8.2247  -30.1048 H       1  UNL1        0.0564
     28 H           2.7471  -15.3932  -26.7359 H       1  UNL1        0.0564
     29 H           1.8453  -15.5013  -28.2492 H       1  UNL1        0.0564
     30 H          -0.2731   -8.0446  -31.4503 H       1  UNL1        0.0287
     31 H           0.6906   -9.3928  -32.0392 H       1  UNL1        0.0287
     32 H           0.7886  -16.9432  -26.6355 H       1  UNL1        0.0287
     33 H          -0.2472  -15.5299  -26.9321 H       1  UNL1        0.0287
     34 H           1.6208   -7.8760  -33.7923 H       1  UNL1        0.0263
     35 H           0.4563   -6.6578  -33.2559 H       1  UNL1        0.0263
     36 H           0.3731  -14.5516  -24.8454 H       1  UNL1        0.0263
     37 H           1.5587  -15.8292  -24.5610 H       1  UNL1        0.0263
     38 H          -0.2419   -9.3525  -34.4032 H       1  UNL1        0.0230
     39 H          -0.3767   -7.8236  -35.2381 H       1  UNL1        0.0230
     40 H          -1.3858   -8.1530  -33.8502 H       1  UNL1        0.0230
     41 H          -1.4280  -16.2135  -24.6707 H       1  UNL1        0.0230
     42 H          -0.4546  -16.2131  -23.2196 H       1  UNL1        0.0230
     43 H          -0.2484  -17.4759  -24.4096 H       1  UNL1        0.0230
@<TRIPOS>BOND
     1     2     4    1
     2     3     5    1
     3     1     4    1
     4     1     5    1
     5     1     6    1
     6     2     7    1
     7     3     8    1
     8     1     9    2
     9     2    10    2
    10     3    11    2
    11     2    12    1
    12     3    13    1
    13    12    14    1
    14    13    15    1
    15    14    16    1
    16    15    17    1
    17    16    18    1
    18    17    19    1
    19    18    20    1
    20    19    21    1
    21     4    22    1
    22     4    23    1
    23     5    24    1
    24     5    25    1
    25    14    26    1
    26    14    27    1
    27    15    28    1
    28    15    29    1
    29    16    30    1
    30    16    31    1
    31    17    32    1
    32    17    33    1
    33    18    34    1
    34    18    35    1
    35    19    36    1
    36    19    37    1
    37    20    38    1
    38    20    39    1
    39    20    40    1
    40    21    41    1
    41    21    42    1
    42    21    43    1
@<TRIPOS>SUBSTRUCTURE
     1 UNL1        1 TEMP              0 ****  ****    0 ROOT


