##########                                Name: HTS1710-01384784-01
##########                    Molecular_Weight:             350.376
##########                DOCK_Rotatable_Bonds:                   7
##########                       Formal_Charge:                  -2
##########                     HBond_Acceptors:                   9
##########                        HBond_Donors:                   0
##########                         Heavy_Atoms:                  23
##########                          Grid_Score:          -74.689728
##########                     Grid_vdw_energy:          -41.437794
##########                      Grid_es_energy:          -33.251934
##########           Internal_energy_repulsive:           12.186219

@<TRIPOS>MOLECULE
HTS1710-01384784-01
 33 34 1 0 0
SMALL
USER_CHARGES


@<TRIPOS>ATOM
      1 N           3.1675  -12.4855  -30.8057 N.am    1  UNL1       -0.2466
      2 C           2.1384  -13.1207  -31.4901 C.2     1  UNL1        0.1211
      3 C           3.7199  -11.4038  -31.4944 C.2     1  UNL1        0.2589
      4 C           3.0237  -11.2138  -32.7879 C.2     1  UNL1        0.0772
      5 S           1.7463  -12.3775  -33.0664 S.3     1  UNL1       -0.0610
      6 C           3.5968  -12.9142  -29.4467 C.3     1  UNL1        0.0718
      7 C           3.3901  -10.2107  -33.6626 C.2     1  UNL1       -0.0343
      8 C           3.7313  -11.6994  -28.4973 C.2     1  UNL1        0.0626
      9 S           1.3535  -14.5112  -30.9786 S.2     1  UNL1       -0.0272
     10 C           4.8410  -13.8450  -29.5213 C.3     1  UNL1       -0.0235
     11 O           4.6561  -10.7292  -31.0960 O.2     1  UNL1       -0.2690
     12 C           6.4181  -14.3725  -27.5893 C.2     1  UNL1        0.0418
     13 O           4.8024  -11.1165  -28.4443 O.co2   1  UNL1       -0.5479
     14 N           3.2887   -9.4544  -37.3981 N.ar    1  UNL1       -0.2627
     15 O           6.8219  -13.2244  -27.6524 O.co2   1  UNL1       -0.5498
     16 C           5.0591  -14.6758  -28.2322 C.3     1  UNL1       -0.0112
     17 C           2.9376   -9.7480  -35.0092 C.ar    1  UNL1       -0.0057
     18 O           2.7447  -11.4075  -27.8447 O.co2   1  UNL1       -0.5479
     19 O           7.0138  -15.3049  -27.0774 O.co2   1  UNL1       -0.5498
     20 C           3.7098   -9.8753  -36.1870 C.ar    1  UNL1        0.0347
     21 C           2.0724   -8.8850  -37.4927 C.ar    1  UNL1        0.0276
     22 C           1.6669   -9.1504  -35.1280 C.ar    1  UNL1       -0.0517
     23 C           1.2284   -8.7122  -36.3850 C.ar    1  UNL1       -0.0430
     24 H           2.8339  -13.5195  -29.0035 H       1  UNL1        0.0566
     25 H           4.1680   -9.6400  -33.2962 H       1  UNL1        0.0637
     26 H           5.7084  -13.2408  -29.6874 H       1  UNL1        0.0290
     27 H           4.6738  -14.5362  -30.3208 H       1  UNL1        0.0290
     28 H           4.2839  -14.4418  -27.5328 H       1  UNL1        0.0325
     29 H           5.0365  -15.7129  -28.4942 H       1  UNL1        0.0325
     30 H           4.6422  -10.3120  -36.1170 H       1  UNL1        0.0835
     31 H           1.7474   -8.5625  -38.4176 H       1  UNL1        0.0829
     32 H           1.0651   -9.0365  -34.2975 H       1  UNL1        0.0624
     33 H           0.3020   -8.2706  -36.4938 H       1  UNL1        0.0633
@<TRIPOS>BOND
     1     1     2    1
     2     1     3   am
     3     3     4    1
     4     2     5    1
     5     1     6    1
     6     4     7    2
     7     6     8    1
     8     2     9    2
     9     6    10    1
    10     3    11    2
    11    12    16    1
    12     8    13   ar
    13    14    20   ar
    14    12    15   ar
    15    10    16    1
    16     7    17    1
    17     8    18   ar
    18    12    19   ar
    19    17    20   ar
    20    21    23   ar
    21    17    22   ar
    22    22    23   ar
    23     4     5    1
    24    14    21   ar
    25     6    24    1
    26     7    25    1
    27    10    26    1
    28    10    27    1
    29    16    28    1
    30    16    29    1
    31    20    30    1
    32    21    31    1
    33    22    32    1
    34    23    33    1
@<TRIPOS>SUBSTRUCTURE
     1 UNL1        1 TEMP              0 ****  ****    0 ROOT


