##########                                Name: HTS1710-02150865-01
##########                    Molecular_Weight:             392.523
##########                DOCK_Rotatable_Bonds:                  10
##########                       Formal_Charge:                  -2
##########                     HBond_Acceptors:                  13
##########                        HBond_Donors:                   0
##########                         Heavy_Atoms:                  21
##########                          Grid_Score:          -81.385468
##########                     Grid_vdw_energy:          -42.770733
##########                      Grid_es_energy:          -38.614731
##########           Internal_energy_repulsive:           10.194736

@<TRIPOS>MOLECULE
HTS1710-02150865-01
 33 33 1 0 0
SMALL
USER_CHARGES


@<TRIPOS>ATOM
      1 S           3.2643  -10.1588  -36.2569 S.3     1  UNL1       -0.0805
      2 S           3.6158   -9.2856  -29.4366 S.3     1  UNL1       -0.0805
      3 S           1.6528  -14.1623  -30.9091 S.2     1  UNL1       -0.0331
      4 C           1.7141  -13.5683  -32.5444 C.ar    1  UNL1        0.1593
      5 C           3.3637  -13.8372  -30.9042 C.ar    1  UNL1        0.1593
      6 N           3.8709  -13.3332  -32.0150 N.ar    1  UNL1       -0.1339
      7 N           2.8998  -13.1915  -32.9899 N.ar    1  UNL1       -0.1339
      8 O           4.7701   -8.6784  -30.0778 O.co2   1  UNL1       -0.7245
      9 O           3.3967   -9.1462  -37.2909 O.co2   1  UNL1       -0.7245
     10 O           2.4848   -9.5145  -30.3195 O.2     1  UNL1       -0.1853
     11 O           3.4256  -11.5258  -36.7231 O.2     1  UNL1       -0.1853
     12 O           3.2647   -8.7147  -28.1481 O.2     1  UNL1       -0.1853
     13 O           3.9552   -9.8516  -35.0157 O.2     1  UNL1       -0.1853
     14 S           4.4699  -14.0981  -29.5581 S.3     1  UNL1       -0.0969
     15 S           0.3796  -13.5421  -33.6918 S.3     1  UNL1       -0.0969
     16 C           4.1768  -10.9759  -29.0501 C.3     1  UNL1        0.0554
     17 C           1.5084  -10.0605  -35.8097 C.3     1  UNL1        0.0554
     18 C           1.1390  -10.9845  -34.6239 C.3     1  UNL1       -0.0251
     19 C           3.0584  -11.9100  -28.5193 C.3     1  UNL1       -0.0251
     20 C           3.5669  -13.3243  -28.1485 C.3     1  UNL1        0.0017
     21 C           1.0204  -12.4670  -35.0518 C.3     1  UNL1        0.0017
     22 H           4.9432  -10.9134  -28.3061 H       1  UNL1        0.0490
     23 H           4.5243  -11.4024  -29.9677 H       1  UNL1        0.0490
     24 H           0.9227  -10.3439  -36.6593 H       1  UNL1        0.0490
     25 H           1.3085   -9.0536  -35.5081 H       1  UNL1        0.0490
     26 H           0.2009  -10.6668  -34.2189 H       1  UNL1        0.0288
     27 H           1.9212  -10.9142  -33.8971 H       1  UNL1        0.0288
     28 H           2.3085  -12.0063  -29.2764 H       1  UNL1        0.0288
     29 H           2.6732  -11.4670  -27.6247 H       1  UNL1        0.0288
     30 H           2.7305  -13.9394  -27.8898 H       1  UNL1        0.0381
     31 H           4.2403  -13.2366  -27.3216 H       1  UNL1        0.0381
     32 H           0.3525  -12.5320  -35.8852 H       1  UNL1        0.0381
     33 H           2.0002  -12.8127  -35.3075 H       1  UNL1        0.0381
@<TRIPOS>BOND
     1     2    16    1
     2     3     4   ar
     3     4    15    1
     4     3     5   ar
     5     6     7   ar
     6     4     7   ar
     7     2     8    1
     8     1     9    1
     9     2    10    2
    10     1    11    2
    11     2    12    2
    12     1    13    2
    13     5    14    1
    14    15    21    1
    15    16    19    1
    16     1    17    1
    17    17    18    1
    18    19    20    1
    19    14    20    1
    20    18    21    1
    21     5     6   ar
    22    16    22    1
    23    16    23    1
    24    17    24    1
    25    17    25    1
    26    18    26    1
    27    18    27    1
    28    19    28    1
    29    19    29    1
    30    20    30    1
    31    20    31    1
    32    21    32    1
    33    21    33    1
@<TRIPOS>SUBSTRUCTURE
     1 UNL1        1 TEMP              0 ****  ****    0 ROOT


