HTS1710-01574530-01
 OpenBabel03232612353D

 38 39  0  0  0  0  0  0  0  0999 V2000
    3.2233   -9.5526  -37.4670 C   0  0  0  0  0  0  0  0  0  0  0  0
    3.4952  -10.4454  -36.3729 O   0  0  0  0  0  0  0  0  0  0  0  0
    3.9758  -10.0159  -35.1487 C   0  0  0  0  0  0  0  0  0  0  0  0
    5.1824   -9.2937  -35.0466 C   0  0  0  0  0  0  0  0  0  0  0  0
    5.6371   -8.8447  -33.7995 C   0  0  0  0  0  0  0  0  0  0  0  0
    4.8991   -9.1048  -32.6274 C   0  0  0  0  0  0  0  0  0  0  0  0
    3.6915   -9.8259  -32.7321 C   0  0  0  0  0  0  0  0  0  0  0  0
    3.2256  -10.2812  -33.9798 C   0  0  0  0  0  0  0  0  0  0  0  0
    1.6253  -11.1292  -34.0669 S   0  0  0  0  0  0  0  0  0  0  0  0
    1.1090  -11.1693  -35.4390 O   0  0  0  0  0  0  0  0  0  0  0  0
    0.8230  -10.6560  -32.9344 O   0  0  0  0  0  0  0  0  0  0  0  0
    1.9456  -12.7438  -33.6336 N   0  0  0  0  0  0  0  0  0  0  0  0
    2.4706  -13.1806  -32.4370 C   0  0  0  0  0  0  0  0  0  0  0  0
    1.6251  -13.3212  -31.3230 C   0  0  0  0  0  0  0  0  0  0  0  0
    2.1606  -13.6574  -30.0709 C   0  0  0  0  0  0  0  0  0  0  0  0
    3.5443  -13.8706  -29.9234 C   0  0  0  0  0  0  0  0  0  0  0  0
    4.1359  -14.1788  -28.5512 C   0  0  0  0  0  0  0  0  0  0  0  0
    5.0011  -13.0352  -27.9949 C   0  0  0  0  0  0  0  0  0  0  0  0
    4.7422  -11.8943  -28.3399 O   0  5  0  0  0  0  0  0  0  0  0  0
    5.8981  -13.3528  -27.2325 O   0  0  0  0  0  0  0  0  0  0  0  0
    4.3823  -13.7711  -31.0487 C   0  0  0  0  0  0  0  0  0  0  0  0
    3.8487  -13.4312  -32.3010 C   0  0  0  0  0  0  0  0  0  0  0  0
    5.3860   -8.6094  -31.2844 C   0  0  0  0  0  0  0  0  0  0  0  0
    5.9938   -7.5526  -31.2596 O   0  5  0  0  0  0  0  0  0  0  0  0
    5.1404   -9.2962  -30.3080 O   0  0  0  0  0  0  0  0  0  0  0  0
    2.8620  -10.1134  -38.3036 H   0  0  0  0  0  0  0  0  0  0  0  0
    4.1221   -9.0412  -37.7419 H   0  0  0  0  0  0  0  0  0  0  0  0
    2.4835   -8.8390  -37.1698 H   0  0  0  0  0  0  0  0  0  0  0  0
    5.7343   -9.0946  -35.8956 H   0  0  0  0  0  0  0  0  0  0  0  0
    6.5223   -8.3177  -33.7387 H   0  0  0  0  0  0  0  0  0  0  0  0
    3.1413  -10.0226  -31.8814 H   0  0  0  0  0  0  0  0  0  0  0  0
    1.7351  -13.4335  -34.3039 H   0  0  0  0  0  0  0  0  0  0  0  0
    0.6084  -13.1768  -31.4265 H   0  0  0  0  0  0  0  0  0  0  0  0
    1.5370  -13.7490  -29.2537 H   0  0  0  0  0  0  0  0  0  0  0  0
    4.7426  -15.0564  -28.6316 H   0  0  0  0  0  0  0  0  0  0  0  0
    3.3179  -14.3170  -27.8755 H   0  0  0  0  0  0  0  0  0  0  0  0
    5.3944  -13.9490  -30.9527 H   0  0  0  0  0  0  0  0  0  0  0  0
    4.4679  -13.3649  -33.1239 H   0  0  0  0  0  0  0  0  0  0  0  0
  1  2  1  0  0  0  0
  1 26  1  0  0  0  0
  1 27  1  0  0  0  0
  1 28  1  0  0  0  0
  2  3  1  0  0  0  0
  3  4  2  0  0  0  0
  3  8  1  0  0  0  0
  4  5  1  0  0  0  0
  4 29  1  0  0  0  0
  5  6  2  0  0  0  0
  5 30  1  0  0  0  0
  6  7  1  0  0  0  0
  6 23  1  0  0  0  0
  7  8  2  0  0  0  0
  7 31  1  0  0  0  0
  8  9  1  0  0  0  0
  9 10  2  0  0  0  0
  9 11  2  0  0  0  0
  9 12  1  0  0  0  0
 12 13  1  0  0  0  0
 12 32  1  0  0  0  0
 13 14  2  0  0  0  0
 13 22  1  0  0  0  0
 14 15  1  0  0  0  0
 14 33  1  0  0  0  0
 15 16  2  0  0  0  0
 15 34  1  0  0  0  0
 16 17  1  0  0  0  0
 16 21  1  0  0  0  0
 17 18  1  0  0  0  0
 17 35  1  0  0  0  0
 17 36  1  0  0  0  0
 18 19  1  0  0  0  0
 18 20  2  0  0  0  0
 21 22  2  0  0  0  0
 21 37  1  0  0  0  0
 22 38  1  0  0  0  0
 23 24  1  0  0  0  0
 23 25  2  0  0  0  0
M  CHG  2  19  -1  24  -1
M  END
$$$$
