##########                                Name: HTS1710-02202283-01
##########                    Molecular_Weight:             322.274
##########                DOCK_Rotatable_Bonds:                  11
##########                       Formal_Charge:                  -2
##########                     HBond_Acceptors:                   9
##########                        HBond_Donors:                   1
##########                         Heavy_Atoms:                  23
##########                          Grid_Score:          -77.529922
##########                     Grid_vdw_energy:          -39.157761
##########                      Grid_es_energy:          -38.372166
##########           Internal_energy_repulsive:            7.726244

@<TRIPOS>MOLECULE
HTS1710-02202283-01
 37 37 1 0 0
SMALL
USER_CHARGES


@<TRIPOS>ATOM
      1 C           2.9007  -10.6158  -34.2224 C.2     1  UNL1        0.0819
      2 N           2.1798  -11.6247  -33.8159 N.2     1  UNL1       -0.1830
      3 C           2.6107   -9.8891  -35.5344 C.2     1  UNL1        0.0873
      4 C           1.4970  -13.3449  -32.2813 C.2     1  UNL1        0.2698
      5 N           2.3632  -12.3354  -32.6713 N.am    1  UNL1       -0.2039
      6 C           4.8000   -8.7136  -31.3591 C.2     1  UNL1        0.0421
      7 C           4.0829  -10.1336  -33.3764 C.3     1  UNL1       -0.0021
      8 O           3.5242   -9.4389  -36.2051 O.co2   1  UNL1       -0.5433
      9 O           0.5320  -13.6316  -32.9718 O.2     1  UNL1       -0.2703
     10 O           5.1663   -9.4270  -30.4408 O.co2   1  UNL1       -0.5498
     11 C           1.7925  -14.0829  -30.9774 C.3     1  UNL1        0.1668
     12 O           2.5034  -13.2102  -30.0797 O.3     1  UNL1       -0.4827
     13 C           3.6277   -9.2151  -32.2144 C.3     1  UNL1       -0.0077
     14 O           1.4371   -9.7891  -35.8518 O.co2   1  UNL1       -0.5433
     15 C           3.4996  -13.6490  -29.2313 C.ar    1  UNL1        0.1214
     16 C           5.5862  -14.4522  -27.5097 C.ar    1  UNL1        0.1203
     17 O           5.2723   -7.6272  -31.6434 O.co2   1  UNL1       -0.5498
     18 C           3.6209  -15.0011  -28.8465 C.ar    1  UNL1       -0.0165
     19 C           4.4202  -12.7047  -28.7472 C.ar    1  UNL1       -0.0165
     20 C           4.6616  -15.3956  -27.9901 C.ar    1  UNL1       -0.0165
     21 C           5.4601  -13.0992  -27.8905 C.ar    1  UNL1       -0.0165
     22 O           6.5954  -14.8933  -26.6751 O.3     1  UNL1       -0.4951
     23 C           6.9453  -16.2819  -26.5393 C.3     1  UNL1        0.0788
     24 H           3.1372  -12.1259  -32.1002 H       1  UNL1        0.1773
     25 H           4.7574   -9.5889  -34.0036 H       1  UNL1        0.0333
     26 H           4.5583  -10.9931  -32.9518 H       1  UNL1        0.0333
     27 H           2.3910  -14.9455  -31.1840 H       1  UNL1        0.0795
     28 H           0.8720  -14.3863  -30.5239 H       1  UNL1        0.0795
     29 H           3.1186   -8.3690  -32.6266 H       1  UNL1        0.0328
     30 H           2.9884   -9.7917  -31.5790 H       1  UNL1        0.0328
     31 H           2.9454  -15.6996  -29.1941 H       1  UNL1        0.0655
     32 H           4.3316  -11.7143  -29.0234 H       1  UNL1        0.0655
     33 H           4.7483  -16.3854  -27.7115 H       1  UNL1        0.0655
     34 H           6.1323  -12.3995  -27.5390 H       1  UNL1        0.0655
     35 H           7.7507  -16.3802  -25.8417 H       1  UNL1        0.0660
     36 H           7.2479  -16.6680  -27.4902 H       1  UNL1        0.0660
     37 H           6.0975  -16.8303  -26.1850 H       1  UNL1        0.0660
@<TRIPOS>BOND
     1     1     2    2
     2     1     3    1
     3     1     7    1
     4     2     5    1
     5     3     8   ar
     6     3    14   ar
     7     4     5   am
     8     4     9    2
     9     4    11    1
    10     6    10   ar
    11     6    13    1
    12     6    17   ar
    13     7    13    1
    14    11    12    1
    15    12    15    1
    16    15    18   ar
    17    15    19   ar
    18    16    20   ar
    19    16    21   ar
    20    16    22    1
    21    18    20   ar
    22    19    21   ar
    23    22    23    1
    24     5    24    1
    25     7    25    1
    26     7    26    1
    27    11    27    1
    28    11    28    1
    29    13    29    1
    30    13    30    1
    31    18    31    1
    32    19    32    1
    33    20    33    1
    34    21    34    1
    35    23    35    1
    36    23    36    1
    37    23    37    1
@<TRIPOS>SUBSTRUCTURE
     1 UNL1        1 TEMP              0 ****  ****    0 ROOT


