HTS1710-00490063-01
 OpenBabel03232612353D

 24 25  0  0  0  0  0  0  0  0999 V2000
    3.0892   -9.1342  -32.7922 C   0  0  0  0  0  0  0  0  0  0  0  0
    2.6831   -9.2673  -34.1559 C   0  0  0  0  0  0  0  0  0  0  0  0
    4.3537   -9.6838  -32.4098 C   0  0  0  0  0  0  0  0  0  0  0  0
    2.2069   -8.4606  -31.8877 C   0  0  0  0  0  0  0  0  0  0  0  0
    3.5444   -9.8633  -35.1125 C   0  0  0  0  0  0  0  0  0  0  0  0
    1.4080   -8.8149  -34.5608 C   0  0  0  0  0  0  0  0  0  0  0  0
    5.1835  -10.2752  -33.3767 C   0  0  0  0  0  0  0  0  0  0  0  0
    4.8689   -9.7617  -31.0022 C   0  0  0  0  0  0  0  0  0  0  0  0
    0.9471   -8.0198  -32.3303 C   0  0  0  0  0  0  0  0  0  0  0  0
    2.5382   -8.1000  -30.4685 C   0  0  0  0  0  0  0  0  0  0  0  0
    4.7910  -10.3552  -34.7121 C   0  0  0  0  0  0  0  0  0  0  0  0
    3.1791   -9.9847  -36.5653 C   0  0  0  0  0  0  0  0  0  0  0  0
    0.5426   -8.2078  -33.6512 C   0  0  0  0  0  0  0  0  0  0  0  0
    5.3763   -8.7534  -30.5405 O   0  5  0  0  0  0  0  0  0  0  0  0
    4.7955  -10.8429  -30.4447 O   0  0  0  0  0  0  0  0  0  0  0  0
    2.9904   -6.9858  -30.2706 O   0  5  0  0  0  0  0  0  0  0  0  0
    2.3867   -8.9697  -29.6277 O   0  0  0  0  0  0  0  0  0  0  0  0
    3.6421   -9.1492  -37.3228 O   0  5  0  0  0  0  0  0  0  0  0  0
    2.4344  -10.8966  -36.8801 O   0  0  0  0  0  0  0  0  0  0  0  0
    1.1129   -8.9351  -35.5423 H   0  0  0  0  0  0  0  0  0  0  0  0
    6.0995  -10.6571  -33.0937 H   0  0  0  0  0  0  0  0  0  0  0  0
    0.3119   -7.5497  -31.6667 H   0  0  0  0  0  0  0  0  0  0  0  0
    5.4234  -10.7794  -35.4086 H   0  0  0  0  0  0  0  0  0  0  0  0
   -0.3940   -7.8986  -33.9548 H   0  0  0  0  0  0  0  0  0  0  0  0
  1  2  1  0  0  0  0
  1  3  2  0  0  0  0
  1  4  1  0  0  0  0
  2  5  2  0  0  0  0
  2  6  1  0  0  0  0
  3  7  1  0  0  0  0
  3  8  1  0  0  0  0
  4  9  2  0  0  0  0
  4 10  1  0  0  0  0
  5 11  1  0  0  0  0
  5 12  1  0  0  0  0
  6 13  2  0  0  0  0
  6 20  1  0  0  0  0
  7 11  2  0  0  0  0
  7 21  1  0  0  0  0
  8 14  1  0  0  0  0
  8 15  2  0  0  0  0
  9 13  1  0  0  0  0
  9 22  1  0  0  0  0
 10 16  1  0  0  0  0
 10 17  2  0  0  0  0
 11 23  1  0  0  0  0
 12 18  1  0  0  0  0
 12 19  2  0  0  0  0
 13 24  1  0  0  0  0
M  CHG  3  14  -1  16  -1  18  -1
M  END
$$$$
