##########                                Name: HTS1710-03903566-01
##########                    Molecular_Weight:             439.406
##########                DOCK_Rotatable_Bonds:                   8
##########                       Formal_Charge:                  -1
##########                     HBond_Acceptors:                  14
##########                        HBond_Donors:                   2
##########                         Heavy_Atoms:                  30
##########                          Grid_Score:          -74.770081
##########                     Grid_vdw_energy:          -48.608028
##########                      Grid_es_energy:          -26.162052
##########           Internal_energy_repulsive:           16.622774

@<TRIPOS>MOLECULE
HTS1710-03903566-01
 47 49 1 0 0
SMALL
USER_CHARGES


@<TRIPOS>ATOM
      1 N           4.2246  -11.2227  -31.8726 N.am    1  UNL1       -0.2533
      2 C           4.4242  -10.2245  -32.8103 C.2     1  UNL1        0.2438
      3 C           4.3569  -12.3202  -32.8383 C.3     1  UNL1        0.1041
      4 CA          4.6137  -11.2509  -33.9596 C.3     1  UNL1        0.1284
      5 C           0.2449   -7.6744  -35.7387 C.ar    1  UNL1        0.2455
      6 N           1.4999   -9.1939  -36.7171 N.ar    1  UNL1       -0.2532
      7 CA          3.8751  -11.4550  -30.4777 C.2     1  UNL1        0.0631
      8 C           0.8825   -8.8712  -35.5191 C.ar    1  UNL1        0.1071
      9 N          -0.5318   -6.8759  -34.8161 N.pl3   1  UNL1       -0.1586
     10 N           1.2612   -8.2530  -37.6848 N.ar    1  UNL1       -0.1722
     11 C           0.5023   -7.3422  -37.0990 C.ar    1  UNL1        0.1203
     12 S           2.7476  -13.2045  -32.7253 S.3     1  UNL1       -0.1310
     13 C           3.3785  -12.6859  -30.1087 C.2     1  UNL1        0.0004
     14 C           2.3873  -10.3329  -36.9958 C.3     1  UNL1        0.1181
     15 N           3.5172  -11.1649  -34.9304 N.am    1  UNL1       -0.3002
     16 C           3.5855  -10.3481  -36.0480 C.2     1  UNL1        0.2352
     17 C           4.0695  -10.2977  -29.5062 C.2     1  UNL1        0.0860
     18 C           3.1778  -13.8600  -31.0692 C.3     1  UNL1        0.0219
     19 O           4.3980   -9.0179  -32.6423 O.2     1  UNL1       -0.2731
     20 O          -1.0234   -5.8380  -35.2518 O.co2   1  UNL1       -0.6334
     21 O          -0.6331   -7.2445  -33.6505 O.2     1  UNL1       -0.0291
     22 C           2.9711  -13.0959  -28.6966 C.3     1  UNL1        0.1164
     23 C           5.1686  -13.8848  -27.8496 C.2     1  UNL1        0.3043
     24 O           4.9154   -9.4537  -29.7408 O.co2   1  UNL1       -0.5433
     25 O           4.5917   -9.6958  -36.2701 O.2     1  UNL1       -0.2738
     26 O           4.1311  -12.9859  -27.8413 O.3     1  UNL1       -0.4603
     27 O           6.3130  -13.5547  -28.1024 O.2     1  UNL1       -0.2512
     28 OXT         3.3519  -10.2611  -28.5239 O.co2   1  UNL1       -0.5433
     29 C           0.9308   -9.6541  -34.2268 C.3     1  UNL1       -0.0163
     30 C           4.7878  -15.3383  -27.5184 C.3     1  UNL1        0.0332
     31 H           5.0476  -13.1374  -32.8429 H       1  UNL1        0.0644
     32 H           5.4623  -11.2828  -34.6107 H       1  UNL1        0.0622
     33 H          -0.5241   -6.3353  -35.6389 H       1  UNL1        0.4510
     34 H           0.1420   -6.4970  -37.5687 H       1  UNL1        0.0915
     35 H           2.7407  -10.2611  -38.0033 H       1  UNL1        0.0605
     36 H           1.8321  -11.2364  -36.8529 H       1  UNL1        0.0605
     37 H           2.7070  -11.7045  -34.7832 H       1  UNL1        0.1496
     38 H           2.3851  -14.4841  -30.7129 H       1  UNL1        0.0424
     39 H           4.0770  -14.4369  -31.1297 H       1  UNL1        0.0424
     40 H           2.6185  -14.1061  -28.7004 H       1  UNL1        0.0746
     41 H           2.1873  -12.4612  -28.3393 H       1  UNL1        0.0746
     42 H           0.3538   -9.1479  -33.4814 H       1  UNL1        0.0295
     43 H           1.9455   -9.7364  -33.8974 H       1  UNL1        0.0295
     44 H           0.5274  -10.6321  -34.3870 H       1  UNL1        0.0295
     45 H           3.7360  -15.3976  -27.3309 H       1  UNL1        0.0342
     46 H           5.3236  -15.6582  -26.6493 H       1  UNL1        0.0342
     47 H           5.0389  -15.9700  -28.3448 H       1  UNL1        0.0342
@<TRIPOS>BOND
     1     1     2   am
     2     1     3    1
     3     3     4    1
     4     5     8   ar
     5     6    14    1
     6     1     7    1
     7     6     8   ar
     8     5     9    1
     9     6    10   ar
    10    10    11   ar
    11     3    12    1
    12     7    13    2
    13    14    16    1
    14     4    15    1
    15    15    16   am
    16     7    17    1
    17    13    18    1
    18     2    19    2
    19     9    20    1
    20     9    21    2
    21    13    22    1
    22    23    26    1
    23    17    24   ar
    24    16    25    2
    25    22    26    1
    26    23    27    2
    27    17    28   ar
    28     8    29    1
    29    23    30    1
    30     2     4    1
    31    12    18    1
    32     5    11   ar
    33     3    31    1
    34     4    32    1
    35     9    33    1
    36    11    34    1
    37    14    35    1
    38    14    36    1
    39    15    37    1
    40    18    38    1
    41    18    39    1
    42    22    40    1
    43    22    41    1
    44    29    42    1
    45    29    43    1
    46    29    44    1
    47    30    45    1
    48    30    46    1
    49    30    47    1
@<TRIPOS>SUBSTRUCTURE
     1 UNL1        1 TEMP              0 ****  ****    0 ROOT


