##########                                Name: HTS1710-04762552-01
##########                    Molecular_Weight:             373.342
##########                DOCK_Rotatable_Bonds:                   5
##########                       Formal_Charge:                  -2
##########                     HBond_Acceptors:                   9
##########                        HBond_Donors:                   0
##########                         Heavy_Atoms:                  27
##########                          Grid_Score:          -81.400719
##########                     Grid_vdw_energy:          -40.007374
##########                      Grid_es_energy:          -41.393345
##########           Internal_energy_repulsive:            5.795040

@<TRIPOS>MOLECULE
HTS1710-04762552-01
 44 47 1 0 0
SMALL
USER_CHARGES


@<TRIPOS>ATOM
      1 O           3.3271   -9.1462  -38.1210 O.co2   1  UNL1       -0.5497
      2 C           3.9701   -9.4893  -37.1435 C.2     1  UNL1        0.0442
      3 O           4.8671   -8.8453  -36.6274 O.co2   1  UNL1       -0.5497
      4 C           3.6614  -10.8709  -36.5459 C.3     1  UNL1        0.0146
      5 C           2.5966  -10.8539  -35.4155 C.3     1  UNL1        0.0795
      6 C           2.9996   -9.9701  -34.2014 C.3     1  UNL1        0.0417
      7 N           1.8880   -9.5275  -33.2997 N.am    1  UNL1       -0.2916
      8 C           0.4961   -9.6105  -33.8386 C.3     1  UNL1        0.0386
      9 C           0.2813  -10.5781  -35.0185 C.3     1  UNL1        0.0638
     10 O           1.3495  -10.3943  -35.9492 O.3     1  UNL1       -0.3731
     11 C           2.0659   -8.7211  -32.1491 C.2     1  UNL1        0.2645
     12 O           1.1117   -8.1574  -31.6357 O.2     1  UNL1       -0.2683
     13 C           3.4411   -8.5907  -31.5508 C.2     1  UNL1        0.1182
     14 N           4.2382   -7.4910  -31.6217 N.2     1  UNL1       -0.2654
     15 C           5.4070   -7.8935  -31.1524 C.2     1  UNL1       -0.0363
     16 O           5.5019   -9.2109  -30.7674 O.co2   1  UNL1       -0.7709
     17 C           4.2144   -9.5945  -31.0124 C.2     1  UNL1       -0.0549
     18 C           3.7486  -10.9162  -30.5435 C.ar    1  UNL1       -0.0259
     19 C           4.0338  -12.0499  -31.3357 C.ar    1  UNL1       -0.0514
     20 C           3.6389  -13.3364  -30.9324 C.ar    1  UNL1       -0.0157
     21 C           2.9723  -13.5083  -29.7125 C.ar    1  UNL1        0.1621
     22 O           2.5633  -14.7634  -29.3181 O.3     1  UNL1       -0.4849
     23 C           1.6234  -14.8807  -28.2302 C.3     1  UNL1        0.1237
     24 C           2.0574  -13.9162  -27.1023 C.3     1  UNL1        0.1237
     25 O           2.1477  -12.5826  -27.6483 O.3     1  UNL1       -0.4849
     26 C           2.7417  -12.4006  -28.8785 C.ar    1  UNL1        0.1626
     27 C           3.1273  -11.1145  -29.2878 C.ar    1  UNL1       -0.0096
     28 H           4.5686  -11.2734  -36.1460 H       1  UNL1        0.0350
     29 H           3.2575  -11.4649  -37.3390 H       1  UNL1        0.0350
     30 H           2.5121  -11.8563  -35.0508 H       1  UNL1        0.0615
     31 H           3.4781   -9.0923  -34.5827 H       1  UNL1        0.0490
     32 H           3.6267  -10.5899  -33.5953 H       1  UNL1        0.0490
     33 H           0.2126   -8.6312  -34.1635 H       1  UNL1        0.0487
     34 H          -0.0990   -9.9977  -33.0380 H       1  UNL1        0.0487
     35 H          -0.6535  -10.3668  -35.4943 H       1  UNL1        0.0575
     36 H           0.2670  -11.5892  -34.6685 H       1  UNL1        0.0575
     37 H           6.2102   -7.2497  -31.0785 H       1  UNL1        0.0668
     38 H           4.5412  -11.9313  -32.2265 H       1  UNL1        0.0624
     39 H           3.8392  -14.1516  -31.5326 H       1  UNL1        0.0655
     40 H           1.6188  -15.8860  -27.8638 H       1  UNL1        0.0731
     41 H           0.6389  -14.6319  -28.5672 H       1  UNL1        0.0731
     42 H           3.0109  -14.2147  -26.7194 H       1  UNL1        0.0731
     43 H           1.3428  -13.9385  -26.3061 H       1  UNL1        0.0731
     44 H           2.9564  -10.3072  -28.6680 H       1  UNL1        0.0661
@<TRIPOS>BOND
     1     1     2   ar
     2     2     3   ar
     3     2     4    1
     4     4     5    1
     5     5     6    1
     6     6     7    1
     7     7     8    1
     8     8     9    1
     9     9    10    1
    10     5    10    1
    11     7    11   am
    12    11    12    2
    13    11    13    1
    14    13    14    1
    15    14    15    2
    16    15    16    1
    17    16    17    1
    18    13    17    2
    19    17    18    1
    20    18    19   ar
    21    19    20   ar
    22    20    21   ar
    23    21    22    1
    24    22    23    1
    25    23    24    1
    26    24    25    1
    27    25    26    1
    28    21    26   ar
    29    26    27   ar
    30    18    27   ar
    31     4    28    1
    32     4    29    1
    33     5    30    1
    34     6    31    1
    35     6    32    1
    36     8    33    1
    37     8    34    1
    38     9    35    1
    39     9    36    1
    40    15    37    1
    41    19    38    1
    42    20    39    1
    43    23    40    1
    44    23    41    1
    45    24    42    1
    46    24    43    1
    47    27    44    1
@<TRIPOS>SUBSTRUCTURE
     1 UNL1        1 TEMP              0 ****  ****    0 ROOT


