HTS1710-04712452-01
 OpenBabel03232612363D

 42 44  0  0  1  0  0  0  0  0999 V2000
    3.0775   -9.2163  -37.2393 O   0  5  0  0  0  0  0  0  0  0  0  0
    4.0599   -9.6401  -36.6559 C   0  0  0  0  0  0  0  0  0  0  0  0
    5.0006   -8.9666  -36.2721 O   0  0  0  0  0  0  0  0  0  0  0  0
    4.1076  -11.1453  -36.3636 C   0  0  0  0  0  0  0  0  0  0  0  0
    4.2004  -11.4327  -34.8431 C   0  0  0  0  0  0  0  0  0  0  0  0
    2.9653  -10.9201  -34.0368 C   0  0  1  0  0  0  0  0  0  0  0  0
    2.3541  -12.0249  -33.1525 C   0  0  0  0  0  0  0  0  0  0  0  0
    3.3241  -12.4027  -32.0252 C   0  0  0  0  0  0  0  0  0  0  0  0
    3.7192  -11.1810  -31.1665 C   0  0  0  0  0  0  0  0  0  0  0  0
    4.0504   -9.9234  -31.9079 N   0  0  0  0  0  0  0  0  0  0  0  0
    3.3066   -9.6700  -33.1806 C   0  0  0  0  0  0  0  0  0  0  0  0
    4.8042   -8.9484  -31.2094 C   0  0  0  0  0  0  0  0  0  0  0  0
    5.1493   -9.1442  -30.0543 O   0  0  0  0  0  0  0  0  0  0  0  0
    5.1758   -7.6568  -31.8901 C   0  0  0  0  0  0  0  0  0  0  0  0
    6.1839   -7.6626  -32.8379 C   0  0  0  0  0  0  0  0  0  0  0  0
    6.6488   -6.4538  -33.5259 C   0  0  0  0  0  0  0  0  0  0  0  0
    7.5359   -6.4671  -34.3631 O   0  0  0  0  0  0  0  0  0  0  0  0
    5.9462   -5.2043  -33.1138 C   0  0  0  0  0  0  0  0  0  0  0  0
    6.2720   -3.9619  -33.6947 C   0  0  0  0  0  0  0  0  0  0  0  0
    5.6009   -2.7961  -33.2915 C   0  0  0  0  0  0  0  0  0  0  0  0
    4.6016   -2.8658  -32.3100 C   0  0  0  0  0  0  0  0  0  0  0  0
    4.2734   -4.1002  -31.7290 C   0  0  0  0  0  0  0  0  0  0  0  0
    4.9426   -5.2704  -32.1279 C   0  0  0  0  0  0  0  0  0  0  0  0
    4.5893   -6.4638  -31.5244 O   0  0  0  0  0  0  0  0  0  0  0  0
    4.9638  -11.5656  -36.8486 H   0  0  0  0  0  0  0  0  0  0  0  0
    3.2038  -11.5847  -36.7311 H   0  0  0  0  0  0  0  0  0  0  0  0
    5.0774  -10.9537  -34.4606 H   0  0  0  0  0  0  0  0  0  0  0  0
    4.2348  -12.4957  -34.7248 H   0  0  0  0  0  0  0  0  0  0  0  0
    2.2331  -10.6337  -34.7626 H   0  0  0  0  0  0  0  0  0  0  0  0
    2.1569  -12.8886  -33.7526 H   0  0  0  0  0  0  0  0  0  0  0  0
    1.4444  -11.6621  -32.7216 H   0  0  0  0  0  0  0  0  0  0  0  0
    4.2088  -12.8218  -32.4569 H   0  0  0  0  0  0  0  0  0  0  0  0
    2.8317  -13.1080  -31.3888 H   0  0  0  0  0  0  0  0  0  0  0  0
    4.5776  -11.4535  -30.5887 H   0  0  0  0  0  0  0  0  0  0  0  0
    2.8500  -10.9483  -30.5876 H   0  0  0  0  0  0  0  0  0  0  0  0
    3.9022   -9.0154  -33.7819 H   0  0  0  0  0  0  0  0  0  0  0  0
    2.3636   -9.2603  -32.8842 H   0  0  0  0  0  0  0  0  0  0  0  0
    6.6311   -8.5626  -33.0724 H   0  0  0  0  0  0  0  0  0  0  0  0
    7.0059   -3.9090  -34.4184 H   0  0  0  0  0  0  0  0  0  0  0  0
    5.8431   -1.8879  -33.7175 H   0  0  0  0  0  0  0  0  0  0  0  0
    4.1075   -2.0091  -32.0150 H   0  0  0  0  0  0  0  0  0  0  0  0
    3.5384   -4.1493  -31.0063 H   0  0  0  0  0  0  0  0  0  0  0  0
  1  2  1  0  0  0  0
  2  3  2  0  0  0  0
  2  4  1  0  0  0  0
  4  5  1  0  0  0  0
  4 25  1  0  0  0  0
  4 26  1  0  0  0  0
  5  6  1  0  0  0  0
  5 27  1  0  0  0  0
  5 28  1  0  0  0  0
  6  7  1  0  0  0  0
  6 11  1  0  0  0  0
  6 29  1  6  0  0  0
  7  8  1  0  0  0  0
  7 30  1  0  0  0  0
  7 31  1  0  0  0  0
  8  9  1  0  0  0  0
  8 32  1  0  0  0  0
  8 33  1  0  0  0  0
  9 10  1  0  0  0  0
  9 34  1  0  0  0  0
  9 35  1  0  0  0  0
 10 11  1  0  0  0  0
 10 12  1  0  0  0  0
 11 36  1  0  0  0  0
 11 37  1  0  0  0  0
 12 13  2  0  0  0  0
 12 14  1  0  0  0  0
 14 15  2  0  0  0  0
 14 24  1  0  0  0  0
 15 16  1  0  0  0  0
 15 38  1  0  0  0  0
 16 17  2  0  0  0  0
 16 18  1  0  0  0  0
 18 19  2  0  0  0  0
 18 23  1  0  0  0  0
 19 20  1  0  0  0  0
 19 39  1  0  0  0  0
 20 21  2  0  0  0  0
 20 40  1  0  0  0  0
 21 22  1  0  0  0  0
 21 41  1  0  0  0  0
 22 23  2  0  0  0  0
 22 42  1  0  0  0  0
 23 24  1  0  0  0  0
M  CHG  1   1  -1
M  END
$$$$
