##########                                Name: HTS1710-01266958-01
##########                    Molecular_Weight:             387.346
##########                DOCK_Rotatable_Bonds:                   7
##########                       Formal_Charge:                  -2
##########                     HBond_Acceptors:                   9
##########                        HBond_Donors:                   0
##########                         Heavy_Atoms:                  28
##########                          Grid_Score:          -76.067413
##########                     Grid_vdw_energy:          -44.773453
##########                      Grid_es_energy:          -31.293957
##########           Internal_energy_repulsive:           16.029793

@<TRIPOS>MOLECULE
HTS1710-01266958-01
 45 47 1 0 0
SMALL
USER_CHARGES


@<TRIPOS>ATOM
      1 C           3.7816  -10.9403  -32.0784 C.ar    1  UNL1        0.0174
      2 C           3.0486  -12.1522  -32.5385 C.ar    1  UNL1        0.2550
      3 N           2.9024  -13.1524  -31.5736 N.ar    1  UNL1       -0.3070
      4 C           4.2626  -10.7829  -30.7836 C.ar    1  UNL1       -0.0978
      5 C           3.9748   -9.8093  -33.0971 C.3     1  UNL1        0.0239
      6 C           4.0520  -11.8585  -29.8576 C.ar    1  UNL1       -0.0498
      7 C           3.3943  -13.0009  -30.2697 C.ar    1  UNL1        0.0188
      8 C           2.6448   -9.3889  -33.7469 C.ar    1  UNL1       -0.0356
      9 C           2.1949  -14.4048  -31.9721 C.3     1  UNL1        0.0657
     10 C           0.4292   -8.4646  -33.4898 C.ar    1  UNL1        0.1665
     11 C           1.6434   -8.8429  -32.9097 C.ar    1  UNL1       -0.0124
     12 O           2.6023  -12.2646  -33.6702 O.2     1  UNL1       -0.2674
     13 C           5.1293  -10.1292  -34.0927 C.3     1  UNL1        0.0559
     14 C           0.7327  -14.1120  -32.3329 C.2     1  UNL1        0.0615
     15 C           5.7253   -8.8614  -34.7155 C.2     1  UNL1        0.3077
     16 C           0.1913   -8.6078  -34.8265 C.ar    1  UNL1        0.1662
     17 O          -0.6516   -7.9265  -32.8638 O.3     1  UNL1       -0.4526
     18 O          -1.0588   -8.1705  -35.1423 O.3     1  UNL1       -0.4526
     19 C          -1.6600   -7.7119  -33.8961 C.3     1  UNL1        0.2332
     20 C           2.3863   -9.5330  -35.1414 C.ar    1  UNL1       -0.0543
     21 O           0.0502  -13.5607  -31.4871 O.co2   1  UNL1       -0.5480
     22 O           5.5606   -8.5409  -35.8811 O.2     1  UNL1       -0.2508
     23 O           4.9052   -9.6800  -30.3434 O.co2   1  UNL1       -0.8733
     24 C           1.1485   -9.1413  -35.6920 C.ar    1  UNL1       -0.0159
     25 O           0.3505  -14.4439  -33.4412 O.co2   1  UNL1       -0.5480
     26 O           6.4691   -8.1543  -33.8121 O.3     1  UNL1       -0.4679
     27 C           3.2118  -14.0953  -29.2338 C.3     1  UNL1       -0.0242
     28 C           6.8671   -6.8078  -34.1254 C.3     1  UNL1        0.0817
     29 H           4.3007   -8.9330  -32.5767 H       1  UNL1        0.0404
     30 H           4.3911  -11.7787  -28.8861 H       1  UNL1        0.0629
     31 H           2.2234  -15.0983  -31.1578 H       1  UNL1        0.0554
     32 H           2.6841  -14.8177  -32.8295 H       1  UNL1        0.0554
     33 H           1.8052   -8.7269  -31.8971 H       1  UNL1        0.0658
     34 H           4.7470  -10.7506  -34.8754 H       1  UNL1        0.0387
     35 H           5.9059  -10.6234  -33.5472 H       1  UNL1        0.0387
     36 H          -1.9092   -6.6734  -33.9629 H       1  UNL1        0.1166
     37 H          -2.5645   -8.2403  -33.6781 H       1  UNL1        0.1166
     38 H           3.1145   -9.9292  -35.7560 H       1  UNL1        0.0622
     39 H           0.9565   -9.2454  -36.7007 H       1  UNL1        0.0655
     40 H           3.6546  -13.7887  -28.3092 H       1  UNL1        0.0292
     41 H           3.6847  -14.9923  -29.5756 H       1  UNL1        0.0292
     42 H           2.1676  -14.2765  -29.0865 H       1  UNL1        0.0292
     43 H           7.4385   -6.4069  -33.3144 H       1  UNL1        0.0661
     44 H           5.9965   -6.2054  -34.2805 H       1  UNL1        0.0661
     45 H           7.4624   -6.8096  -35.0145 H       1  UNL1        0.0661
@<TRIPOS>BOND
     1     1     2   ar
     2     2     3   ar
     3     1     4   ar
     4     1     5    1
     5     4     6   ar
     6     6     7   ar
     7     5     8    1
     8     3     9    1
     9    10    11   ar
    10     8    11   ar
    11     2    12    2
    12     5    13    1
    13     9    14    1
    14    13    15    1
    15    16    24   ar
    16    10    17    1
    17    16    18    1
    18    17    19    1
    19     8    20   ar
    20    14    21   ar
    21    15    22    2
    22     4    23    1
    23    20    24   ar
    24    14    25   ar
    25    15    26    1
    26     7    27    1
    27    26    28    1
    28     3     7   ar
    29    10    16   ar
    30    18    19    1
    31     5    29    1
    32     6    30    1
    33     9    31    1
    34     9    32    1
    35    11    33    1
    36    13    34    1
    37    13    35    1
    38    19    36    1
    39    19    37    1
    40    20    38    1
    41    24    39    1
    42    27    40    1
    43    27    41    1
    44    27    42    1
    45    28    43    1
    46    28    44    1
    47    28    45    1
@<TRIPOS>SUBSTRUCTURE
     1 UNL1        1 TEMP              0 ****  ****    0 ROOT


