##########                                Name: HTS1710-02445892-01
##########                    Molecular_Weight:              252.31
##########                DOCK_Rotatable_Bonds:                   7
##########                       Formal_Charge:                  -2
##########                     HBond_Acceptors:                   4
##########                        HBond_Donors:                   0
##########                         Heavy_Atoms:                  18
##########                          Grid_Score:          -80.211227
##########                     Grid_vdw_energy:          -36.018566
##########                      Grid_es_energy:          -44.192657
##########           Internal_energy_repulsive:           10.425294

@<TRIPOS>MOLECULE
HTS1710-02445892-01
 38 37 1 0 0
SMALL
USER_CHARGES


@<TRIPOS>ATOM
      1 C           3.5322  -11.6151  -29.9560 C.2     1  UNL1       -0.0270
      2 C           4.1968  -10.3668  -32.6258 C.2     1  UNL1       -0.0270
      3 C           4.6061   -9.8668  -31.4173 C.2     1  UNL1       -0.1130
      4 C           4.1145  -10.3901  -30.1178 C.2     1  UNL1       -0.1130
      5 C           4.5124  -10.0480  -34.0718 C.2     1  UNL1        0.1608
      6 C           3.0073  -12.2249  -28.6846 C.2     1  UNL1        0.1608
      7 C           3.2278  -13.7523  -28.4875 C.3     1  UNL1        0.0246
      8 C           3.9446  -10.8748  -35.2747 C.3     1  UNL1        0.0246
      9 O           2.4306  -11.5521  -27.8453 O.2     1  UNL1       -0.2921
     10 O           5.2284   -9.0829  -34.2870 O.2     1  UNL1       -0.2921
     11 O           4.2648   -9.5664  -29.0539 O.co2   1  UNL1       -0.8739
     12 O           5.4819   -8.8435  -31.3176 O.co2   1  UNL1       -0.8739
     13 C           2.2787  -14.5588  -29.4228 C.3     1  UNL1       -0.0530
     14 C           2.9165  -14.1454  -27.0149 C.3     1  UNL1       -0.0530
     15 C           3.7263   -9.9467  -36.5078 C.3     1  UNL1       -0.0530
     16 C           2.6404  -11.6405  -34.8774 C.3     1  UNL1       -0.0530
     17 C           4.9964  -11.9457  -35.7141 C.3     1  UNL1       -0.0530
     18 C           4.6955  -14.1294  -28.8376 C.3     1  UNL1       -0.0530
     19 H           3.4415  -12.1911  -30.8075 H       1  UNL1        0.0646
     20 H           3.5176  -11.1375  -32.5276 H       1  UNL1        0.0646
     21 H           1.2621  -14.3129  -29.1972 H       1  UNL1        0.0239
     22 H           2.4343  -15.6065  -29.2712 H       1  UNL1        0.0239
     23 H           2.4878  -14.3110  -30.4425 H       1  UNL1        0.0239
     24 H           1.9058  -13.8830  -26.7818 H       1  UNL1        0.0239
     25 H           3.5810  -13.6235  -26.3583 H       1  UNL1        0.0239
     26 H           3.0487  -15.2001  -26.8917 H       1  UNL1        0.0239
     27 H           3.0109   -9.1898  -36.2623 H       1  UNL1        0.0239
     28 H           3.3639  -10.5265  -37.3308 H       1  UNL1        0.0239
     29 H           4.6542   -9.4867  -36.7767 H       1  UNL1        0.0239
     30 H           1.8941  -10.9381  -34.5697 H       1  UNL1        0.0239
     31 H           2.8523  -12.3117  -34.0715 H       1  UNL1        0.0239
     32 H           2.2822  -12.1956  -35.7191 H       1  UNL1        0.0239
     33 H           5.9064  -11.4577  -35.9945 H       1  UNL1        0.0239
     34 H           4.6161  -12.4979  -36.5479 H       1  UNL1        0.0239
     35 H           5.1861  -12.6141  -34.9003 H       1  UNL1        0.0239
     36 H           4.9019  -13.8561  -29.8513 H       1  UNL1        0.0239
     37 H           4.8310  -15.1839  -28.7178 H       1  UNL1        0.0239
     38 H           5.3634  -13.6075  -28.1845 H       1  UNL1        0.0239
@<TRIPOS>BOND
     1     1     4    2
     2     1     6    1
     3     2     3    2
     4     2     5    1
     5     3     4    1
     6     3    12    1
     7     4    11    1
     8     5     8    1
     9     5    10    2
    10     6     7    1
    11     6     9    2
    12     7    13    1
    13     7    14    1
    14     7    18    1
    15     8    15    1
    16     8    16    1
    17     8    17    1
    18     1    19    1
    19     2    20    1
    20    13    21    1
    21    13    22    1
    22    13    23    1
    23    14    24    1
    24    14    25    1
    25    14    26    1
    26    15    27    1
    27    15    28    1
    28    15    29    1
    29    16    30    1
    30    16    31    1
    31    16    32    1
    32    17    33    1
    33    17    34    1
    34    17    35    1
    35    18    36    1
    36    18    37    1
    37    18    38    1
@<TRIPOS>SUBSTRUCTURE
     1 UNL1        1 TEMP              0 ****  ****    0 ROOT


