HTS1710-02170824-01
 OpenBabel03232612343D

 40 40  0  0  1  0  0  0  0  0999 V2000
    3.2215  -11.3874  -31.8722 C   0  0  1  0  0  0  0  0  0  0  0  0
    3.2588  -12.5507  -30.8752 C   0  0  0  0  0  0  0  0  0  0  0  0
    3.5990   -9.8945  -29.8204 C   0  0  0  0  0  0  0  0  0  0  0  0
    5.7025   -8.6941  -34.7336 C   0  0  0  0  0  0  0  0  0  0  0  0
    2.7330   -9.6586  -36.3263 C   0  0  0  0  0  0  0  0  0  0  0  0
    3.9322  -10.1294  -31.2996 C   0  0  0  0  0  0  0  0  0  0  0  0
    4.0192  -10.5903  -34.2595 C   0  0  0  0  0  0  0  0  0  0  0  0
    3.8320  -11.7733  -33.2542 C   0  0  0  0  0  0  0  0  0  0  0  0
    4.4302  -12.8052  -30.1357 C   0  0  0  0  0  0  0  0  0  0  0  0
    2.4203   -9.8467  -29.5131 O   0  5  0  0  0  0  0  0  0  0  0  0
    5.7502   -8.3536  -35.9029 O   0  5  0  0  0  0  0  0  0  0  0  0
    2.0112   -8.9277  -35.6698 O   0  5  0  0  0  0  0  0  0  0  0  0
    3.3123  -10.8968  -35.6175 C   0  0  0  0  0  0  0  0  0  0  0  0
    5.5162  -10.1923  -34.4472 C   0  0  0  0  0  0  0  0  0  0  0  0
    4.4826  -13.8650  -29.2141 C   0  0  0  0  0  0  0  0  0  0  0  0
    4.5362   -9.7913  -29.0486 O   0  0  0  0  0  0  0  0  0  0  0  0
    5.7587   -7.9412  -33.7759 O   0  0  0  0  0  0  0  0  0  0  0  0
    3.0710   -9.4624  -37.4796 O   0  0  0  0  0  0  0  0  0  0  0  0
    5.6579  -14.0657  -28.5163 O   0  0  0  0  0  0  0  0  0  0  0  0
    2.1330  -13.3751  -30.6827 C   0  0  0  0  0  0  0  0  0  0  0  0
    2.1796  -14.4359  -29.7656 C   0  0  0  0  0  0  0  0  0  0  0  0
    3.3484  -14.6845  -29.0311 C   0  0  0  0  0  0  0  0  0  0  0  0
    5.8840  -15.2125  -27.6796 C   0  0  0  0  0  0  0  0  0  0  0  0
    2.1890  -11.1543  -32.0293 H   0  0  0  0  0  0  0  0  0  0  0  0
    3.6226   -9.2735  -31.8620 H   0  0  0  0  0  0  0  0  0  0  0  0
    4.9878  -10.2867  -31.3761 H   0  0  0  0  0  0  0  0  0  0  0  0
    3.5433   -9.7323  -33.8325 H   0  0  0  0  0  0  0  0  0  0  0  0
    3.1867  -12.4948  -33.7101 H   0  0  0  0  0  0  0  0  0  0  0  0
    4.8147  -12.1435  -33.0489 H   0  0  0  0  0  0  0  0  0  0  0  0
    5.2596  -12.2064  -30.2721 H   0  0  0  0  0  0  0  0  0  0  0  0
    4.0262  -11.3532  -36.2709 H   0  0  0  0  0  0  0  0  0  0  0  0
    2.4840  -11.5360  -35.3933 H   0  0  0  0  0  0  0  0  0  0  0  0
    6.0501  -10.4386  -33.5533 H   0  0  0  0  0  0  0  0  0  0  0  0
    5.8891  -10.7309  -35.2932 H   0  0  0  0  0  0  0  0  0  0  0  0
    1.2694  -13.1979  -31.2192 H   0  0  0  0  0  0  0  0  0  0  0  0
    1.3506  -15.0356  -29.6309 H   0  0  0  0  0  0  0  0  0  0  0  0
    3.3788  -15.4659  -28.3576 H   0  0  0  0  0  0  0  0  0  0  0  0
    6.8599  -15.1503  -27.2453 H   0  0  0  0  0  0  0  0  0  0  0  0
    5.8116  -16.1032  -28.2681 H   0  0  0  0  0  0  0  0  0  0  0  0
    5.1488  -15.2377  -26.9027 H   0  0  0  0  0  0  0  0  0  0  0  0
  1  2  1  0  0  0  0
  1  6  1  0  0  0  0
  1  8  1  0  0  0  0
  1 24  1  6  0  0  0
  2  9  2  0  0  0  0
  2 20  1  0  0  0  0
  3  6  1  0  0  0  0
  3 10  1  0  0  0  0
  3 16  2  0  0  0  0
  4 11  1  0  0  0  0
  4 14  1  0  0  0  0
  4 17  2  0  0  0  0
  5 12  1  0  0  0  0
  5 13  1  0  0  0  0
  5 18  2  0  0  0  0
  6 25  1  0  0  0  0
  6 26  1  0  0  0  0
  7  8  1  0  0  0  0
  7 13  1  0  0  0  0
  7 14  1  0  0  0  0
  7 27  1  0  0  0  0
  8 28  1  0  0  0  0
  8 29  1  0  0  0  0
  9 15  1  0  0  0  0
  9 30  1  0  0  0  0
 13 31  1  0  0  0  0
 13 32  1  0  0  0  0
 14 33  1  0  0  0  0
 14 34  1  0  0  0  0
 15 19  1  0  0  0  0
 15 22  2  0  0  0  0
 19 23  1  0  0  0  0
 20 21  2  0  0  0  0
 20 35  1  0  0  0  0
 21 22  1  0  0  0  0
 21 36  1  0  0  0  0
 22 37  1  0  0  0  0
 23 38  1  0  0  0  0
 23 39  1  0  0  0  0
 23 40  1  0  0  0  0
M  CHG  3  10  -1  11  -1  12  -1
M  END
$$$$
