##########                                Name: HTS1710-05328726-01
##########                    Molecular_Weight:             329.332
##########                DOCK_Rotatable_Bonds:                   9
##########                       Formal_Charge:                  -2
##########                     HBond_Acceptors:                   7
##########                        HBond_Donors:                   0
##########                         Heavy_Atoms:                  24
##########                          Grid_Score:          -79.434753
##########                     Grid_vdw_energy:          -42.317825
##########                      Grid_es_energy:          -37.116924
##########           Internal_energy_repulsive:           10.786667

@<TRIPOS>MOLECULE
HTS1710-05328726-01
 41 43 1 0 0
SMALL
USER_CHARGES


@<TRIPOS>ATOM
      1 O           5.8713   -8.6259  -35.2771 O.co2   1  UNL1       -0.5431
      2 C           6.2693   -7.5151  -34.9711 C.2     1  UNL1        0.0890
      3 OXT         6.8185   -6.7489  -35.7417 O.co2   1  UNL1       -0.5431
      4 CA          6.0670   -7.0866  -33.5596 C.2     1  UNL1        0.0763
      5 N           6.3492   -5.8404  -33.0976 N.2     1  UNL1       -0.2691
      6 C           6.0239   -5.9028  -31.8178 C.2     1  UNL1       -0.0366
      7 O           5.5351   -7.1069  -31.3549 O.co2   1  UNL1       -0.7726
      8 C           5.5850   -7.8297  -32.5142 C.2     1  UNL1       -0.0634
      9 C           5.1647   -9.2780  -32.5177 C.3     1  UNL1        0.0625
     10 O           4.8964   -9.6838  -31.1659 O.3     1  UNL1       -0.3671
     11 C           4.0904  -10.8654  -31.0486 C.3     1  UNL1        0.1242
     12 C           4.0373  -11.3350  -29.5833 C.2     1  UNL1        0.2419
     13 O           4.5401  -10.6469  -28.7094 O.2     1  UNL1       -0.2731
     14 N           3.4812  -12.6021  -29.3222 N.am    1  UNL1       -0.2922
     15 C           3.4209  -13.0741  -27.9131 C.3     1  UNL1        0.0401
     16 C           4.6000  -13.9701  -27.5604 C.ar    1  UNL1       -0.0301
     17 C           5.9056  -13.4470  -27.5579 C.ar    1  UNL1       -0.0571
     18 C           6.9980  -14.2725  -27.2459 C.ar    1  UNL1       -0.0615
     19 C           6.7892  -15.6259  -26.9349 C.ar    1  UNL1       -0.0617
     20 C           5.4882  -16.1524  -26.9368 C.ar    1  UNL1       -0.0615
     21 C           4.3956  -15.3268  -27.2498 C.ar    1  UNL1       -0.0571
     22 C           3.2692  -13.5947  -30.3828 C.3     1  UNL1        0.0265
     23 C           1.9607  -14.3538  -30.3134 C.3     1  UNL1       -0.0326
     24 C           2.1219  -13.2296  -31.2950 C.3     1  UNL1       -0.0326
     25 H           6.1307   -5.0881  -31.1936 H       1  UNL1        0.0668
     26 H           5.9501   -9.8798  -32.9249 H       1  UNL1        0.0599
     27 H           4.2862   -9.4009  -33.1160 H       1  UNL1        0.0599
     28 H           4.5122  -11.6414  -31.6526 H       1  UNL1        0.0657
     29 H           3.0970  -10.6424  -31.3780 H       1  UNL1        0.0657
     30 H           2.5143  -13.6246  -27.7718 H       1  UNL1        0.0514
     31 H           3.4559  -12.2155  -27.2754 H       1  UNL1        0.0514
     32 H           6.0614  -12.4527  -27.7861 H       1  UNL1        0.0621
     33 H           7.9543  -13.8845  -27.2451 H       1  UNL1        0.0618
     34 H           7.5917  -16.2329  -26.7052 H       1  UNL1        0.0618
     35 H           5.3342  -17.1468  -26.7082 H       1  UNL1        0.0618
     36 H           3.4401  -15.7167  -27.2518 H       1  UNL1        0.0621
     37 H           4.2933  -13.8832  -30.4966 H       1  UNL1        0.0500
     38 H           1.3183  -14.2356  -29.4660 H       1  UNL1        0.0284
     39 H           1.6797  -15.3838  -30.3833 H       1  UNL1        0.0284
     40 H           1.5932  -12.3113  -31.1467 H       1  UNL1        0.0284
     41 H           2.0022  -13.1292  -32.3535 H       1  UNL1        0.0284
@<TRIPOS>BOND
     1     1     2   ar
     2     2     3   ar
     3     2     4    1
     4     4     5    1
     5     5     6    2
     6     6     7    1
     7     7     8    1
     8     4     8    2
     9     8     9    1
    10     9    10    1
    11    10    11    1
    12    11    12    1
    13    12    13    2
    14    12    14   am
    15    14    15    1
    16    15    16    1
    17    16    17   ar
    18    17    18   ar
    19    18    19   ar
    20    19    20   ar
    21    20    21   ar
    22    16    21   ar
    23    14    22    1
    24    22    23    1
    25    23    24    1
    26    22    24    1
    27     6    25    1
    28     9    26    1
    29     9    27    1
    30    11    28    1
    31    11    29    1
    32    15    30    1
    33    15    31    1
    34    17    32    1
    35    18    33    1
    36    19    34    1
    37    20    35    1
    38    21    36    1
    39    22    37    1
    40    23    38    1
    41    23    39    1
    42    24    40    1
    43    24    41    1
@<TRIPOS>SUBSTRUCTURE
     1 UNL1        1 TEMP              0 ****  ****    0 ROOT


