##########                                Name: HTS1710-02534528-01
##########                    Molecular_Weight:             378.341
##########                DOCK_Rotatable_Bonds:                   7
##########                       Formal_Charge:                  -2
##########                     HBond_Acceptors:                   8
##########                        HBond_Donors:                   0
##########                         Heavy_Atoms:                  28
##########                          Grid_Score:          -77.903503
##########                     Grid_vdw_energy:          -42.681637
##########                      Grid_es_energy:          -35.221863
##########           Internal_energy_repulsive:           13.256095

@<TRIPOS>MOLECULE
HTS1710-02534528-01
 42 44 1 0 0
SMALL
USER_CHARGES


@<TRIPOS>ATOM
      1 C           3.1122  -10.8291  -33.9639 C.2     1  UNL1        0.0620
      2 N           1.5901   -9.4158  -34.7466 N.am    1  UNL1       -0.1565
      3 C           1.8191  -10.2205  -33.6558 C.2     1  UNL1        0.2722
      4 N           2.6116   -9.4450  -35.6542 N.2     1  UNL1       -0.1765
      5 C           3.5492  -10.2809  -35.2276 C.2     1  UNL1        0.0690
      6 C           3.7332  -11.7110  -33.1036 C.2     1  UNL1       -0.0371
      7 C           0.4376   -8.6212  -35.0289 C.ar    1  UNL1        0.0604
      8 C           3.3917  -12.3389  -31.7971 C.ar    1  UNL1        0.0175
      9 C          -3.0706   -6.1884  -35.8855 C.2     1  UNL1        0.0717
     10 O           1.1044  -10.3715  -32.6783 O.2     1  UNL1       -0.2678
     11 C          -1.8508   -7.0330  -35.5864 C.ar    1  UNL1       -0.0026
     12 C           3.6079   -8.8431  -29.5466 C.2     1  UNL1        0.0789
     13 C           3.8645  -11.8260  -30.5659 C.ar    1  UNL1        0.1282
     14 O           4.7501  -10.7661  -30.5821 O.3     1  UNL1       -0.4856
     15 O          -2.8879   -5.0855  -36.3738 O.co2   1  UNL1       -0.5446
     16 O           3.8644   -9.3207  -28.4548 O.co2   1  UNL1       -0.5463
     17 C          -0.6964   -8.6822  -34.1954 C.ar    1  UNL1       -0.0378
     18 C           0.4197   -7.7560  -36.1387 C.ar    1  UNL1       -0.0378
     19 C          -1.8282   -7.8977  -34.4714 C.ar    1  UNL1       -0.0511
     20 C          -0.7111   -6.9715  -36.4147 C.ar    1  UNL1       -0.0511
     21 C           4.3484   -9.3931  -30.7755 C.3     1  UNL1        0.1287
     22 O          -4.1620   -6.6607  -35.6187 O.co2   1  UNL1       -0.5446
     23 O           2.8052   -7.9503  -29.7548 O.co2   1  UNL1       -0.5463
     24 C           4.9393  -10.3978  -35.8048 C.3     1  UNL1       -0.0201
     25 C           2.6573  -13.5408  -31.8023 C.ar    1  UNL1       -0.0511
     26 C           3.5167  -12.4707  -29.3572 C.ar    1  UNL1       -0.0193
     27 C           2.3157  -14.1771  -30.5998 C.ar    1  UNL1       -0.0610
     28 C           2.7323  -13.6338  -29.3774 C.ar    1  UNL1       -0.0583
     29 H           4.6592  -12.0075  -33.4495 H       1  UNL1        0.0633
     30 H          -0.6955   -9.3085  -33.3751 H       1  UNL1        0.0637
     31 H           1.2454   -7.6977  -36.7550 H       1  UNL1        0.0637
     32 H          -2.6520   -7.9542  -33.8523 H       1  UNL1        0.0625
     33 H          -0.7084   -6.3427  -37.2331 H       1  UNL1        0.0625
     34 H           5.2198   -8.7976  -30.9514 H       1  UNL1        0.0760
     35 H           3.6836   -9.3533  -31.6129 H       1  UNL1        0.0760
     36 H           5.4849  -11.1484  -35.2719 H       1  UNL1        0.0293
     37 H           5.4435   -9.4584  -35.7140 H       1  UNL1        0.0293
     38 H           4.8749  -10.6696  -36.8378 H       1  UNL1        0.0293
     39 H           2.3673  -13.9579  -32.7007 H       1  UNL1        0.0625
     40 H           3.8408  -12.0846  -28.4567 H       1  UNL1        0.0654
     41 H           1.7577  -15.0451  -30.6155 H       1  UNL1        0.0618
     42 H           2.4621  -14.0893  -28.4917 H       1  UNL1        0.0619
@<TRIPOS>BOND
     1     1     3    1
     2     1     5    1
     3     1     6    2
     4     2     3   am
     5     2     4    1
     6     2     7    1
     7     3    10    2
     8     4     5    2
     9     5    24    1
    10     6     8    1
    11     7    17   ar
    12     7    18   ar
    13     8    13   ar
    14     8    25   ar
    15     9    11    1
    16     9    15   ar
    17     9    22   ar
    18    11    19   ar
    19    11    20   ar
    20    12    16   ar
    21    12    21    1
    22    12    23   ar
    23    13    14    1
    24    13    26   ar
    25    14    21    1
    26    17    19   ar
    27    18    20   ar
    28    25    27   ar
    29    26    28   ar
    30    27    28   ar
    31     6    29    1
    32    17    30    1
    33    18    31    1
    34    19    32    1
    35    20    33    1
    36    21    34    1
    37    21    35    1
    38    24    36    1
    39    24    37    1
    40    24    38    1
    41    25    39    1
    42    26    40    1
    43    27    41    1
    44    28    42    1
@<TRIPOS>SUBSTRUCTURE
     1 UNL1        1 TEMP              0 ****  ****    0 ROOT


