HTS1710-00606779-01
 OpenBabel03232612353D

 39 40  0  0  1  0  0  0  0  0999 V2000
    2.9652  -10.3584  -32.4272 N   0  0  0  0  0  0  0  0  0  0  0  0
    2.1605   -9.5328  -33.2106 C   0  0  0  0  0  0  0  0  0  0  0  0
    3.7199   -9.8383  -31.2531 C   0  0  2  0  0  0  0  0  0  0  0  0
    3.0248  -11.6760  -32.8686 C   0  0  0  0  0  0  0  0  0  0  0  0
    1.5586  -10.3071  -34.3214 C   0  0  0  0  0  0  0  0  0  0  0  0
    1.9847   -8.3428  -33.0025 O   0  0  0  0  0  0  0  0  0  0  0  0
    2.8109   -9.0454  -30.2632 C   0  0  0  0  0  0  0  0  0  0  0  0
    4.9764   -9.0701  -31.7231 C   0  0  0  0  0  0  0  0  0  0  0  0
    2.0403  -11.9908  -34.3266 S   0  0  0  0  0  0  0  0  0  0  0  0
    3.9442  -12.9017  -32.1884 S   0  0  0  0  0  0  0  0  0  0  0  0
    0.7016   -9.7153  -35.2278 C   0  0  0  0  0  0  0  0  0  0  0  0
    3.2415   -9.2140  -28.7841 C   0  0  0  0  0  0  0  0  0  0  0  0
    5.5160   -9.4718  -32.7402 O   0  5  0  0  0  0  0  0  0  0  0  0
    5.3581   -8.1207  -31.0585 O   0  0  0  0  0  0  0  0  0  0  0  0
    0.1410   -8.3450  -35.4463 C   0  0  0  0  0  0  0  0  0  0  0  0
    3.2188  -10.6827  -28.3438 C   0  0  0  0  0  0  0  0  0  0  0  0
   -0.5755   -7.7444  -34.3888 C   0  0  0  0  0  0  0  0  0  0  0  0
    0.2967   -7.6238  -36.6496 C   0  0  0  0  0  0  0  0  0  0  0  0
    2.1713  -11.1134  -27.8927 O   0  5  0  0  0  0  0  0  0  0  0  0
    4.2428  -11.3277  -28.4933 O   0  0  0  0  0  0  0  0  0  0  0  0
   -1.1331   -6.4539  -34.5277 C   0  0  0  0  0  0  0  0  0  0  0  0
   -0.2515   -6.3398  -36.7905 C   0  0  0  0  0  0  0  0  0  0  0  0
   -0.9645   -5.7538  -35.7359 C   0  0  0  0  0  0  0  0  0  0  0  0
   -1.8461   -5.8486  -33.5069 O   0  0  0  0  0  0  0  0  0  0  0  0
   -1.4939   -4.5035  -35.8889 O   0  0  0  0  0  0  0  0  0  0  0  0
   -2.4219   -6.5762  -32.4079 C   0  0  0  0  0  0  0  0  0  0  0  0
    4.0694  -10.6674  -30.6742 H   0  0  0  0  0  0  0  0  0  0  0  0
    1.8051   -9.3951  -30.3681 H   0  0  0  0  0  0  0  0  0  0  0  0
    2.8984   -8.0073  -30.5073 H   0  0  0  0  0  0  0  0  0  0  0  0
    0.3617  -10.3879  -35.9329 H   0  0  0  0  0  0  0  0  0  0  0  0
    2.5713   -8.6568  -28.1634 H   0  0  0  0  0  0  0  0  0  0  0  0
    4.2452   -8.8555  -28.6888 H   0  0  0  0  0  0  0  0  0  0  0  0
   -0.6938   -8.2561  -33.5004 H   0  0  0  0  0  0  0  0  0  0  0  0
    0.8189   -8.0450  -37.4338 H   0  0  0  0  0  0  0  0  0  0  0  0
   -0.1288   -5.8240  -37.6759 H   0  0  0  0  0  0  0  0  0  0  0  0
   -1.4055   -4.0542  -36.7063 H   0  0  0  0  0  0  0  0  0  0  0  0
   -2.9211   -5.8945  -31.7513 H   0  0  0  0  0  0  0  0  0  0  0  0
   -1.6479   -7.0850  -31.8724 H   0  0  0  0  0  0  0  0  0  0  0  0
   -3.1252   -7.2903  -32.7825 H   0  0  0  0  0  0  0  0  0  0  0  0
  1  2  1  0  0  0  0
  1  3  1  0  0  0  0
  1  4  1  0  0  0  0
  2  5  1  0  0  0  0
  2  6  2  0  0  0  0
  3  7  1  0  0  0  0
  3  8  1  0  0  0  0
  3 27  1  1  0  0  0
  4  9  1  0  0  0  0
  4 10  2  0  0  0  0
  5 11  2  0  0  0  0
  5  9  1  0  0  0  0
  7 12  1  0  0  0  0
  7 28  1  0  0  0  0
  7 29  1  0  0  0  0
  8 13  1  0  0  0  0
  8 14  2  0  0  0  0
 11 15  1  0  0  0  0
 11 30  1  0  0  0  0
 12 16  1  0  0  0  0
 12 31  1  0  0  0  0
 12 32  1  0  0  0  0
 15 17  2  0  0  0  0
 15 18  1  0  0  0  0
 16 19  1  0  0  0  0
 16 20  2  0  0  0  0
 17 21  1  0  0  0  0
 17 33  1  0  0  0  0
 18 22  2  0  0  0  0
 18 34  1  0  0  0  0
 21 23  2  0  0  0  0
 21 24  1  0  0  0  0
 22 23  1  0  0  0  0
 22 35  1  0  0  0  0
 23 25  1  0  0  0  0
 24 26  1  0  0  0  0
 25 36  1  0  0  0  0
 26 37  1  0  0  0  0
 26 38  1  0  0  0  0
 26 39  1  0  0  0  0
M  CHG  2  13  -1  19  -1
M  END
$$$$
