##########                                Name: HTS1710-04798953-01
##########                    Molecular_Weight:             327.316
##########                DOCK_Rotatable_Bonds:                   6
##########                       Formal_Charge:                  -2
##########                     HBond_Acceptors:                   7
##########                        HBond_Donors:                   1
##########                         Heavy_Atoms:                  24
##########                          Grid_Score:          -75.983444
##########                     Grid_vdw_energy:          -40.817780
##########                      Grid_es_energy:          -35.165668
##########           Internal_energy_repulsive:            4.837109

@<TRIPOS>MOLECULE
HTS1710-04798953-01
 39 41 1 0 0
SMALL
USER_CHARGES


@<TRIPOS>ATOM
      1 C           5.9982   -7.9128  -33.1937 C.2     1  UNL1       -0.0170
      2 N           4.6037  -13.5767  -28.6747 N.am    1  UNL1       -0.2953
      3 C           3.4397  -12.9381  -28.2934 C.2     1  UNL1        0.2177
      4 C           5.1125   -9.7614  -32.3620 C.2     1  UNL1       -0.0302
      5 C           5.4546   -9.1713  -33.5501 C.2     1  UNL1       -0.0558
      6 C           4.5339  -11.1126  -32.2308 C.2     1  UNL1        0.2305
      7 O           5.3731   -8.9932  -31.2537 O.co2   1  UNL1       -0.7816
      8 C           5.9153   -7.8692  -31.8244 C.2     1  UNL1       -0.1247
      9 C           2.5650  -12.7150  -29.5246 C.3     1  UNL1        0.0440
     10 C           6.5407   -6.8817  -34.0982 C.2     1  UNL1        0.0706
     11 N           4.1563  -11.5358  -30.9629 N.am    1  UNL1       -0.3075
     12 C           3.5677  -12.8585  -30.6953 C.3     1  UNL1        0.0473
     13 C           4.6486  -13.8034  -30.1195 C.3     1  UNL1        0.0339
     14 C           5.8735  -13.4941  -27.9333 C.3     1  UNL1        0.0398
     15 O           3.1891  -12.5412  -27.1676 O.2     1  UNL1       -0.2755
     16 O           4.3935  -11.8601  -33.1851 O.2     1  UNL1       -0.2714
     17 O           6.8351   -5.8032  -33.6122 O.co2   1  UNL1       -0.5447
     18 O           6.6613   -7.1743  -35.2753 O.co2   1  UNL1       -0.5447
     19 C           6.2353  -14.8207  -27.2723 C.ar    1  UNL1       -0.0301
     20 C           7.5743  -15.1108  -26.9524 C.ar    1  UNL1       -0.0571
     21 C           5.2400  -15.7831  -27.0173 C.ar    1  UNL1       -0.0571
     22 C           5.5807  -17.0214  -26.4504 C.ar    1  UNL1       -0.0615
     23 C           7.9143  -16.3479  -26.3816 C.ar    1  UNL1       -0.0615
     24 C           6.9177  -17.3043  -26.1322 C.ar    1  UNL1       -0.0617
     25 H           5.3408   -9.5597  -34.4995 H       1  UNL1        0.0620
     26 H           6.2341   -7.0590  -31.2704 H       1  UNL1        0.0461
     27 H           2.1254  -11.7396  -29.5122 H       1  UNL1        0.0377
     28 H           1.7434  -13.3976  -29.5872 H       1  UNL1        0.0377
     29 H           4.2889  -10.9207  -30.2056 H       1  UNL1        0.1493
     30 H           3.1352  -13.2232  -31.6035 H       1  UNL1        0.0518
     31 H           4.4204  -14.8232  -30.3493 H       1  UNL1        0.0483
     32 H           5.6174  -13.6111  -30.5310 H       1  UNL1        0.0483
     33 H           5.7834  -12.7437  -27.1760 H       1  UNL1        0.0514
     34 H           6.6481  -13.2493  -28.6297 H       1  UNL1        0.0514
     35 H           8.3100  -14.4112  -27.1381 H       1  UNL1        0.0621
     36 H           4.2554  -15.5774  -27.2481 H       1  UNL1        0.0621
     37 H           4.8473  -17.7242  -26.2677 H       1  UNL1        0.0618
     38 H           8.8975  -16.5540  -26.1453 H       1  UNL1        0.0618
     39 H           7.1680  -18.2146  -25.7153 H       1  UNL1        0.0618
@<TRIPOS>BOND
     1     2    13    1
     2     3     9    1
     3     4     5    2
     4     1     5    1
     5     4     6    1
     6     7     8    1
     7     1     8    2
     8     9    12    1
     9     1    10    1
    10     6    11   am
    11    11    12    1
    12    12    13    1
    13     2    14    1
    14     3    15    2
    15     6    16    2
    16    10    17   ar
    17    10    18   ar
    18    14    19    1
    19    19    20   ar
    20    19    21   ar
    21    21    22   ar
    22    20    23   ar
    23    23    24   ar
    24     4     7    1
    25     2     3   am
    26    22    24   ar
    27     5    25    1
    28     8    26    1
    29     9    27    1
    30     9    28    1
    31    11    29    1
    32    12    30    1
    33    13    31    1
    34    13    32    1
    35    14    33    1
    36    14    34    1
    37    20    35    1
    38    21    36    1
    39    22    37    1
    40    23    38    1
    41    24    39    1
@<TRIPOS>SUBSTRUCTURE
     1 UNL1        1 TEMP              0 ****  ****    0 ROOT


