##########                                Name: HTS1710-00419122-01
##########                    Molecular_Weight:             368.391
##########                DOCK_Rotatable_Bonds:                   5
##########                       Formal_Charge:                  -2
##########                     HBond_Acceptors:                  10
##########                        HBond_Donors:                   4
##########                         Heavy_Atoms:                  24
##########                          Grid_Score:          -78.242203
##########                     Grid_vdw_energy:          -37.722935
##########                      Grid_es_energy:          -40.519272
##########           Internal_energy_repulsive:            9.517198

@<TRIPOS>MOLECULE
HTS1710-00419122-01
 36 37 1 0 0
SMALL
USER_CHARGES


@<TRIPOS>ATOM
      1 C           3.6602  -10.7618  -30.2968 C.ar    1  UNL1        0.0855
      2 C           3.0112  -11.1192  -31.5256 C.ar    1  UNL1       -0.0010
      3 S           3.8838   -9.0575  -29.6924 S.3     1  UNL1       -0.0506
      4 C           4.2409  -11.7816  -29.5051 C.ar    1  UNL1       -0.0166
      5 C           2.2409  -10.2233  -32.4652 C.2     1  UNL1       -0.0522
      6 C           3.0623  -12.4752  -31.9299 C.ar    1  UNL1       -0.0511
      7 O           3.8987   -9.2167  -28.2353 O.2     1  UNL1       -0.1803
      8 O           2.7235   -8.3243  -30.2097 O.2     1  UNL1       -0.1803
      9 O           5.1589   -8.6742  -30.3057 O.co2   1  UNL1       -0.7201
     10 C           4.2432  -13.1190  -29.9196 C.ar    1  UNL1        0.0264
     11 C           2.1905  -10.1153  -33.8226 C.2     1  UNL1       -0.0522
     12 C           3.6676  -13.4625  -31.1432 C.ar    1  UNL1       -0.0404
     13 N           4.8224  -14.0858  -29.1332 N.pl3   1  UNL1       -0.3579
     14 C           1.3711   -9.1685  -34.6605 C.ar    1  UNL1       -0.0010
     15 C           1.6790   -8.8807  -36.0278 C.ar    1  UNL1        0.0855
     16 C           0.2565   -8.5177  -34.0776 C.ar    1  UNL1       -0.0511
     17 S           3.0763   -9.6520  -36.9104 S.3     1  UNL1       -0.0506
     18 C           0.8789   -7.9589  -36.7413 C.ar    1  UNL1       -0.0166
     19 C          -0.5229   -7.6076  -34.8019 C.ar    1  UNL1       -0.0404
     20 O           3.0450   -9.0641  -38.2543 O.2     1  UNL1       -0.1803
     21 O           2.7401  -11.0779  -36.8582 O.2     1  UNL1       -0.1803
     22 O           4.2290   -9.2557  -36.0957 O.co2   1  UNL1       -0.7201
     23 C          -0.2112   -7.3228  -36.1337 C.ar    1  UNL1        0.0264
     24 N          -0.9688   -6.4216  -36.8437 N.pl3   1  UNL1       -0.3579
     25 H           4.6727  -11.5336  -28.6012 H       1  UNL1        0.0655
     26 H           1.6245   -9.5537  -31.9786 H       1  UNL1        0.0624
     27 H           2.6403  -12.7441  -32.8325 H       1  UNL1        0.0625
     28 H           2.7938  -10.7688  -34.3462 H       1  UNL1        0.0624
     29 H           3.6880  -14.4420  -31.4676 H       1  UNL1        0.0636
     30 H           5.2278  -13.8407  -28.2702 H       1  UNL1        0.1423
     31 H           4.8319  -15.0236  -29.4328 H       1  UNL1        0.1423
     32 H           0.0129   -8.7191  -33.0952 H       1  UNL1        0.0625
     33 H           1.1021   -7.7510  -37.7272 H       1  UNL1        0.0655
     34 H          -1.3288   -7.1466  -34.3514 H       1  UNL1        0.0636
     35 H          -0.7466   -6.2230  -37.7821 H       1  UNL1        0.1423
     36 H          -1.7336   -5.9748  -36.4138 H       1  UNL1        0.1423
@<TRIPOS>BOND
     1     1     2   ar
     2     1     3    1
     3     1     4   ar
     4     2     5    1
     5     2     6   ar
     6     3     7    2
     7     3     8    2
     8     3     9    1
     9     4    10   ar
    10     5    11    2
    11     6    12   ar
    12    10    13    1
    13    11    14    1
    14    14    15   ar
    15    14    16   ar
    16    15    17    1
    17    15    18   ar
    18    16    19   ar
    19    17    20    2
    20    17    21    2
    21    17    22    1
    22    18    23   ar
    23    23    24    1
    24    10    12   ar
    25    19    23   ar
    26     4    25    1
    27     5    26    1
    28     6    27    1
    29    11    28    1
    30    12    29    1
    31    13    30    1
    32    13    31    1
    33    16    32    1
    34    18    33    1
    35    19    34    1
    36    24    35    1
    37    24    36    1
@<TRIPOS>SUBSTRUCTURE
     1 UNL1        1 TEMP              0 ****  ****    0 ROOT


