HTS1710-05328678-01
 OpenBabel03232612353D

 42 43  0  0  1  0  0  0  0  0999 V2000
   -0.8469   -7.4511  -32.0237 C   0  0  0  0  0  0  0  0  0  0  0  0
   -0.0738   -8.2441  -32.9411 O   0  0  0  0  0  0  0  0  0  0  0  0
    0.0872   -7.9169  -34.2753 C   0  0  0  0  0  0  0  0  0  0  0  0
   -0.5006   -6.7581  -34.8308 C   0  0  0  0  0  0  0  0  0  0  0  0
   -0.3567   -6.4788  -36.1988 C   0  0  0  0  0  0  0  0  0  0  0  0
    0.3551   -7.3583  -37.0274 C   0  0  0  0  0  0  0  0  0  0  0  0
    0.9429   -8.5103  -36.4827 C   0  0  0  0  0  0  0  0  0  0  0  0
    0.8406   -8.7756  -35.1054 C   0  0  0  0  0  0  0  0  0  0  0  0
    1.4451   -9.9109  -34.5994 O   0  0  0  0  0  0  0  0  0  0  0  0
    2.0599  -10.9392  -35.4259 C   0  0  2  0  0  0  0  0  0  0  0  0
    0.9807  -11.9055  -35.9759 C   0  0  0  0  0  0  0  0  0  0  0  0
    3.2160  -11.6636  -34.6743 C   0  0  0  0  0  0  0  0  0  0  0  0
    3.7909  -10.8172  -33.6170 N   0  0  0  0  0  0  0  0  0  0  0  0
    4.6374   -9.7503  -33.8840 C   0  0  0  0  0  0  0  0  0  0  0  0
    4.9061   -9.4756  -35.0405 O   0  0  0  0  0  0  0  0  0  0  0  0
    5.1451   -8.9808  -32.7266 C   0  0  0  0  0  0  0  0  0  0  0  0
    6.1087   -7.9394  -32.7629 C   0  0  0  0  0  0  0  0  0  0  0  0
    6.2893   -7.5592  -31.4578 C   0  0  0  0  0  0  0  0  0  0  0  0
    5.5299   -8.2568  -30.5560 O   0  0  0  0  0  0  0  0  0  0  0  0
    4.8493   -9.1082  -31.3885 C   0  0  0  0  0  0  0  0  0  0  0  0
    3.8969  -10.1187  -30.7877 C   0  0  0  0  0  0  0  0  0  0  0  0
    3.8144  -10.1139  -29.2530 C   0  0  0  0  0  0  0  0  0  0  0  0
    4.4470  -10.9581  -28.6425 O   0  5  0  0  0  0  0  0  0  0  0  0
    3.1127   -9.2553  -28.7467 O   0  0  0  0  0  0  0  0  0  0  0  0
   -0.8242   -7.9035  -31.0544 H   0  0  0  0  0  0  0  0  0  0  0  0
   -1.8587   -7.3937  -32.3669 H   0  0  0  0  0  0  0  0  0  0  0  0
   -0.4331   -6.4659  -31.9673 H   0  0  0  0  0  0  0  0  0  0  0  0
   -1.0377   -6.1149  -34.2285 H   0  0  0  0  0  0  0  0  0  0  0  0
   -0.7759   -5.6235  -36.5960 H   0  0  0  0  0  0  0  0  0  0  0  0
    0.4465   -7.1586  -38.0358 H   0  0  0  0  0  0  0  0  0  0  0  0
    1.4526   -9.1657  -37.0956 H   0  0  0  0  0  0  0  0  0  0  0  0
    2.5188  -10.4737  -36.2731 H   0  0  0  0  0  0  0  0  0  0  0  0
    0.4925  -12.3965  -35.1602 H   0  0  0  0  0  0  0  0  0  0  0  0
    1.4437  -12.6358  -36.6062 H   0  0  0  0  0  0  0  0  0  0  0  0
    0.2607  -11.3515  -36.5412 H   0  0  0  0  0  0  0  0  0  0  0  0
    3.9844  -11.9116  -35.3763 H   0  0  0  0  0  0  0  0  0  0  0  0
    2.8165  -12.5445  -34.2167 H   0  0  0  0  0  0  0  0  0  0  0  0
    3.5653  -11.0163  -32.6796 H   0  0  0  0  0  0  0  0  0  0  0  0
    6.5756   -7.5500  -33.5968 H   0  0  0  0  0  0  0  0  0  0  0  0
    6.9423   -6.8105  -31.1785 H   0  0  0  0  0  0  0  0  0  0  0  0
    4.2102  -11.0934  -31.0986 H   0  0  0  0  0  0  0  0  0  0  0  0
    2.9219   -9.8495  -31.1367 H   0  0  0  0  0  0  0  0  0  0  0  0
  1  2  1  0  0  0  0
  1 25  1  0  0  0  0
  1 26  1  0  0  0  0
  1 27  1  0  0  0  0
  2  3  1  0  0  0  0
  3  4  2  0  0  0  0
  3  8  1  0  0  0  0
  4  5  1  0  0  0  0
  4 28  1  0  0  0  0
  5  6  2  0  0  0  0
  5 29  1  0  0  0  0
  6  7  1  0  0  0  0
  6 30  1  0  0  0  0
  7  8  2  0  0  0  0
  7 31  1  0  0  0  0
  8  9  1  0  0  0  0
  9 10  1  0  0  0  0
 10 11  1  0  0  0  0
 10 12  1  0  0  0  0
 10 32  1  6  0  0  0
 11 33  1  0  0  0  0
 11 34  1  0  0  0  0
 11 35  1  0  0  0  0
 12 13  1  0  0  0  0
 12 36  1  0  0  0  0
 12 37  1  0  0  0  0
 13 14  1  0  0  0  0
 13 38  1  0  0  0  0
 14 15  2  0  0  0  0
 14 16  1  0  0  0  0
 16 17  1  0  0  0  0
 16 20  2  0  0  0  0
 17 18  2  0  0  0  0
 17 39  1  0  0  0  0
 18 19  1  0  0  0  0
 18 40  1  0  0  0  0
 19 20  1  0  0  0  0
 20 21  1  0  0  0  0
 21 22  1  0  0  0  0
 21 41  1  0  0  0  0
 21 42  1  0  0  0  0
 22 23  1  0  0  0  0
 22 24  2  0  0  0  0
M  CHG  1  23  -1
M  END
$$$$
