##########                                Name: HTS1710-03158099-01
##########                    Molecular_Weight:             350.305
##########                DOCK_Rotatable_Bonds:                   6
##########                       Formal_Charge:                  -2
##########                     HBond_Acceptors:                   9
##########                        HBond_Donors:                   0
##########                         Heavy_Atoms:                  24
##########                          Grid_Score:          -76.970345
##########                     Grid_vdw_energy:          -42.179260
##########                      Grid_es_energy:          -34.791084
##########           Internal_energy_repulsive:           10.624777

@<TRIPOS>MOLECULE
HTS1710-03158099-01
 34 35 1 0 0
SMALL
USER_CHARGES


@<TRIPOS>ATOM
      1 S           4.6982  -11.8540  -35.5025 S.O2    1  UNL1        0.1510
      2 C           4.5513  -10.6110  -31.5820 C.ar    1  UNL1        0.0409
      3 C           4.5264  -11.8487  -33.7070 C.ar    1  UNL1        0.1289
      4 C           4.6791  -10.6505  -32.9919 C.ar    1  UNL1       -0.0210
      5 C           4.7298   -9.2710  -30.8721 C.2     1  UNL1        0.0752
      6 O           3.0285  -12.0886  -35.7553 O.3     1  UNL1       -0.3423
      7 C          -0.5992   -7.7083  -35.2183 C.2     1  UNL1        0.0717
      8 O           5.0327  -10.5065  -35.9728 O.2     1  UNL1       -0.1314
      9 O           5.4249  -13.0523  -35.9375 O.2     1  UNL1       -0.1314
     10 C           4.2648  -11.8282  -30.8957 C.ar    1  UNL1        0.1290
     11 C           0.3628   -8.8676  -35.3616 C.ar    1  UNL1       -0.0025
     12 O           4.5808   -9.2577  -29.6622 O.co2   1  UNL1       -0.5445
     13 O          -1.6581   -7.9196  -34.6505 O.co2   1  UNL1       -0.5446
     14 C           4.2305  -13.0346  -33.0231 C.ar    1  UNL1       -0.0299
     15 C           4.1035  -13.0256  -31.6292 C.ar    1  UNL1       -0.0174
     16 C           0.3936   -9.9024  -34.3998 C.ar    1  UNL1       -0.0494
     17 C           1.2493   -8.9354  -36.4597 C.ar    1  UNL1       -0.0494
     18 C           2.1535  -11.0369  -35.6346 C.ar    1  UNL1        0.1568
     19 O           5.0120   -8.2871  -31.5330 O.co2   1  UNL1       -0.5445
     20 O          -0.2593   -6.6322  -35.6799 O.co2   1  UNL1       -0.5446
     21 C           2.1415  -10.0110  -36.5932 C.ar    1  UNL1       -0.0164
     22 C           1.2856  -10.9791  -34.5353 C.ar    1  UNL1       -0.0164
     23 O           4.1453  -11.8358  -29.5159 O.3     1  UNL1       -0.4945
     24 C           3.9322  -13.0216  -28.7313 C.3     1  UNL1        0.0788
     25 H           4.8889   -9.7797  -33.5045 H       1  UNL1        0.0645
     26 H           4.1062  -13.9151  -33.5469 H       1  UNL1        0.0639
     27 H           3.8896  -13.9037  -31.1311 H       1  UNL1        0.0655
     28 H          -0.2452   -9.8667  -33.5901 H       1  UNL1        0.0625
     29 H           1.2408   -8.1871  -37.1703 H       1  UNL1        0.0625
     30 H           2.7887  -10.0477  -37.3962 H       1  UNL1        0.0655
     31 H           1.3018  -11.7279  -33.8253 H       1  UNL1        0.0655
     32 H           3.8755  -12.7586  -27.6956 H       1  UNL1        0.0660
     33 H           4.7453  -13.7004  -28.8828 H       1  UNL1        0.0660
     34 H           3.0173  -13.4882  -29.0314 H       1  UNL1        0.0660
@<TRIPOS>BOND
     1     1     3    1
     2     1     6    1
     3     1     8    2
     4     1     9    2
     5     2     4   ar
     6     2     5    1
     7     2    10   ar
     8     3     4   ar
     9     3    14   ar
    10     5    12   ar
    11     5    19   ar
    12     6    18    1
    13     7    11    1
    14     7    13   ar
    15     7    20   ar
    16    10    15   ar
    17    10    23    1
    18    11    16   ar
    19    11    17   ar
    20    14    15   ar
    21    16    22   ar
    22    17    21   ar
    23    18    21   ar
    24    18    22   ar
    25    23    24    1
    26     4    25    1
    27    14    26    1
    28    15    27    1
    29    16    28    1
    30    17    29    1
    31    21    30    1
    32    22    31    1
    33    24    32    1
    34    24    33    1
    35    24    34    1
@<TRIPOS>SUBSTRUCTURE
     1 UNL1        1 TEMP              0 ****  ****    0 ROOT


