##########                                Name: HTS1710-04712452-01
##########                    Molecular_Weight:             328.345
##########                DOCK_Rotatable_Bonds:                   5
##########                       Formal_Charge:                  -2
##########                     HBond_Acceptors:                   6
##########                        HBond_Donors:                   0
##########                         Heavy_Atoms:                  24
##########                          Grid_Score:          -76.104843
##########                     Grid_vdw_energy:          -37.987888
##########                      Grid_es_energy:          -38.116959
##########           Internal_energy_repulsive:            6.619396

@<TRIPOS>MOLECULE
HTS1710-04712452-01
 42 44 1 0 0
SMALL
USER_CHARGES


@<TRIPOS>ATOM
      1 O           3.0775   -9.2163  -37.2393 O.co2   1  UNL1       -0.5498
      2 C           4.0599   -9.6401  -36.6559 C.2     1  UNL1        0.0418
      3 O           5.0006   -8.9666  -36.2721 O.co2   1  UNL1       -0.5498
      4 C           4.1076  -11.1453  -36.3636 C.3     1  UNL1       -0.0129
      5 C           4.2004  -11.4327  -34.8431 C.3     1  UNL1       -0.0437
      6 C           2.9653  -10.9201  -34.0368 C.3     1  UNL1       -0.0248
      7 C           2.3541  -12.0249  -33.1525 C.3     1  UNL1       -0.0474
      8 C           3.3241  -12.4027  -32.0252 C.3     1  UNL1       -0.0368
      9 C           3.7192  -11.1810  -31.1665 C.3     1  UNL1        0.0150
     10 N           4.0504   -9.9234  -31.9079 N.am    1  UNL1       -0.2982
     11 C           3.3066   -9.6700  -33.1806 C.3     1  UNL1        0.0178
     12 C           4.8042   -8.9484  -31.2094 C.2     1  UNL1        0.2329
     13 O           5.1493   -9.1442  -30.0543 O.2     1  UNL1       -0.2712
     14 C           5.1758   -7.6568  -31.8901 C.2     1  UNL1       -0.0266
     15 C           6.1839   -7.6626  -32.8379 C.2     1  UNL1       -0.0162
     16 C           6.6488   -6.4538  -33.5259 C.2     1  UNL1        0.1851
     17 O           7.5359   -6.4671  -34.3631 O.2     1  UNL1       -0.2873
     18 C           5.9462   -5.2043  -33.1138 C.ar    1  UNL1        0.0150
     19 C           6.2720   -3.9619  -33.6947 C.ar    1  UNL1       -0.0515
     20 C           5.6009   -2.7961  -33.2915 C.ar    1  UNL1       -0.0611
     21 C           4.6016   -2.8658  -32.3100 C.ar    1  UNL1       -0.0623
     22 C           4.2734   -4.1002  -31.7290 C.ar    1  UNL1       -0.0678
     23 C           4.9426   -5.2704  -32.1279 C.ar    1  UNL1       -0.0830
     24 O           4.5893   -6.4638  -31.5244 O.co2   1  UNL1       -0.7765
     25 H           4.9638  -11.5656  -36.8486 H       1  UNL1        0.0325
     26 H           3.2038  -11.5847  -36.7311 H       1  UNL1        0.0325
     27 H           5.0774  -10.9537  -34.4606 H       1  UNL1        0.0272
     28 H           4.2348  -12.4957  -34.7248 H       1  UNL1        0.0272
     29 H           2.2331  -10.6337  -34.7626 H       1  UNL1        0.0316
     30 H           2.1569  -12.8886  -33.7526 H       1  UNL1        0.0269
     31 H           1.4444  -11.6621  -32.7216 H       1  UNL1        0.0269
     32 H           4.2088  -12.8218  -32.4569 H       1  UNL1        0.0280
     33 H           2.8317  -13.1080  -31.3888 H       1  UNL1        0.0280
     34 H           4.5776  -11.4535  -30.5887 H       1  UNL1        0.0464
     35 H           2.8500  -10.9483  -30.5876 H       1  UNL1        0.0464
     36 H           3.9022   -9.0154  -33.7819 H       1  UNL1        0.0467
     37 H           2.3636   -9.2603  -32.8842 H       1  UNL1        0.0467
     38 H           6.6311   -8.5626  -33.0724 H       1  UNL1        0.0652
     39 H           7.0059   -3.9090  -34.4184 H       1  UNL1        0.0624
     40 H           5.8431   -1.8879  -33.7175 H       1  UNL1        0.0618
     41 H           4.1075   -2.0091  -32.0150 H       1  UNL1        0.0617
     42 H           3.5384   -4.1493  -31.0063 H       1  UNL1        0.0612
@<TRIPOS>BOND
     1     1     2   ar
     2     2     3   ar
     3     2     4    1
     4     4     5    1
     5     5     6    1
     6     6     7    1
     7     7     8    1
     8     8     9    1
     9     9    10    1
    10    10    11    1
    11     6    11    1
    12    10    12   am
    13    12    13    2
    14    12    14    1
    15    14    15    2
    16    15    16    1
    17    16    17    2
    18    16    18    1
    19    18    19   ar
    20    19    20   ar
    21    20    21   ar
    22    21    22   ar
    23    22    23   ar
    24    18    23   ar
    25    23    24    1
    26    14    24    1
    27     4    25    1
    28     4    26    1
    29     5    27    1
    30     5    28    1
    31     6    29    1
    32     7    30    1
    33     7    31    1
    34     8    32    1
    35     8    33    1
    36     9    34    1
    37     9    35    1
    38    11    36    1
    39    11    37    1
    40    15    38    1
    41    19    39    1
    42    20    40    1
    43    21    41    1
    44    22    42    1
@<TRIPOS>SUBSTRUCTURE
     1 UNL1        1 TEMP              0 ****  ****    0 ROOT


