##########                                Name: HTS1710-05334463-01
##########                    Molecular_Weight:             346.363
##########                DOCK_Rotatable_Bonds:                   7
##########                       Formal_Charge:                  -2
##########                     HBond_Acceptors:                   8
##########                        HBond_Donors:                   1
##########                         Heavy_Atoms:                  25
##########                          Grid_Score:          -78.962357
##########                     Grid_vdw_energy:          -41.331524
##########                      Grid_es_energy:          -37.630836
##########           Internal_energy_repulsive:            8.305495

@<TRIPOS>MOLECULE
HTS1710-05334463-01
 45 47 1 0 0
SMALL
USER_CHARGES


@<TRIPOS>ATOM
      1 C           4.7144   -4.8802  -31.7066 C.3     1  UNL1       -0.0623
      2 C           6.0298   -5.6712  -31.8506 C.3     1  UNL1       -0.0432
      3 C           5.7816   -7.1346  -32.1289 C.2     1  UNL1       -0.1089
      4 O           5.3277   -7.9198  -31.1032 O.co2   1  UNL1       -0.7794
      5 C           5.2012   -9.1309  -31.7332 C.2     1  UNL1       -0.0300
      6 C           5.5685   -9.1219  -33.0547 C.2     1  UNL1       -0.0556
      7 C           5.9474   -7.7824  -33.3371 C.2     1  UNL1       -0.0137
      8 C           6.3774   -7.2645  -34.6592 C.2     1  UNL1        0.0708
      9 O           6.0453   -7.9103  -35.6382 O.co2   1  UNL1       -0.5447
     10 O           7.0266   -6.2351  -34.7032 O.co2   1  UNL1       -0.5447
     11 C           4.6369  -10.2892  -31.0182 C.2     1  UNL1        0.2302
     12 O           4.5464  -10.3307  -29.8016 O.2     1  UNL1       -0.2715
     13 N           4.2385  -11.3772  -31.7823 N.am    1  UNL1       -0.3119
     14 C           3.6609  -12.5943  -31.1983 C.3     1  UNL1        0.0174
     15 C           2.2136  -12.7897  -31.7215 C.3     1  UNL1        0.0072
     16 C           1.4837  -13.9834  -31.0666 C.3     1  UNL1       -0.0225
     17 C           0.8463  -14.7531  -32.2426 C.3     1  UNL1        0.0489
     18 O           0.8774  -13.8140  -33.3285 O.3     1  UNL1       -0.3715
     19 C           2.1247  -13.1141  -33.2338 C.3     1  UNL1        0.0907
     20 C           2.1233  -11.9243  -34.1657 C.ar    1  UNL1        0.0188
     21 C           3.0575  -11.7203  -35.2075 C.ar    1  UNL1        0.0550
     22 N           2.7685  -10.5962  -35.8448 N.ar    1  UNL1       -0.1796
     23 N           1.6541  -10.0950  -35.2040 N.ar    1  UNL1       -0.2741
     24 C           1.0414   -8.8388  -35.6481 C.3     1  UNL1        0.0302
     25 C           1.2367  -10.8960  -34.1523 C.ar    1  UNL1        0.0308
     26 H           4.9362   -3.8519  -31.5109 H       1  UNL1        0.0233
     27 H           4.1432   -5.2823  -30.8961 H       1  UNL1        0.0233
     28 H           4.1508   -4.9573  -32.6128 H       1  UNL1        0.0233
     29 H           6.5880   -5.5820  -30.9421 H       1  UNL1        0.0299
     30 H           6.5715   -5.2643  -32.6788 H       1  UNL1        0.0299
     31 H           5.5693   -9.9213  -33.7075 H       1  UNL1        0.0620
     32 H           4.3481  -11.3307  -32.7597 H       1  UNL1        0.1490
     33 H           3.6445  -12.5040  -30.1323 H       1  UNL1        0.0466
     34 H           4.2558  -13.4383  -31.4786 H       1  UNL1        0.0466
     35 H           1.7691  -11.8457  -31.4844 H       1  UNL1        0.0345
     36 H           0.7301  -13.6385  -30.3899 H       1  UNL1        0.0291
     37 H           2.1484  -14.5980  -30.4962 H       1  UNL1        0.0291
     38 H          -0.1598  -15.0350  -32.0121 H       1  UNL1        0.0560
     39 H           1.3632  -15.6622  -32.4689 H       1  UNL1        0.0560
     40 H           2.9925  -13.6562  -33.5468 H       1  UNL1        0.0650
     41 H           3.8428  -12.3499  -35.4357 H       1  UNL1        0.0851
     42 H           1.5868   -8.4517  -36.4833 H       1  UNL1        0.0473
     43 H           1.0633   -8.1289  -34.8478 H       1  UNL1        0.0473
     44 H           0.0271   -9.0194  -35.9372 H       1  UNL1        0.0473
     45 H           0.4416  -10.7464  -33.5118 H       1  UNL1        0.0830
@<TRIPOS>BOND
     1     1     2    1
     2     2     3    1
     3     3     4    1
     4     4     5    1
     5     5     6    2
     6     6     7    1
     7     3     7    2
     8     7     8    1
     9     8     9   ar
    10     8    10   ar
    11     5    11    1
    12    11    12    2
    13    11    13   am
    14    13    14    1
    15    14    15    1
    16    15    16    1
    17    16    17    1
    18    17    18    1
    19    18    19    1
    20    15    19    1
    21    19    20    1
    22    20    21   ar
    23    21    22   ar
    24    22    23   ar
    25    23    24    1
    26    23    25   ar
    27    20    25   ar
    28     1    26    1
    29     1    27    1
    30     1    28    1
    31     2    29    1
    32     2    30    1
    33     6    31    1
    34    13    32    1
    35    14    33    1
    36    14    34    1
    37    15    35    1
    38    16    36    1
    39    16    37    1
    40    17    38    1
    41    17    39    1
    42    19    40    1
    43    21    41    1
    44    24    42    1
    45    24    43    1
    46    24    44    1
    47    25    45    1
@<TRIPOS>SUBSTRUCTURE
     1 UNL1        1 TEMP              0 ****  ****    0 ROOT


