HTS1710-01130495-01
 OpenBabel03232612353D

 53 55  0  0  1  0  0  0  0  0999 V2000
    7.0213   -5.2586  -34.1285 N   0  0  0  0  0  0  0  0  0  0  0  0
    5.9454   -5.8874  -32.0877 N   0  0  0  0  0  0  0  0  0  0  0  0
    6.0656   -7.4613  -33.8925 C   0  0  0  0  0  0  0  0  0  0  0  0
    5.6599   -7.1185  -32.5652 C   0  0  0  0  0  0  0  0  0  0  0  0
    6.7554   -6.4744  -34.6390 C   0  0  0  0  0  0  0  0  0  0  0  0
    6.6054   -5.0158  -32.8743 C   0  0  0  0  0  0  0  0  0  0  0  0
    5.8048   -8.6822  -34.4202 N   0  0  0  0  0  0  0  0  0  0  0  0
   -0.8085   -7.4784  -34.0625 C   0  0  0  0  0  0  0  0  0  0  0  0
    5.0004   -8.0333  -31.8180 N   0  0  0  0  0  0  0  0  0  0  0  0
   -1.2442   -6.5927  -35.0413 N   0  0  0  0  0  0  0  0  0  0  0  0
   -3.6946   -6.2473  -35.3996 C   0  0  0  0  0  0  0  0  0  0  0  0
    5.1465   -9.5707  -33.6545 C   0  0  0  0  0  0  0  0  0  0  0  0
    3.6630  -10.9517  -35.1196 N   0  0  0  0  0  0  0  0  0  0  0  0
   -2.3768   -5.6732  -34.8381 C   0  0  2  0  0  0  0  0  0  0  0  0
    0.3611   -8.3869  -34.3542 C   0  0  0  0  0  0  0  0  0  0  0  0
    4.8742  -10.9412  -34.2703 C   0  0  0  0  0  0  0  0  0  0  0  0
   -0.8242   -4.2566  -37.6794 C   0  0  0  0  0  0  0  0  0  0  0  0
    2.5696  -10.1064  -34.8716 C   0  0  0  0  0  0  0  0  0  0  0  0
   -3.6304   -7.3440  -35.9292 O   0  5  0  0  0  0  0  0  0  0  0  0
   -1.3771   -7.5047  -32.9836 O   0  0  0  0  0  0  0  0  0  0  0  0
   -4.7048   -5.5698  -35.3089 O   0  0  0  0  0  0  0  0  0  0  0  0
    4.7473   -9.2424  -32.3504 C   0  0  0  0  0  0  0  0  0  0  0  0
   -0.3779   -3.2113  -38.1189 O   0  5  0  0  0  0  0  0  0  0  0  0
    7.1786   -6.7324  -35.9240 N   0  0  0  0  0  0  0  0  0  0  0  0
    1.0598   -8.3121  -35.5763 C   0  0  0  0  0  0  0  0  0  0  0  0
    0.7782   -9.3296  -33.3956 C   0  0  0  0  0  0  0  0  0  0  0  0
    2.1503   -9.1594  -35.8298 C   0  0  0  0  0  0  0  0  0  0  0  0
    1.8671  -10.1784  -33.6512 C   0  0  0  0  0  0  0  0  0  0  0  0
    6.8762   -3.7775  -32.3507 N   0  0  0  0  0  0  0  0  0  0  0  0
   -2.0427   -4.2803  -35.4385 C   0  0  0  0  0  0  0  0  0  0  0  0
   -2.1886   -4.1998  -36.9802 C   0  0  0  0  0  0  0  0  0  0  0  0
   -0.2687   -5.3402  -37.7327 O   0  0  0  0  0  0  0  0  0  0  0  0
    3.5803  -12.0828  -36.0644 C   0  0  0  0  0  0  0  0  0  0  0  0
   -0.7759   -6.5795  -35.9072 H   0  0  0  0  0  0  0  0  0  0  0  0
   -2.5310   -5.5553  -33.7858 H   0  0  0  0  0  0  0  0  0  0  0  0
    5.7154  -11.2212  -34.8693 H   0  0  0  0  0  0  0  0  0  0  0  0
    4.7142  -11.6313  -33.4683 H   0  0  0  0  0  0  0  0  0  0  0  0
    4.2467   -9.9461  -31.7854 H   0  0  0  0  0  0  0  0  0  0  0  0
    7.0030   -7.6105  -36.3331 H   0  0  0  0  0  0  0  0  0  0  0  0
    7.6567   -6.0388  -36.4334 H   0  0  0  0  0  0  0  0  0  0  0  0
    0.7671   -7.6280  -36.2914 H   0  0  0  0  0  0  0  0  0  0  0  0
    0.2783   -9.3976  -32.4953 H   0  0  0  0  0  0  0  0  0  0  0  0
    2.6517   -9.0885  -36.7290 H   0  0  0  0  0  0  0  0  0  0  0  0
    2.1571  -10.8641  -32.9365 H   0  0  0  0  0  0  0  0  0  0  0  0
    6.5895   -3.5568  -31.4351 H   0  0  0  0  0  0  0  0  0  0  0  0
    7.3571   -3.1093  -32.8905 H   0  0  0  0  0  0  0  0  0  0  0  0
   -1.0317   -4.0393  -35.1842 H   0  0  0  0  0  0  0  0  0  0  0  0
   -2.7499   -3.5909  -35.0268 H   0  0  0  0  0  0  0  0  0  0  0  0
   -2.7855   -5.0219  -37.3161 H   0  0  0  0  0  0  0  0  0  0  0  0
   -2.6517   -3.2668  -37.2246 H   0  0  0  0  0  0  0  0  0  0  0  0
    4.5226  -12.5886  -36.0986 H   0  0  0  0  0  0  0  0  0  0  0  0
    3.3367  -11.7159  -37.0396 H   0  0  0  0  0  0  0  0  0  0  0  0
    2.8215  -12.7638  -35.7398 H   0  0  0  0  0  0  0  0  0  0  0  0
  1  5  2  0  0  0  0
  1  6  1  0  0  0  0
  2  6  2  0  0  0  0
  2  4  1  0  0  0  0
  3  5  1  0  0  0  0
  3  7  2  0  0  0  0
  3  4  1  0  0  0  0
  4  9  2  0  0  0  0
  5 24  1  0  0  0  0
  6 29  1  0  0  0  0
  7 12  1  0  0  0  0
  8 15  1  0  0  0  0
  8 10  1  0  0  0  0
  8 20  2  0  0  0  0
  9 22  1  0  0  0  0
 10 14  1  0  0  0  0
 10 34  1  0  0  0  0
 11 14  1  0  0  0  0
 11 19  1  0  0  0  0
 11 21  2  0  0  0  0
 12 16  1  0  0  0  0
 12 22  2  0  0  0  0
 13 16  1  0  0  0  0
 13 18  1  0  0  0  0
 13 33  1  0  0  0  0
 14 30  1  0  0  0  0
 14 35  1  1  0  0  0
 15 26  2  0  0  0  0
 15 25  1  0  0  0  0
 16 36  1  0  0  0  0
 16 37  1  0  0  0  0
 17 31  1  0  0  0  0
 17 23  1  0  0  0  0
 17 32  2  0  0  0  0
 18 27  1  0  0  0  0
 18 28  2  0  0  0  0
 22 38  1  0  0  0  0
 24 39  1  0  0  0  0
 24 40  1  0  0  0  0
 25 27  2  0  0  0  0
 25 41  1  0  0  0  0
 26 28  1  0  0  0  0
 26 42  1  0  0  0  0
 27 43  1  0  0  0  0
 28 44  1  0  0  0  0
 29 45  1  0  0  0  0
 29 46  1  0  0  0  0
 30 31  1  0  0  0  0
 30 47  1  0  0  0  0
 30 48  1  0  0  0  0
 31 49  1  0  0  0  0
 31 50  1  0  0  0  0
 33 51  1  0  0  0  0
 33 52  1  0  0  0  0
 33 53  1  0  0  0  0
M  CHG  2  19  -1  23  -1
M  END
$$$$
