##########                                Name: HTS1710-05420882-01
##########                    Molecular_Weight:             299.324
##########                DOCK_Rotatable_Bonds:                   9
##########                       Formal_Charge:                  -2
##########                     HBond_Acceptors:                   7
##########                        HBond_Donors:                   1
##########                         Heavy_Atoms:                  21
##########                          Grid_Score:          -76.760521
##########                     Grid_vdw_energy:          -40.505886
##########                      Grid_es_energy:          -36.254635
##########           Internal_energy_repulsive:           10.934429

@<TRIPOS>MOLECULE
HTS1710-05420882-01
 42 42 1 0 0
SMALL
USER_CHARGES


@<TRIPOS>ATOM
      1 C           0.3400   -8.9707  -34.5428 C.3     1  UNL1       -0.0627
      2 C           1.4784   -9.9884  -34.8117 C.3     1  UNL1       -0.0464
      3 C           0.8892  -11.3448  -35.2706 C.3     1  UNL1       -0.0627
      4 C           2.4011  -10.1941  -33.5695 C.3     1  UNL1       -0.0461
      5 C           3.7090  -11.0118  -33.8237 C.3     1  UNL1       -0.0201
      6 C           3.6674  -12.4413  -33.2030 C.3     1  UNL1        0.0149
      7 N           4.0510  -12.4127  -31.7843 N.am    1  UNL1       -0.3123
      8 C           3.1461  -12.5613  -30.7409 C.2     1  UNL1        0.2508
      9 O           1.9603  -12.7236  -30.9784 O.2     1  UNL1       -0.2722
     10 C           3.6963  -12.5092  -29.3024 C.3     1  UNL1        0.1834
     11 C           2.9797  -13.5440  -28.3891 C.3     1  UNL1       -0.0077
     12 C           4.0794  -14.0768  -27.4517 C.3     1  UNL1       -0.0260
     13 C           5.3716  -13.3979  -27.9353 C.3     1  UNL1        0.0496
     14 O           5.0602  -12.9928  -29.2780 O.3     1  UNL1       -0.3583
     15 C           3.6168  -11.0585  -28.7433 C.2     1  UNL1        0.0824
     16 O           4.5574  -10.3149  -28.9708 O.co2   1  UNL1       -0.5463
     17 O           2.6017  -10.7302  -28.1532 O.co2   1  UNL1       -0.5463
     18 C           4.9473  -10.2024  -33.3316 C.3     1  UNL1       -0.0089
     19 C           5.3587   -9.0553  -34.2712 C.2     1  UNL1        0.0421
     20 O           4.9913   -9.1135  -35.4324 O.co2   1  UNL1       -0.5498
     21 O           6.0341   -8.1606  -33.7913 O.co2   1  UNL1       -0.5498
     22 H          -0.2606   -8.8668  -35.4222 H       1  UNL1        0.0232
     23 H           0.7629   -8.0221  -34.2856 H       1  UNL1        0.0232
     24 H          -0.2680   -9.3209  -33.7349 H       1  UNL1        0.0232
     25 H           2.0861   -9.5807  -35.5924 H       1  UNL1        0.0296
     26 H           0.2815  -11.7522  -34.4897 H       1  UNL1        0.0232
     27 H           1.6863  -12.0231  -35.4930 H       1  UNL1        0.0232
     28 H           0.2924  -11.1965  -36.1463 H       1  UNL1        0.0232
     29 H           1.8340  -10.7056  -32.8201 H       1  UNL1        0.0271
     30 H           2.7212   -9.2153  -33.2790 H       1  UNL1        0.0271
     31 H           3.7922  -11.1628  -34.8798 H       1  UNL1        0.0319
     32 H           4.3461  -13.0738  -33.7361 H       1  UNL1        0.0465
     33 H           2.6678  -12.8156  -33.2776 H       1  UNL1        0.0465
     34 H           5.0009  -12.2810  -31.5614 H       1  UNL1        0.1488
     35 H           2.5661  -14.3389  -28.9738 H       1  UNL1        0.0302
     36 H           2.1668  -13.1072  -27.8476 H       1  UNL1        0.0302
     37 H           4.1599  -15.1407  -27.5318 H       1  UNL1        0.0288
     38 H           3.8718  -13.8638  -26.4239 H       1  UNL1        0.0288
     39 H           6.1912  -14.0856  -27.9244 H       1  UNL1        0.0560
     40 H           5.6686  -12.5796  -27.3131 H       1  UNL1        0.0560
     41 H           5.7742  -10.8752  -33.2398 H       1  UNL1        0.0328
     42 H           4.6742   -9.7556  -32.3985 H       1  UNL1        0.0328
@<TRIPOS>BOND
     1     1     2    1
     2     2     3    1
     3     2     4    1
     4     4     5    1
     5     5     6    1
     6     6     7    1
     7     7     8   am
     8     8     9    2
     9     8    10    1
    10    10    11    1
    11    11    12    1
    12    12    13    1
    13    13    14    1
    14    10    14    1
    15    10    15    1
    16    15    16   ar
    17    15    17   ar
    18     5    18    1
    19    18    19    1
    20    19    20   ar
    21    19    21   ar
    22     1    22    1
    23     1    23    1
    24     1    24    1
    25     2    25    1
    26     3    26    1
    27     3    27    1
    28     3    28    1
    29     4    29    1
    30     4    30    1
    31     5    31    1
    32     6    32    1
    33     6    33    1
    34     7    34    1
    35    11    35    1
    36    11    36    1
    37    12    37    1
    38    12    38    1
    39    13    39    1
    40    13    40    1
    41    18    41    1
    42    18    42    1
@<TRIPOS>SUBSTRUCTURE
     1 UNL1        1 TEMP              0 ****  ****    0 ROOT


