##########                                Name: HTS1710-04758973-01
##########                    Molecular_Weight:             303.251
##########                DOCK_Rotatable_Bonds:                   5
##########                       Formal_Charge:                  -2
##########                     HBond_Acceptors:                   8
##########                        HBond_Donors:                   1
##########                         Heavy_Atoms:                  22
##########                          Grid_Score:          -75.396652
##########                     Grid_vdw_energy:          -35.699181
##########                      Grid_es_energy:          -39.697475
##########           Internal_energy_repulsive:            6.600322

@<TRIPOS>MOLECULE
HTS1710-04758973-01
 33 35 1 0 0
SMALL
USER_CHARGES


@<TRIPOS>ATOM
      1 O           2.2676   -9.2173  -36.6688 O.co2   1  UNL1       -0.5482
      2 C           3.4305   -9.4580  -36.9417 C.2     1  UNL1        0.0588
      3 OXT         4.1063   -8.8548  -37.7561 O.co2   1  UNL1       -0.5482
      4 CA          4.1021  -10.6161  -36.1980 C.3     1  UNL1        0.0515
      5 N           4.7367  -10.1429  -34.9589 N.am    1  UNL1       -0.3049
      6 C           4.0159   -9.6160  -33.8935 C.2     1  UNL1        0.2621
      7 O           2.8079   -9.4974  -34.0050 O.2     1  UNL1       -0.2685
      8 CA          4.7833   -9.1742  -32.6980 C.2     1  UNL1        0.1180
      9 N           5.5487   -8.0499  -32.6939 N.2     1  UNL1       -0.2654
     10 C           5.9159   -7.9174  -31.4298 C.2     1  UNL1       -0.0363
     11 O           5.4579   -8.8669  -30.5406 O.co2   1  UNL1       -0.7709
     12 C           4.7784   -9.6653  -31.4149 C.2     1  UNL1       -0.0549
     13 C           4.2188  -10.9519  -30.9575 C.ar    1  UNL1       -0.0259
     14 C           4.2481  -12.0528  -31.8411 C.ar    1  UNL1       -0.0514
     15 C           3.7117  -13.2961  -31.4671 C.ar    1  UNL1       -0.0157
     16 C           3.1092  -13.4456  -30.2120 C.ar    1  UNL1        0.1621
     17 O           2.5635  -14.6563  -29.8446 O.3     1  UNL1       -0.4849
     18 C           1.6531  -14.7066  -28.7258 C.3     1  UNL1        0.1237
     19 C           2.2215  -13.8280  -27.5874 C.3     1  UNL1        0.1237
     20 O           2.4422  -12.4980  -28.1009 O.3     1  UNL1       -0.4849
     21 C           3.0413  -12.3499  -29.3325 C.ar    1  UNL1        0.1626
     22 C           3.5685  -11.1057  -29.7133 C.ar    1  UNL1       -0.0096
     23 H           4.8475  -11.0530  -36.8291 H       1  UNL1        0.0523
     24 H           3.3560  -11.3406  -35.9462 H       1  UNL1        0.0523
     25 H           5.7163  -10.2019  -34.8802 H       1  UNL1        0.1494
     26 H           6.5184   -7.1380  -31.1227 H       1  UNL1        0.0668
     27 H           4.6702  -11.9424  -32.7763 H       1  UNL1        0.0624
     28 H           3.7616  -14.0972  -32.1157 H       1  UNL1        0.0655
     29 H           1.5542  -15.7165  -28.3867 H       1  UNL1        0.0731
     30 H           0.6905  -14.3443  -29.0213 H       1  UNL1        0.0731
     31 H           3.1469  -14.2394  -27.2419 H       1  UNL1        0.0731
     32 H           1.5313  -13.7953  -26.7705 H       1  UNL1        0.0731
     33 H           3.4801  -10.2967  -29.0787 H       1  UNL1        0.0661
@<TRIPOS>BOND
     1     1     2   ar
     2     2     3   ar
     3     2     4    1
     4     4     5    1
     5     5     6   am
     6     6     7    2
     7     6     8    1
     8     8     9    1
     9     9    10    2
    10    10    11    1
    11    11    12    1
    12     8    12    2
    13    12    13    1
    14    13    14   ar
    15    14    15   ar
    16    15    16   ar
    17    16    17    1
    18    17    18    1
    19    18    19    1
    20    19    20    1
    21    20    21    1
    22    16    21   ar
    23    21    22   ar
    24    13    22   ar
    25     4    23    1
    26     4    24    1
    27     5    25    1
    28    10    26    1
    29    14    27    1
    30    15    28    1
    31    18    29    1
    32    18    30    1
    33    19    31    1
    34    19    32    1
    35    22    33    1
@<TRIPOS>SUBSTRUCTURE
     1 UNL1        1 TEMP              0 ****  ****    0 ROOT


