##########                                Name: HTS1710-05305507-01
##########                    Molecular_Weight:             334.327
##########                DOCK_Rotatable_Bonds:                   9
##########                       Formal_Charge:                  -2
##########                     HBond_Acceptors:                  10
##########                        HBond_Donors:                   0
##########                         Heavy_Atoms:                  22
##########                          Grid_Score:          -74.906189
##########                     Grid_vdw_energy:          -38.047966
##########                      Grid_es_energy:          -36.858219
##########           Internal_energy_repulsive:            8.974850

@<TRIPOS>MOLECULE
HTS1710-05305507-01
 38 38 1 0 0
SMALL
USER_CHARGES


@<TRIPOS>ATOM
      1 C           1.2353  -14.9522  -27.2422 C.3     1  UNL1        0.0365
      2 O           1.7077  -13.9490  -28.1534 O.3     1  UNL1       -0.3817
      3 C           2.1113  -14.4598  -29.4343 C.3     1  UNL1        0.0617
      4 C           2.6834  -13.2957  -30.2729 C.3     1  UNL1        0.0443
      5 N           3.8059  -12.5891  -29.6040 N.3     1  UNL1       -0.1700
      6 C           5.0921  -13.3199  -29.4852 C.3     1  UNL1        0.0599
      7 C           5.6013  -13.4481  -28.0411 C.2     1  UNL1        0.0574
      8 O           4.7662  -13.6368  -27.1744 O.co2   1  UNL1       -0.5484
      9 O           6.8024  -13.3564  -27.8547 O.co2   1  UNL1       -0.5484
     10 S           3.7938  -10.8888  -29.4047 S.O2    1  UNL1        0.0486
     11 O           4.8422  -10.5247  -28.4467 O.2     1  UNL1       -0.1539
     12 O           2.3895  -10.5060  -29.2298 O.2     1  UNL1       -0.1539
     13 C           4.2472  -10.2592  -31.0170 C.2     1  UNL1        0.0447
     14 C           3.8117  -10.7630  -32.2160 C.2     1  UNL1       -0.0360
     15 C           4.4257   -9.9666  -33.2161 C.2     1  UNL1        0.0489
     16 C           4.2592  -10.1429  -34.6787 C.2     1  UNL1        0.3381
     17 O           5.0989  -10.7045  -35.3633 O.2     1  UNL1       -0.2450
     18 O           3.1011   -9.6272  -35.1913 O.3     1  UNL1       -0.4645
     19 C           1.8865   -9.7032  -34.4227 C.3     1  UNL1        0.0820
     20 C           5.1675   -9.0545  -32.4968 C.2     1  UNL1       -0.1059
     21 C           6.0191   -7.9499  -33.0712 C.3     1  UNL1       -0.0522
     22 O           5.1006   -9.1919  -31.1360 O.co2   1  UNL1       -0.7695
     23 H           0.9565  -14.4914  -26.3176 H       1  UNL1        0.0523
     24 H           2.0116  -15.6668  -27.0646 H       1  UNL1        0.0523
     25 H           0.3855  -15.4463  -27.6649 H       1  UNL1        0.0523
     26 H           1.2663  -14.8835  -29.9356 H       1  UNL1        0.0573
     27 H           2.8556  -15.2178  -29.3068 H       1  UNL1        0.0573
     28 H           1.8993  -12.5912  -30.4563 H       1  UNL1        0.0467
     29 H           3.0670  -13.7153  -31.1794 H       1  UNL1        0.0467
     30 H           5.8304  -12.7989  -30.0582 H       1  UNL1        0.0505
     31 H           4.9207  -14.3131  -29.8444 H       1  UNL1        0.0505
     32 H           3.1696  -11.5578  -32.3607 H       1  UNL1        0.0633
     33 H           1.0870   -9.2540  -34.9739 H       1  UNL1        0.0661
     34 H           2.0174   -9.1835  -33.4966 H       1  UNL1        0.0661
     35 H           1.6523  -10.7286  -34.2263 H       1  UNL1        0.0661
     36 H           5.9655   -7.9770  -34.1395 H       1  UNL1        0.0266
     37 H           7.0345   -8.0846  -32.7616 H       1  UNL1        0.0266
     38 H           5.6616   -7.0046  -32.7200 H       1  UNL1        0.0266
@<TRIPOS>BOND
     1     1     2    1
     2     2     3    1
     3     3     4    1
     4     4     5    1
     5     5     6    1
     6     6     7    1
     7     7     8   ar
     8     7     9   ar
     9     5    10    1
    10    10    11    2
    11    10    12    2
    12    10    13    1
    13    13    14    2
    14    14    15    1
    15    15    16    1
    16    16    17    2
    17    16    18    1
    18    18    19    1
    19    15    20    2
    20    20    21    1
    21    20    22    1
    22    13    22    1
    23     1    23    1
    24     1    24    1
    25     1    25    1
    26     3    26    1
    27     3    27    1
    28     4    28    1
    29     4    29    1
    30     6    30    1
    31     6    31    1
    32    14    32    1
    33    19    33    1
    34    19    34    1
    35    19    35    1
    36    21    36    1
    37    21    37    1
    38    21    38    1
@<TRIPOS>SUBSTRUCTURE
     1 UNL1        1 TEMP              0 ****  ****    0 ROOT


