HTS1710-01234909-01
 OpenBabel03232612353D

 41 40  0  0  0  0  0  0  0  0999 V2000
    5.4761   -8.7240  -35.4425 C   0  0  0  0  0  0  0  0  0  0  0  0
    1.9908  -13.3182  -30.8025 C   0  0  0  0  0  0  0  0  0  0  0  0
    5.7438   -7.2192  -32.0427 C   0  0  0  0  0  0  0  0  0  0  0  0
    3.7957  -10.5107  -28.9578 C   0  0  0  0  0  0  0  0  0  0  0  0
    2.4662  -12.0915  -30.3634 N   0  0  0  0  0  0  0  0  0  0  0  0
    5.5837   -8.6350  -34.0608 N   0  0  0  0  0  0  0  0  0  0  0  0
    6.0549   -7.9227  -36.1573 O   0  0  0  0  0  0  0  0  0  0  0  0
    2.2940  -14.3390  -30.2064 O   0  0  0  0  0  0  0  0  0  0  0  0
    4.9679   -6.2789  -32.0308 O   0  5  0  0  0  0  0  0  0  0  0  0
    4.6809  -10.0638  -29.6690 O   0  5  0  0  0  0  0  0  0  0  0  0
    6.3700   -7.5915  -33.3905 C   0  0  0  0  0  0  0  0  0  0  0  0
    3.3357  -11.9604  -29.1868 C   0  0  0  0  0  0  0  0  0  0  0  0
    6.0618   -7.8873  -31.0741 O   0  0  0  0  0  0  0  0  0  0  0  0
    3.2336   -9.9000  -28.0670 O   0  0  0  0  0  0  0  0  0  0  0  0
    4.6288   -9.8538  -36.0361 C   0  0  0  0  0  0  0  0  0  0  0  0
    1.0894  -13.3477  -32.0410 C   0  0  0  0  0  0  0  0  0  0  0  0
    1.2884  -12.1108  -32.9539 C   0  0  0  0  0  0  0  0  0  0  0  0
    3.3079  -10.0666  -35.2586 C   0  0  0  0  0  0  0  0  0  0  0  0
    0.9835  -12.4071  -34.4428 C   0  0  0  0  0  0  0  0  0  0  0  0
    2.2926  -10.9112  -36.0651 C   0  0  0  0  0  0  0  0  0  0  0  0
    0.9649  -11.1184  -35.2986 C   0  0  0  0  0  0  0  0  0  0  0  0
    2.2118  -11.2793  -30.8581 H   0  0  0  0  0  0  0  0  0  0  0  0
    5.1130   -9.2995  -33.5074 H   0  0  0  0  0  0  0  0  0  0  0  0
    7.3642   -7.9517  -33.2276 H   0  0  0  0  0  0  0  0  0  0  0  0
    6.3862   -6.7214  -34.0129 H   0  0  0  0  0  0  0  0  0  0  0  0
    2.7976  -12.2909  -28.3230 H   0  0  0  0  0  0  0  0  0  0  0  0
    4.2076  -12.5570  -29.3566 H   0  0  0  0  0  0  0  0  0  0  0  0
    5.1955  -10.7609  -36.0069 H   0  0  0  0  0  0  0  0  0  0  0  0
    4.3781   -9.5825  -37.0403 H   0  0  0  0  0  0  0  0  0  0  0  0
    0.0687  -13.3768  -31.7211 H   0  0  0  0  0  0  0  0  0  0  0  0
    1.3499  -14.2155  -32.6103 H   0  0  0  0  0  0  0  0  0  0  0  0
    2.3043  -11.7852  -32.8715 H   0  0  0  0  0  0  0  0  0  0  0  0
    0.6018  -11.3573  -32.6288 H   0  0  0  0  0  0  0  0  0  0  0  0
    2.8732   -9.1120  -35.0476 H   0  0  0  0  0  0  0  0  0  0  0  0
    3.5359  -10.5950  -34.3566 H   0  0  0  0  0  0  0  0  0  0  0  0
    0.0268  -12.8812  -34.5116 H   0  0  0  0  0  0  0  0  0  0  0  0
    1.7585  -13.0420  -34.8187 H   0  0  0  0  0  0  0  0  0  0  0  0
    2.7255  -11.8682  -36.2690 H   0  0  0  0  0  0  0  0  0  0  0  0
    2.0709  -10.3832  -36.9689 H   0  0  0  0  0  0  0  0  0  0  0  0
    0.8030  -10.2789  -34.6552 H   0  0  0  0  0  0  0  0  0  0  0  0
    0.1791  -11.2118  -36.0188 H   0  0  0  0  0  0  0  0  0  0  0  0
  1  6  1  0  0  0  0
  1  7  2  0  0  0  0
  1 15  1  0  0  0  0
  2 16  1  0  0  0  0
  2  5  1  0  0  0  0
  2  8  2  0  0  0  0
  3 11  1  0  0  0  0
  3  9  1  0  0  0  0
  3 13  2  0  0  0  0
  4 12  1  0  0  0  0
  4 10  1  0  0  0  0
  4 14  2  0  0  0  0
  5 12  1  0  0  0  0
  5 22  1  0  0  0  0
  6 11  1  0  0  0  0
  6 23  1  0  0  0  0
 11 24  1  0  0  0  0
 11 25  1  0  0  0  0
 12 26  1  0  0  0  0
 12 27  1  0  0  0  0
 15 18  1  0  0  0  0
 15 28  1  0  0  0  0
 15 29  1  0  0  0  0
 16 17  1  0  0  0  0
 16 30  1  0  0  0  0
 16 31  1  0  0  0  0
 17 19  1  0  0  0  0
 17 32  1  0  0  0  0
 17 33  1  0  0  0  0
 18 20  1  0  0  0  0
 18 34  1  0  0  0  0
 18 35  1  0  0  0  0
 19 21  1  0  0  0  0
 19 36  1  0  0  0  0
 19 37  1  0  0  0  0
 20 21  1  0  0  0  0
 20 38  1  0  0  0  0
 20 39  1  0  0  0  0
 21 40  1  0  0  0  0
 21 41  1  0  0  0  0
M  CHG  2   9  -1  10  -1
M  END
$$$$
