##########                                Name: HTS1710-01489149-01
##########                    Molecular_Weight:              274.23
##########                DOCK_Rotatable_Bonds:                   5
##########                       Formal_Charge:                  -3
##########                     HBond_Acceptors:                   6
##########                        HBond_Donors:                   0
##########                         Heavy_Atoms:                  20
##########                          Grid_Score:          -85.026337
##########                     Grid_vdw_energy:          -31.118814
##########                      Grid_es_energy:          -53.907520
##########           Internal_energy_repulsive:           12.342143

@<TRIPOS>MOLECULE
HTS1710-01489149-01
 30 31 1 0 0
SMALL
USER_CHARGES


@<TRIPOS>ATOM
      1 C           4.9137   -9.4059  -32.6195 C.2     1  UNL1       -0.0143
      2 C           5.4816   -8.5719  -33.5631 C.2     1  UNL1       -0.1120
      3 O           5.0979   -8.7997  -34.8596 O.co2   1  UNL1       -0.7834
      4 C           4.0748  -10.2599  -33.3828 C.2     1  UNL1       -0.0613
      5 C           5.0916   -9.4464  -31.1475 C.2     1  UNL1        0.0708
      6 C           4.2315   -9.8415  -34.6774 C.2     1  UNL1       -0.0794
      7 C          -2.2806   -7.4477  -34.7444 C.2     1  UNL1        0.0717
      8 C          -0.9457   -7.9630  -35.2376 C.ar    1  UNL1       -0.0025
      9 O           5.6627   -8.5171  -30.6044 O.co2   1  UNL1       -0.5447
     10 O          -2.5505   -7.6155  -33.5675 O.co2   1  UNL1       -0.5446
     11 C          -0.3771   -7.4631  -36.4288 C.ar    1  UNL1       -0.0494
     12 C          -0.2438   -8.9540  -34.5181 C.ar    1  UNL1       -0.0494
     13 C           3.5105  -10.4459  -35.8567 C.3     1  UNL1        0.1019
     14 O           2.7820   -9.4229  -36.5676 O.3     1  UNL1       -0.4885
     15 O           4.6513  -10.4209  -30.5634 O.co2   1  UNL1       -0.5447
     16 C           1.5584   -8.9229  -36.1598 C.ar    1  UNL1        0.1210
     17 O          -3.0057   -6.8943  -35.5541 O.co2   1  UNL1       -0.5446
     18 C           0.8613   -7.9373  -36.8891 C.ar    1  UNL1       -0.0193
     19 C           0.9955   -9.4286  -34.9782 C.ar    1  UNL1       -0.0193
     20 C           6.4585   -7.4588  -33.2779 C.3     1  UNL1       -0.0524
     21 H           3.4779  -11.0277  -33.0376 H       1  UNL1        0.0616
     22 H          -0.8781   -6.7399  -36.9682 H       1  UNL1        0.0625
     23 H          -0.6448   -9.3332  -33.6461 H       1  UNL1        0.0625
     24 H           2.8262  -11.1915  -35.5094 H       1  UNL1        0.0736
     25 H           4.2268  -10.8894  -36.5163 H       1  UNL1        0.0736
     26 H           1.2627   -7.5637  -37.7634 H       1  UNL1        0.0654
     27 H           1.4960  -10.1552  -34.4429 H       1  UNL1        0.0654
     28 H           6.6517   -7.4145  -32.2264 H       1  UNL1        0.0266
     29 H           6.0437   -6.5279  -33.6038 H       1  UNL1        0.0266
     30 H           7.3733   -7.6443  -33.8011 H       1  UNL1        0.0266
@<TRIPOS>BOND
     1     1     2    2
     2     2     3    1
     3     1     4    1
     4     1     5    1
     5     4     6    2
     6     7     8    1
     7     8    12   ar
     8     5     9   ar
     9     7    10   ar
    10    11    18   ar
    11    12    19   ar
    12     6    13    1
    13    13    14    1
    14     5    15   ar
    15    14    16    1
    16     7    17   ar
    17    16    18   ar
    18    16    19   ar
    19     2    20    1
    20     3     6    1
    21     8    11   ar
    22     4    21    1
    23    11    22    1
    24    12    23    1
    25    13    24    1
    26    13    25    1
    27    18    26    1
    28    19    27    1
    29    20    28    1
    30    20    29    1
    31    20    30    1
@<TRIPOS>SUBSTRUCTURE
     1 UNL1        1 TEMP              0 ****  ****    0 ROOT


