##########                                Name: HTS1710-04447162-01
##########                    Molecular_Weight:             352.388
##########                DOCK_Rotatable_Bonds:                   9
##########                       Formal_Charge:                  -2
##########                     HBond_Acceptors:                   8
##########                        HBond_Donors:                   0
##########                         Heavy_Atoms:                  24
##########                          Grid_Score:          -75.843040
##########                     Grid_vdw_energy:          -43.776340
##########                      Grid_es_energy:          -32.066700
##########           Internal_energy_repulsive:            6.008128

@<TRIPOS>MOLECULE
HTS1710-04447162-01
 42 43 1 0 0
SMALL
USER_CHARGES


@<TRIPOS>ATOM
      1 C           4.5541  -10.7851  -33.9680 C.ar    1  UNL1        0.0672
      2 C           3.7819  -11.9599  -33.4282 C.2     1  UNL1        0.2531
      3 C           2.4497  -12.8828  -29.0891 C.ar    1  UNL1        0.1504
      4 O           2.2290  -12.2133  -30.2688 O.2     1  UNL1       -0.4569
      5 C           4.9354   -9.7039  -33.1907 C.ar    1  UNL1       -0.0774
      6 N           2.4150  -11.8120  -33.0953 N.am    1  UNL1       -0.2876
      7 C           1.9656  -13.2558  -31.1133 C.ar    1  UNL1        0.1230
      8 S           4.9972  -10.4538  -35.6517 S.2     1  UNL1       -0.0927
      9 C           2.7943  -12.1451  -27.8516 C.2     1  UNL1        0.1069
     10 C           2.3261  -14.2501  -29.1859 C.ar    1  UNL1       -0.0144
     11 C           2.0007  -14.5002  -30.5408 C.ar    1  UNL1       -0.0185
     12 C           5.6060   -8.6593  -33.9017 C.ar    1  UNL1       -0.0609
     13 C           5.7301   -8.9143  -35.2390 C.ar    1  UNL1       -0.0242
     14 C           1.6655  -12.9824  -32.5629 C.3     1  UNL1        0.0730
     15 O           4.3376  -13.0342  -33.2673 O.2     1  UNL1       -0.2694
     16 O           3.0135  -12.7971  -26.8464 O.co2   1  UNL1       -0.5416
     17 O           2.8386  -10.9283  -27.9136 O.co2   1  UNL1       -0.5416
     18 O           4.7183   -9.6280  -31.8358 O.co2   1  UNL1       -0.8031
     19 C           1.5213  -10.6730  -33.4336 C.3     1  UNL1        0.0389
     20 O          -0.0939   -9.7762  -35.0388 O.3     1  UNL1       -0.3785
     21 C           0.9730  -10.7369  -34.8882 C.3     1  UNL1        0.0634
     22 C           0.2398   -8.3987  -34.7607 C.3     1  UNL1        0.0449
     23 C           5.1325   -8.4965  -31.0501 C.3     1  UNL1       -0.1135
     24 C          -0.9222   -7.4869  -35.2174 C.3     1  UNL1       -0.0416
     25 H           2.4452  -14.9446  -28.4319 H       1  UNL1        0.0656
     26 H           1.8291  -15.4115  -30.9938 H       1  UNL1        0.0652
     27 H           5.9598   -7.8009  -33.4512 H       1  UNL1        0.0617
     28 H           6.1926   -8.2860  -35.9146 H       1  UNL1        0.0693
     29 H           0.6174  -12.7929  -32.6654 H       1  UNL1        0.0545
     30 H           1.9695  -13.8420  -33.1228 H       1  UNL1        0.0545
     31 H           2.0714   -9.7626  -33.3169 H       1  UNL1        0.0487
     32 H           0.6804  -10.7210  -32.7738 H       1  UNL1        0.0487
     33 H           1.7594  -10.5085  -35.5768 H       1  UNL1        0.0575
     34 H           0.6008  -11.7200  -35.0879 H       1  UNL1        0.0575
     35 H           1.1310   -8.1334  -35.2900 H       1  UNL1        0.0557
     36 H           0.3998   -8.2748  -33.7100 H       1  UNL1        0.0557
     37 H           4.8616   -8.6543  -30.0270 H       1  UNL1        0.0102
     38 H           4.6502   -7.6136  -31.4145 H       1  UNL1        0.0102
     39 H           6.1935   -8.3798  -31.1243 H       1  UNL1        0.0102
     40 H          -1.0816   -7.6115  -36.2680 H       1  UNL1        0.0252
     41 H          -0.6761   -6.4660  -35.0125 H       1  UNL1        0.0252
     42 H          -1.8132   -7.7523  -34.6876 H       1  UNL1        0.0252
@<TRIPOS>BOND
     1     1     2    1
     2     3     4   ar
     3     4     7   ar
     4     1     5   ar
     5     2     6   am
     6     7    14    1
     7     1     8   ar
     8     3     9    1
     9    10    11   ar
    10     7    11   ar
    11     5    12   ar
    12     8    13   ar
    13     6    14    1
    14     2    15    2
    15     9    16   ar
    16     9    17   ar
    17     5    18    1
    18     6    19    1
    19    20    21    1
    20    19    21    1
    21    20    22    1
    22    18    23    1
    23    22    24    1
    24    12    13   ar
    25     3    10   ar
    26    10    25    1
    27    11    26    1
    28    12    27    1
    29    13    28    1
    30    14    29    1
    31    14    30    1
    32    19    31    1
    33    19    32    1
    34    21    33    1
    35    21    34    1
    36    22    35    1
    37    22    36    1
    38    23    37    1
    39    23    38    1
    40    23    39    1
    41    24    40    1
    42    24    41    1
    43    24    42    1
@<TRIPOS>SUBSTRUCTURE
     1 UNL1        1 TEMP              0 ****  ****    0 ROOT


