HTS1710-00595726-01
 OpenBabel03232612343D

 32 32  0  0  0  0  0  0  0  0999 V2000
    2.8156  -12.0304  -32.0469 C   0  0  0  0  0  0  0  0  0  0  0  0
    2.9336  -13.2623  -31.3805 C   0  0  0  0  0  0  0  0  0  0  0  0
    3.0827  -10.8377  -31.3378 C   0  0  0  0  0  0  0  0  0  0  0  0
    2.4953  -12.0643  -33.4037 N   0  0  0  0  0  0  0  0  0  0  0  0
    3.2723  -13.3141  -30.0145 C   0  0  0  0  0  0  0  0  0  0  0  0
    3.4215  -10.8716  -29.9690 C   0  0  0  0  0  0  0  0  0  0  0  0
    3.3700  -11.8449  -34.4655 C   0  0  0  0  0  0  0  0  0  0  0  0
    3.5109  -12.1185  -29.3161 C   0  0  0  0  0  0  0  0  0  0  0  0
    3.3767  -14.5104  -29.3293 N   0  0  0  0  0  0  0  0  0  0  0  0
    3.6937   -9.5891  -29.2146 C   0  0  0  0  0  0  0  0  0  0  0  0
    2.8338  -11.9252  -35.8541 C   0  0  0  0  0  0  0  0  0  0  0  0
    4.5364  -11.5527  -34.2694 O   0  0  0  0  0  0  0  0  0  0  0  0
    4.2997  -14.9384  -28.3964 C   0  0  0  0  0  0  0  0  0  0  0  0
    3.0624   -9.3940  -28.1891 O   0  5  0  0  0  0  0  0  0  0  0  0
    4.5289   -8.8306  -29.6763 O   0  0  0  0  0  0  0  0  0  0  0  0
    2.9090  -10.9691  -36.8159 C   0  0  0  0  0  0  0  0  0  0  0  0
    5.4606  -14.2590  -28.2589 C   0  0  0  0  0  0  0  0  0  0  0  0
    3.5473   -9.6278  -36.6876 C   0  0  0  0  0  0  0  0  0  0  0  0
    6.5206  -14.6433  -27.2788 C   0  0  0  0  0  0  0  0  0  0  0  0
    3.6095   -9.1525  -35.5672 O   0  5  0  0  0  0  0  0  0  0  0  0
    3.9634   -9.0962  -37.7033 O   0  0  0  0  0  0  0  0  0  0  0  0
    7.4660  -13.8824  -27.1713 O   0  5  0  0  0  0  0  0  0  0  0  0
    6.3779  -15.6799  -26.6531 O   0  0  0  0  0  0  0  0  0  0  0  0
    2.7701  -14.1397  -31.8986 H   0  0  0  0  0  0  0  0  0  0  0  0
    3.0292   -9.9308  -31.8274 H   0  0  0  0  0  0  0  0  0  0  0  0
    1.5590  -12.2628  -33.6339 H   0  0  0  0  0  0  0  0  0  0  0  0
    3.7544  -12.1532  -28.3138 H   0  0  0  0  0  0  0  0  0  0  0  0
    2.6749  -15.1672  -29.5424 H   0  0  0  0  0  0  0  0  0  0  0  0
    2.3538  -12.8015  -36.1124 H   0  0  0  0  0  0  0  0  0  0  0  0
    4.1063  -15.7663  -27.8115 H   0  0  0  0  0  0  0  0  0  0  0  0
    2.4810  -11.1938  -37.7277 H   0  0  0  0  0  0  0  0  0  0  0  0
    5.6221  -13.4356  -28.8596 H   0  0  0  0  0  0  0  0  0  0  0  0
  1  2  2  0  0  0  0
  1  3  1  0  0  0  0
  1  4  1  0  0  0  0
  2  5  1  0  0  0  0
  2 24  1  0  0  0  0
  3  6  2  0  0  0  0
  3 25  1  0  0  0  0
  4  7  1  0  0  0  0
  4 26  1  0  0  0  0
  5  8  2  0  0  0  0
  5  9  1  0  0  0  0
  6 10  1  0  0  0  0
  6  8  1  0  0  0  0
  7 11  1  0  0  0  0
  7 12  2  0  0  0  0
  8 27  1  0  0  0  0
  9 13  1  0  0  0  0
  9 28  1  0  0  0  0
 10 14  1  0  0  0  0
 10 15  2  0  0  0  0
 11 16  2  0  0  0  0
 11 29  1  0  0  0  0
 13 17  2  0  0  0  0
 13 30  1  0  0  0  0
 16 18  1  0  0  0  0
 16 31  1  0  0  0  0
 17 19  1  0  0  0  0
 17 32  1  0  0  0  0
 18 20  1  0  0  0  0
 18 21  2  0  0  0  0
 19 22  1  0  0  0  0
 19 23  2  0  0  0  0
M  CHG  3  14  -1  20  -1  22  -1
M  END
$$$$
