##########                                Name: HTS1710-04708885-01
##########                    Molecular_Weight:             280.301
##########                DOCK_Rotatable_Bonds:                   7
##########                       Formal_Charge:                  -2
##########                     HBond_Acceptors:                   6
##########                        HBond_Donors:                   1
##########                         Heavy_Atoms:                  20
##########                          Grid_Score:          -76.053909
##########                     Grid_vdw_energy:          -38.256832
##########                      Grid_es_energy:          -37.797077
##########           Internal_energy_repulsive:            5.635653

@<TRIPOS>MOLECULE
HTS1710-04708885-01
 38 39 1 0 0
SMALL
USER_CHARGES


@<TRIPOS>ATOM
      1 C           6.3363   -6.9428  -32.6651 C.3     1  UNL1       -0.0524
      2 C           5.5404   -8.1340  -32.1965 C.2     1  UNL1       -0.1120
      3 O           5.1859   -8.2141  -30.8741 O.co2   1  UNL1       -0.7845
      4 C           4.4991   -9.3960  -30.8783 C.2     1  UNL1       -0.1000
      5 C           3.8708   -9.9078  -29.6092 C.3     1  UNL1        0.0240
      6 N           3.4923  -11.3159  -29.7824 N.am    1  UNL1       -0.3123
      7 C           3.1063  -12.1208  -28.7196 C.2     1  UNL1        0.2133
      8 O           3.0705  -11.6669  -27.5876 O.2     1  UNL1       -0.2758
      9 C           2.7312  -13.5764  -29.0095 C.3     1  UNL1        0.0263
     10 C           3.9768  -14.4937  -29.0526 C.3     1  UNL1       -0.0183
     11 C           4.7360  -14.5209  -27.7035 C.3     1  UNL1        0.0592
     12 C           5.4550  -15.8549  -27.4125 C.3     1  UNL1       -0.0245
     13 C           6.7586  -15.4391  -26.7056 C.3     1  UNL1       -0.0271
     14 C           6.6947  -13.9025  -26.6523 C.3     1  UNL1        0.0481
     15 O           5.8128  -13.5710  -27.7341 O.3     1  UNL1       -0.3765
     16 C           4.4179  -10.0292  -32.0905 C.2     1  UNL1       -0.0630
     17 C           5.1171   -9.1821  -32.9915 C.2     1  UNL1       -0.0144
     18 C           5.3094   -9.4180  -34.4426 C.2     1  UNL1        0.0708
     19 O           5.0493  -10.5313  -34.8624 O.co2   1  UNL1       -0.5447
     20 O           5.7134   -8.4984  -35.1329 O.co2   1  UNL1       -0.5447
     21 H           6.5232   -6.2908  -31.8375 H       1  UNL1        0.0266
     22 H           5.7834   -6.4172  -33.4155 H       1  UNL1        0.0266
     23 H           7.2672   -7.2747  -33.0751 H       1  UNL1        0.0266
     24 H           2.9991   -9.3294  -29.3845 H       1  UNL1        0.0500
     25 H           4.5722   -9.8238  -28.8055 H       1  UNL1        0.0500
     26 H           3.5131  -11.7038  -30.6870 H       1  UNL1        0.1490
     27 H           2.2333  -13.6240  -29.9554 H       1  UNL1        0.0359
     28 H           2.0935  -13.9187  -28.2214 H       1  UNL1        0.0359
     29 H           4.6399  -14.1374  -29.8131 H       1  UNL1        0.0295
     30 H           3.6425  -15.4888  -29.2593 H       1  UNL1        0.0295
     31 H           3.9808  -14.3277  -26.9705 H       1  UNL1        0.0596
     32 H           5.6672  -16.3773  -28.3219 H       1  UNL1        0.0291
     33 H           4.8615  -16.5178  -26.8182 H       1  UNL1        0.0291
     34 H           7.6118  -15.7630  -27.2644 H       1  UNL1        0.0288
     35 H           6.8517  -15.8764  -25.7335 H       1  UNL1        0.0288
     36 H           7.6633  -13.4731  -26.8020 H       1  UNL1        0.0560
     37 H           6.3571  -13.5300  -25.7077 H       1  UNL1        0.0560
     38 H           3.9512  -10.9249  -32.3025 H       1  UNL1        0.0615
@<TRIPOS>BOND
     1     1     2    1
     2     2     3    1
     3     3     4    1
     4     4     5    1
     5     5     6    1
     6     6     7   am
     7     7     8    2
     8     7     9    1
     9     9    10    1
    10    10    11    1
    11    11    12    1
    12    12    13    1
    13    13    14    1
    14    14    15    1
    15    11    15    1
    16     4    16    2
    17    16    17    1
    18     2    17    2
    19    17    18    1
    20    18    19   ar
    21    18    20   ar
    22     1    21    1
    23     1    22    1
    24     1    23    1
    25     5    24    1
    26     5    25    1
    27     6    26    1
    28     9    27    1
    29     9    28    1
    30    10    29    1
    31    10    30    1
    32    11    31    1
    33    12    32    1
    34    12    33    1
    35    13    34    1
    36    13    35    1
    37    14    36    1
    38    14    37    1
    39    16    38    1
@<TRIPOS>SUBSTRUCTURE
     1 UNL1        1 TEMP              0 ****  ****    0 ROOT


