HTS1710-02915513-01
 OpenBabel03232612363D

 27 27  0  0  1  0  0  0  0  0999 V2000
    3.6597  -12.1229  -32.2586 S   0  0  0  0  0  0  0  0  0  0  0  0
    3.5673  -13.2048  -30.8040 C   0  0  0  0  0  0  0  0  0  0  0  0
    4.5941  -10.7758  -31.7926 N   0  0  0  0  0  0  0  0  0  0  0  0
    4.4191   -9.4673  -32.4680 C   0  0  2  0  0  0  0  0  0  0  0  0
    5.1354   -9.4296  -33.8618 C   0  0  0  0  0  0  0  0  0  0  0  0
    4.8214   -8.3234  -31.5053 C   0  0  0  0  0  0  0  0  0  0  0  0
    4.6362  -13.1857  -29.8851 C   0  0  0  0  0  0  0  0  0  0  0  0
    4.5004  -12.7794  -33.2639 O   0  0  0  0  0  0  0  0  0  0  0  0
    2.3301  -11.5919  -32.5746 O   0  0  0  0  0  0  0  0  0  0  0  0
    4.2352   -9.4246  -35.1188 C   0  0  0  0  0  0  0  0  0  0  0  0
    2.4643  -14.0607  -30.5594 C   0  0  0  0  0  0  0  0  0  0  0  0
    5.7526   -8.5078  -30.7394 O   0  5  0  0  0  0  0  0  0  0  0  0
    3.0473   -9.6712  -34.9987 O   0  5  0  0  0  0  0  0  0  0  0  0
    2.4471  -14.8746  -29.4136 C   0  0  0  0  0  0  0  0  0  0  0  0
    4.6079  -14.0000  -28.7426 C   0  0  0  0  0  0  0  0  0  0  0  0
    4.1801   -7.2892  -31.5828 O   0  0  0  0  0  0  0  0  0  0  0  0
    0.9697  -14.1919  -31.7547 Br  0  0  0  0  0  0  0  0  0  0  0  0
    4.7894   -9.1641  -36.1735 O   0  0  0  0  0  0  0  0  0  0  0  0
    3.5138  -14.8445  -28.5044 C   0  0  0  0  0  0  0  0  0  0  0  0
    6.0624  -13.9561  -27.5070 Br  0  0  0  0  0  0  0  0  0  0  0  0
    5.5711  -11.0408  -31.9178 H   0  0  0  0  0  0  0  0  0  0  0  0
    3.3853   -9.3193  -32.7008 H   0  0  0  0  0  0  0  0  0  0  0  0
    5.7677  -10.2907  -33.9222 H   0  0  0  0  0  0  0  0  0  0  0  0
    5.6459   -8.4896  -33.8843 H   0  0  0  0  0  0  0  0  0  0  0  0
    5.4457  -12.5683  -30.0538 H   0  0  0  0  0  0  0  0  0  0  0  0
    1.6437  -15.4987  -29.2404 H   0  0  0  0  0  0  0  0  0  0  0  0
    3.4941  -15.4417  -27.6629 H   0  0  0  0  0  0  0  0  0  0  0  0
  1  2  1  0  0  0  0
  1  3  1  0  0  0  0
  1  8  2  0  0  0  0
  1  9  2  0  0  0  0
  2  7  2  0  0  0  0
  2 11  1  0  0  0  0
  3  4  1  0  0  0  0
  3 21  1  0  0  0  0
  4  5  1  0  0  0  0
  4  6  1  0  0  0  0
  4 22  1  6  0  0  0
  5 10  1  0  0  0  0
  5 23  1  0  0  0  0
  5 24  1  0  0  0  0
  6 12  1  0  0  0  0
  6 16  2  0  0  0  0
  7 15  1  0  0  0  0
  7 25  1  0  0  0  0
 10 13  1  0  0  0  0
 10 18  2  0  0  0  0
 11 14  2  0  0  0  0
 11 17  1  0  0  0  0
 14 19  1  0  0  0  0
 14 26  1  0  0  0  0
 15 19  2  0  0  0  0
 15 20  1  0  0  0  0
 19 27  1  0  0  0  0
M  CHG  2  12  -1  13  -1
M  END
$$$$
