HTS1710-05455623-01
 OpenBabel03232612353D

 36 38  0  0  0  0  0  0  0  0999 V2000
    6.5352   -6.1765  -34.3924 C   0  0  0  0  0  0  0  0  0  0  0  0
    6.0480   -7.6049  -34.3717 C   0  0  0  0  0  0  0  0  0  0  0  0
    5.8457   -8.2321  -35.5705 O   0  0  0  0  0  0  0  0  0  0  0  0
    5.4293   -9.4613  -35.1504 C   0  0  0  0  0  0  0  0  0  0  0  0
    5.1106  -10.4676  -36.0261 N   0  0  0  0  0  0  0  0  0  0  0  0
    4.7337  -11.6330  -35.5218 C   0  0  0  0  0  0  0  0  0  0  0  0
    4.6437  -11.8800  -34.1443 N   0  0  0  0  0  0  0  0  0  0  0  0
    4.3207  -13.2552  -33.7017 C   0  0  0  0  0  0  0  0  0  0  0  0
    2.9869  -13.2478  -32.9499 C   0  0  0  0  0  0  0  0  0  0  0  0
    1.9392  -12.9621  -33.5062 O   0  0  0  0  0  0  0  0  0  0  0  0
    3.0028  -13.5262  -31.5910 N   0  0  0  0  0  0  0  0  0  0  0  0
    1.7730  -13.5406  -30.7935 C   0  0  0  0  0  0  0  0  0  0  0  0
    2.1342  -13.8150  -29.3558 C   0  0  0  0  0  0  0  0  0  0  0  0
    2.1442  -15.0603  -28.7878 C   0  0  0  0  0  0  0  0  0  0  0  0
    2.4873  -14.8232  -27.4353 C   0  0  0  0  0  0  0  0  0  0  0  0
    2.6407  -13.4626  -27.3352 C   0  0  0  0  0  0  0  0  0  0  0  0
    2.4339  -12.7803  -28.5089 O   0  0  0  0  0  0  0  0  0  0  0  0
    4.9221  -10.8963  -33.1813 C   0  0  0  0  0  0  0  0  0  0  0  0
    4.8167  -11.0982  -31.9841 O   0  0  0  0  0  0  0  0  0  0  0  0
    5.3582   -9.6158  -33.7927 C   0  0  0  0  0  0  0  0  0  0  0  0
    5.7817   -8.3580  -33.2410 C   0  0  0  0  0  0  0  0  0  0  0  0
    5.9218   -7.9416  -31.8133 C   0  0  0  0  0  0  0  0  0  0  0  0
    6.2426   -6.7896  -31.5811 O   0  5  0  0  0  0  0  0  0  0  0  0
    5.7129   -8.7660  -30.9457 O   0  0  0  0  0  0  0  0  0  0  0  0
    6.6535   -5.8546  -35.4060 H   0  0  0  0  0  0  0  0  0  0  0  0
    7.4756   -6.1130  -33.8859 H   0  0  0  0  0  0  0  0  0  0  0  0
    5.8218   -5.5492  -33.9000 H   0  0  0  0  0  0  0  0  0  0  0  0
    4.4948  -12.3961  -36.1743 H   0  0  0  0  0  0  0  0  0  0  0  0
    5.0937  -13.6124  -33.0537 H   0  0  0  0  0  0  0  0  0  0  0  0
    4.2465  -13.8969  -34.5547 H   0  0  0  0  0  0  0  0  0  0  0  0
    3.8622  -13.7190  -31.1509 H   0  0  0  0  0  0  0  0  0  0  0  0
    1.1191  -14.3074  -31.1534 H   0  0  0  0  0  0  0  0  0  0  0  0
    1.2760  -12.5962  -30.8714 H   0  0  0  0  0  0  0  0  0  0  0  0
    1.9467  -15.9656  -29.2421 H   0  0  0  0  0  0  0  0  0  0  0  0
    2.5984  -15.5232  -26.6851 H   0  0  0  0  0  0  0  0  0  0  0  0
    2.8906  -12.9918  -26.4516 H   0  0  0  0  0  0  0  0  0  0  0  0
  1  2  1  0  0  0  0
  1 25  1  0  0  0  0
  1 26  1  0  0  0  0
  1 27  1  0  0  0  0
  2  3  1  0  0  0  0
  2 21  2  0  0  0  0
  3  4  1  0  0  0  0
  4  5  1  0  0  0  0
  4 20  2  0  0  0  0
  5  6  2  0  0  0  0
  6  7  1  0  0  0  0
  6 28  1  0  0  0  0
  7  8  1  0  0  0  0
  7 18  1  0  0  0  0
  8  9  1  0  0  0  0
  8 29  1  0  0  0  0
  8 30  1  0  0  0  0
  9 10  2  0  0  0  0
  9 11  1  0  0  0  0
 11 12  1  0  0  0  0
 11 31  1  0  0  0  0
 12 13  1  0  0  0  0
 12 32  1  0  0  0  0
 12 33  1  0  0  0  0
 13 14  2  0  0  0  0
 13 17  1  0  0  0  0
 14 15  1  0  0  0  0
 14 34  1  0  0  0  0
 15 16  2  0  0  0  0
 15 35  1  0  0  0  0
 16 17  1  0  0  0  0
 16 36  1  0  0  0  0
 18 19  2  0  0  0  0
 18 20  1  0  0  0  0
 20 21  1  0  0  0  0
 21 22  1  0  0  0  0
 22 23  1  0  0  0  0
 22 24  2  0  0  0  0
M  CHG  1  23  -1
M  END
$$$$
