##########                                Name: HTS1710-05075945-01
##########                    Molecular_Weight:             395.413
##########                DOCK_Rotatable_Bonds:                   7
##########                       Formal_Charge:                  -2
##########                     HBond_Acceptors:                  10
##########                        HBond_Donors:                   0
##########                         Heavy_Atoms:                  27
##########                          Grid_Score:          -80.558937
##########                     Grid_vdw_energy:          -43.006622
##########                      Grid_es_energy:          -37.552315
##########           Internal_energy_repulsive:           13.212489

@<TRIPOS>MOLECULE
HTS1710-05075945-01
 46 48 1 0 0
SMALL
USER_CHARGES


@<TRIPOS>ATOM
      1 C           3.1453  -14.6293  -28.9560 C.3     1  UNL1        0.0707
      2 S           3.7612  -12.9647  -28.5965 S.O2    1  UNL1        0.0294
      3 O           5.1903  -12.9907  -28.8660 O.2     1  UNL1       -0.1583
      4 O           3.3109  -12.5184  -27.2888 O.2     1  UNL1       -0.1583
      5 N           3.0171  -12.0030  -29.7762 N.3     1  UNL1       -0.1734
      6 C           3.5647  -12.1055  -31.1565 C.3     1  UNL1        0.0482
      7 C           2.5864  -12.7388  -32.1939 C.3     1  UNL1        0.0887
      8 C           1.8175  -11.6650  -33.0042 C.3     1  UNL1        0.0426
      9 N           2.6704  -10.9503  -33.9851 N.am    1  UNL1       -0.2928
     10 C           3.5093  -11.8622  -34.8090 C.3     1  UNL1        0.0385
     11 C           4.2498  -12.9295  -33.9723 C.3     1  UNL1        0.0639
     12 O           3.2938  -13.5917  -33.1229 O.3     1  UNL1       -0.3721
     13 C           2.1979   -9.7637  -34.5514 C.2     1  UNL1        0.2462
     14 O           2.4509   -9.4464  -35.7013 O.2     1  UNL1       -0.2700
     15 C           1.3675   -8.9031  -33.6716 C.2     1  UNL1        0.0296
     16 C           1.7082   -8.4625  -32.4022 C.2     1  UNL1       -0.1209
     17 O           0.7659   -7.6699  -31.7802 O.co2   1  UNL1       -0.7843
     18 C          -0.2138   -7.5447  -32.7256 C.ar    1  UNL1       -0.0864
     19 C          -1.3745   -6.7722  -32.6034 C.ar    1  UNL1       -0.0679
     20 C          -2.2395   -6.7012  -33.7127 C.ar    1  UNL1       -0.0623
     21 C          -1.9172   -7.3728  -34.9130 C.ar    1  UNL1       -0.0612
     22 C          -0.7363   -8.1377  -35.0101 C.ar    1  UNL1       -0.0544
     23 C           0.0900   -8.2340  -33.8785 C.ar    1  UNL1       -0.0207
     24 C           2.6471  -10.6107  -29.3930 C.3     1  UNL1        0.0596
     25 C           3.8554   -9.7186  -29.0897 C.2     1  UNL1        0.0574
     26 O           4.8520   -9.8838  -29.7718 O.co2   1  UNL1       -0.5484
     27 O           3.7406   -8.9077  -28.1876 O.co2   1  UNL1       -0.5484
     28 H           3.5624  -15.3228  -28.2560 H       1  UNL1        0.0479
     29 H           3.4312  -14.9088  -29.9485 H       1  UNL1        0.0479
     30 H           2.0784  -14.6398  -28.8758 H       1  UNL1        0.0479
     31 H           4.4496  -12.7061  -31.1214 H       1  UNL1        0.0470
     32 H           3.7517  -11.1047  -31.4854 H       1  UNL1        0.0470
     33 H           1.8849  -13.3149  -31.6275 H       1  UNL1        0.0625
     34 H           1.4124  -10.9485  -32.3205 H       1  UNL1        0.0490
     35 H           1.0533  -12.1707  -33.5567 H       1  UNL1        0.0490
     36 H           4.2356  -11.2761  -35.3324 H       1  UNL1        0.0487
     37 H           2.8539  -12.3803  -35.4775 H       1  UNL1        0.0487
     38 H           5.0009  -12.4599  -33.3721 H       1  UNL1        0.0575
     39 H           4.7184  -13.6411  -34.6196 H       1  UNL1        0.0575
     40 H           2.6040   -8.7100  -31.9538 H       1  UNL1        0.0462
     41 H          -1.5899   -6.2704  -31.7278 H       1  UNL1        0.0612
     42 H          -3.1131   -6.1558  -33.6484 H       1  UNL1        0.0617
     43 H          -2.5505   -7.3033  -35.7249 H       1  UNL1        0.0618
     44 H          -0.4857   -8.6146  -35.8903 H       1  UNL1        0.0623
     45 H           2.0294  -10.6524  -28.5203 H       1  UNL1        0.0505
     46 H           2.1390  -10.1785  -30.2296 H       1  UNL1        0.0505
@<TRIPOS>BOND
     1     1     2    1
     2     2     3    2
     3     2     4    2
     4     2     5    1
     5     5     6    1
     6     6     7    1
     7     7     8    1
     8     8     9    1
     9     9    10    1
    10    10    11    1
    11    11    12    1
    12     7    12    1
    13     9    13   am
    14    13    14    2
    15    13    15    1
    16    15    16    2
    17    16    17    1
    18    17    18    1
    19    18    19   ar
    20    19    20   ar
    21    20    21   ar
    22    21    22   ar
    23    22    23   ar
    24    15    23    1
    25    18    23   ar
    26     5    24    1
    27    24    25    1
    28    25    26   ar
    29    25    27   ar
    30     1    28    1
    31     1    29    1
    32     1    30    1
    33     6    31    1
    34     6    32    1
    35     7    33    1
    36     8    34    1
    37     8    35    1
    38    10    36    1
    39    10    37    1
    40    11    38    1
    41    11    39    1
    42    16    40    1
    43    19    41    1
    44    20    42    1
    45    21    43    1
    46    22    44    1
    47    24    45    1
    48    24    46    1
@<TRIPOS>SUBSTRUCTURE
     1 UNL1        1 TEMP              0 ****  ****    0 ROOT


