##########                                Name: HTS1710-00576758-01
##########                    Molecular_Weight:             343.357
##########                DOCK_Rotatable_Bonds:                  10
##########                       Formal_Charge:                  -2
##########                     HBond_Acceptors:                   9
##########                        HBond_Donors:                   1
##########                         Heavy_Atoms:                  23
##########                          Grid_Score:          -80.395523
##########                     Grid_vdw_energy:          -41.173138
##########                      Grid_es_energy:          -39.222382
##########           Internal_energy_repulsive:            8.968750

@<TRIPOS>MOLECULE
HTS1710-00576758-01
 40 40 1 0 0
SMALL
USER_CHARGES


@<TRIPOS>ATOM
      1 C           4.2972  -11.3771  -33.6236 C.ar    1  UNL1        0.1061
      2 C           4.5437  -10.2917  -32.7669 C.ar    1  UNL1       -0.0230
      3 C           4.0453  -12.6474  -33.0829 C.ar    1  UNL1       -0.0319
      4 S           4.2661  -11.1224  -35.4085 S.O2    1  UNL1        0.0584
      5 C           4.5498  -10.4646  -31.3685 C.ar    1  UNL1        0.0408
      6 C           4.0446  -12.8333  -31.6929 C.ar    1  UNL1       -0.0175
      7 N           2.6549  -11.4202  -35.8675 N.3     1  UNL1       -0.1900
      8 O           5.0537  -12.1594  -36.0831 O.2     1  UNL1       -0.1531
      9 O           4.4300   -9.6901  -35.6750 O.2     1  UNL1       -0.1531
     10 C           4.2932  -11.7462  -30.8252 C.ar    1  UNL1        0.1290
     11 C           4.8178   -9.2696  -30.4923 C.2     1  UNL1        0.0752
     12 C           1.5910  -10.7567  -35.0987 C.3     1  UNL1        0.0174
     13 O           4.2696  -11.9064  -29.4499 O.3     1  UNL1       -0.4945
     14 O           4.1043   -9.1119  -29.5170 O.co2   1  UNL1       -0.5445
     15 O           5.7476   -8.5491  -30.8108 O.co2   1  UNL1       -0.5445
     16 C           1.2293   -9.4055  -35.7567 C.3     1  UNL1       -0.0388
     17 C           4.3616  -13.1856  -28.8007 C.3     1  UNL1        0.0788
     18 C           0.0632   -8.6748  -35.0455 C.3     1  UNL1       -0.0515
     19 C          -0.3231   -7.3327  -35.7228 C.3     1  UNL1       -0.0479
     20 C          -1.4127   -6.5538  -34.9425 C.3     1  UNL1       -0.0132
     21 C          -2.7157   -7.3473  -34.7694 C.2     1  UNL1        0.0417
     22 O          -3.5021   -7.3362  -35.7014 O.co2   1  UNL1       -0.5498
     23 O          -2.8768   -7.9370  -33.7153 O.co2   1  UNL1       -0.5498
     24 H           4.7225   -9.3570  -33.1661 H       1  UNL1        0.0645
     25 H           3.8602  -13.4463  -33.7094 H       1  UNL1        0.0638
     26 H           3.8614  -13.7704  -31.3012 H       1  UNL1        0.0655
     27 H           2.4993  -12.4258  -35.7976 H       1  UNL1        0.1480
     28 H           1.9308  -10.5846  -34.0989 H       1  UNL1        0.0441
     29 H           0.7243  -11.3840  -35.0839 H       1  UNL1        0.0441
     30 H           0.9482   -9.5864  -36.7732 H       1  UNL1        0.0278
     31 H           2.0911   -8.7754  -35.6849 H       1  UNL1        0.0278
     32 H           4.3213  -13.0510  -27.7399 H       1  UNL1        0.0660
     33 H           5.2861  -13.6545  -29.0658 H       1  UNL1        0.0660
     34 H           3.5458  -13.8036  -29.1130 H       1  UNL1        0.0660
     35 H           0.3535   -8.4744  -34.0353 H       1  UNL1        0.0266
     36 H          -0.7923   -9.3152  -35.0992 H       1  UNL1        0.0266
     37 H          -0.6902   -7.5399  -36.7063 H       1  UNL1        0.0269
     38 H           0.5543   -6.7206  -35.7456 H       1  UNL1        0.0269
     39 H          -1.6320   -5.6513  -35.4738 H       1  UNL1        0.0325
     40 H          -1.0259   -6.3599  -33.9640 H       1  UNL1        0.0325
@<TRIPOS>BOND
     1     1     2   ar
     2     1     3   ar
     3     1     4    1
     4     2     5   ar
     5     3     6   ar
     6     4     7    1
     7     4     8    2
     8     4     9    2
     9     5    10   ar
    10     5    11    1
    11     7    12    1
    12    10    13    1
    13    11    14   ar
    14    11    15   ar
    15    12    16    1
    16    13    17    1
    17    16    18    1
    18    18    19    1
    19    19    20    1
    20    20    21    1
    21    21    22   ar
    22    21    23   ar
    23     6    10   ar
    24     2    24    1
    25     3    25    1
    26     6    26    1
    27     7    27    1
    28    12    28    1
    29    12    29    1
    30    16    30    1
    31    16    31    1
    32    17    32    1
    33    17    33    1
    34    17    34    1
    35    18    35    1
    36    18    36    1
    37    19    37    1
    38    19    38    1
    39    20    39    1
    40    20    40    1
@<TRIPOS>SUBSTRUCTURE
     1 UNL1        1 TEMP              0 ****  ****    0 ROOT


