HTS1710-00660233-01
 OpenBabel03232612353D

 44 43  0  0  0  0  0  0  0  0999 V2000
    0.2788   -7.9585  -35.0917 C   0  0  0  0  0  0  0  0  0  0  0  0
   -0.6081   -7.0106  -35.9073 C   0  0  0  0  0  0  0  0  0  0  0  0
    0.7609   -9.1047  -35.7110 N   0  0  0  0  0  0  0  0  0  0  0  0
    0.5636   -7.7219  -33.9296 O   0  0  0  0  0  0  0  0  0  0  0  0
   -1.6509   -6.2646  -35.0382 C   0  0  0  0  0  0  0  0  0  0  0  0
    1.6184  -10.0867  -35.0327 C   0  0  0  0  0  0  0  0  0  0  0  0
   -2.8098   -7.1679  -34.6010 C   0  0  0  0  0  0  0  0  0  0  0  0
    0.7720  -11.1296  -34.2619 C   0  0  0  0  0  0  0  0  0  0  0  0
   -3.7123   -7.3435  -35.4007 O   0  5  0  0  0  0  0  0  0  0  0  0
   -2.7445   -7.6592  -33.4878 O   0  0  0  0  0  0  0  0  0  0  0  0
    1.6201  -12.2878  -33.6723 C   0  0  0  0  0  0  0  0  0  0  0  0
    0.7858  -13.3266  -32.8801 C   0  0  0  0  0  0  0  0  0  0  0  0
    1.6305  -14.4943  -32.3096 C   0  0  0  0  0  0  0  0  0  0  0  0
    1.8352  -14.3631  -30.7859 C   0  0  0  0  0  0  0  0  0  0  0  0
    2.7101  -13.2223  -30.5005 N   0  0  0  0  0  0  0  0  0  0  0  0
    2.8143  -12.6667  -29.2331 C   0  0  0  0  0  0  0  0  0  0  0  0
    3.7579  -11.4744  -29.0374 C   0  0  0  0  0  0  0  0  0  0  0  0
    2.1694  -13.1341  -28.3086 O   0  0  0  0  0  0  0  0  0  0  0  0
    3.8800  -10.5922  -30.3037 C   0  0  0  0  0  0  0  0  0  0  0  0
    4.2983   -9.1539  -29.9750 C   0  0  0  0  0  0  0  0  0  0  0  0
    3.4519   -8.4222  -29.4916 O   0  5  0  0  0  0  0  0  0  0  0  0
    5.4412   -8.8314  -30.2475 O   0  0  0  0  0  0  0  0  0  0  0  0
   -1.1271   -7.5816  -36.6485 H   0  0  0  0  0  0  0  0  0  0  0  0
    0.0298   -6.2731  -36.3477 H   0  0  0  0  0  0  0  0  0  0  0  0
    0.5161   -9.2671  -36.6506 H   0  0  0  0  0  0  0  0  0  0  0  0
   -2.0477   -5.4482  -35.6047 H   0  0  0  0  0  0  0  0  0  0  0  0
   -1.1526   -5.9263  -34.1537 H   0  0  0  0  0  0  0  0  0  0  0  0
    2.2562   -9.5754  -34.3421 H   0  0  0  0  0  0  0  0  0  0  0  0
    2.1978  -10.5993  -35.7719 H   0  0  0  0  0  0  0  0  0  0  0  0
    0.0493  -11.5445  -34.9332 H   0  0  0  0  0  0  0  0  0  0  0  0
    0.3114  -10.6217  -33.4405 H   0  0  0  0  0  0  0  0  0  0  0  0
    2.3527  -11.8696  -33.0142 H   0  0  0  0  0  0  0  0  0  0  0  0
    2.0626  -12.8046  -34.4980 H   0  0  0  0  0  0  0  0  0  0  0  0
    0.0433  -13.7339  -33.5340 H   0  0  0  0  0  0  0  0  0  0  0  0
    0.3553  -12.8134  -32.0457 H   0  0  0  0  0  0  0  0  0  0  0  0
    2.5872  -14.4960  -32.7887 H   0  0  0  0  0  0  0  0  0  0  0  0
    1.1048  -15.4073  -32.4969 H   0  0  0  0  0  0  0  0  0  0  0  0
    2.2839  -15.2583  -30.4091 H   0  0  0  0  0  0  0  0  0  0  0  0
    0.8875  -14.2092  -30.3136 H   0  0  0  0  0  0  0  0  0  0  0  0
    3.2424  -12.8367  -31.2334 H   0  0  0  0  0  0  0  0  0  0  0  0
    4.7291  -11.8451  -28.7840 H   0  0  0  0  0  0  0  0  0  0  0  0
    3.3501  -10.8651  -28.2581 H   0  0  0  0  0  0  0  0  0  0  0  0
    2.9321  -10.5697  -30.7997 H   0  0  0  0  0  0  0  0  0  0  0  0
    4.6381  -11.0186  -30.9270 H   0  0  0  0  0  0  0  0  0  0  0  0
  1  2  1  0  0  0  0
  1  3  1  0  0  0  0
  1  4  2  0  0  0  0
  2  5  1  0  0  0  0
  2 23  1  0  0  0  0
  2 24  1  0  0  0  0
  3  6  1  0  0  0  0
  3 25  1  0  0  0  0
  5  7  1  0  0  0  0
  5 26  1  0  0  0  0
  5 27  1  0  0  0  0
  6  8  1  0  0  0  0
  6 28  1  0  0  0  0
  6 29  1  0  0  0  0
  7  9  1  0  0  0  0
  7 10  2  0  0  0  0
  8 11  1  0  0  0  0
  8 30  1  0  0  0  0
  8 31  1  0  0  0  0
 11 12  1  0  0  0  0
 11 32  1  0  0  0  0
 11 33  1  0  0  0  0
 12 13  1  0  0  0  0
 12 34  1  0  0  0  0
 12 35  1  0  0  0  0
 13 14  1  0  0  0  0
 13 36  1  0  0  0  0
 13 37  1  0  0  0  0
 14 15  1  0  0  0  0
 14 38  1  0  0  0  0
 14 39  1  0  0  0  0
 15 16  1  0  0  0  0
 15 40  1  0  0  0  0
 16 17  1  0  0  0  0
 16 18  2  0  0  0  0
 17 19  1  0  0  0  0
 17 41  1  0  0  0  0
 17 42  1  0  0  0  0
 19 20  1  0  0  0  0
 19 43  1  0  0  0  0
 19 44  1  0  0  0  0
 20 21  1  0  0  0  0
 20 22  2  0  0  0  0
M  CHG  2   9  -1  21  -1
M  END
$$$$
