##########                                Name: HTS1710-01268248-01
##########                    Molecular_Weight:             386.358
##########                DOCK_Rotatable_Bonds:                   8
##########                       Formal_Charge:                  -2
##########                     HBond_Acceptors:                   8
##########                        HBond_Donors:                   1
##########                         Heavy_Atoms:                  28
##########                          Grid_Score:          -78.343056
##########                     Grid_vdw_energy:          -43.777691
##########                      Grid_es_energy:          -34.565365
##########           Internal_energy_repulsive:            9.176167

@<TRIPOS>MOLECULE
HTS1710-01268248-01
 46 48 1 0 0
SMALL
USER_CHARGES


@<TRIPOS>ATOM
      1 C           2.7847   -7.6798  -31.4711 C.2     1  UNL1       -0.0631
      2 C           3.7080   -9.8179  -30.5626 C.2     1  UNL1       -0.0071
      3 C           1.5388   -7.9543  -32.0133 C.2     1  UNL1        0.1533
      4 C           3.9047   -8.7007  -31.5761 C.3     1  UNL1        0.0123
      5 C           4.0001  -11.2110  -30.9524 C.2     1  UNL1        0.1881
      6 C           0.4277   -6.9939  -31.9169 C.2     1  UNL1        0.2184
      7 C           3.2583   -9.4972  -29.2978 C.2     1  UNL1       -0.1263
      8 O           3.0792   -6.5114  -30.7922 O.co2   1  UNL1       -0.7815
      9 C           3.7845  -12.2095  -29.8606 C.ar    1  UNL1        0.0152
     10 C           0.7973   -5.7755  -31.2003 C.2     1  UNL1       -0.0198
     11 O           3.0607  -10.4494  -28.3287 O.co2   1  UNL1       -0.7845
     12 C           2.0623   -5.5875  -30.6863 C.2     1  UNL1       -0.0881
     13 C           3.3252  -11.7803  -28.5963 C.ar    1  UNL1       -0.0834
     14 C           5.3176   -8.0639  -31.4396 C.3     1  UNL1        0.0548
     15 C           5.8953   -7.6633  -32.8008 C.2     1  UNL1        0.3077
     16 O           4.3842  -11.5404  -32.0631 O.2     1  UNL1       -0.2870
     17 O          -0.6863   -7.1803  -32.3781 O.2     1  UNL1       -0.2841
     18 O           5.9430   -8.4133  -33.7623 O.2     1  UNL1       -0.2508
     19 O           1.2196   -9.1018  -32.6565 O.2     1  UNL1       -0.5038
     20 O           6.3429   -6.3713  -32.7960 O.3     1  UNL1       -0.4679
     21 C           4.0385  -13.5788  -30.0768 C.ar    1  UNL1       -0.0515
     22 C           2.3905   -4.3155  -29.9476 C.3     1  UNL1        0.0597
     23 O           2.2605   -4.5453  -28.5338 O.3     1  UNL1       -0.3795
     24 C           3.1257  -12.7168  -27.5677 C.ar    1  UNL1       -0.0678
     25 C           6.9230   -5.8245  -33.9922 C.3     1  UNL1        0.0817
     26 C           2.5984   -3.4090  -27.7223 C.3     1  UNL1        0.0368
     27 C           3.8389  -14.5091  -29.0447 C.ar    1  UNL1       -0.0611
     28 C           3.3832  -14.0781  -27.7903 C.ar    1  UNL1       -0.0623
     29 H           3.8549   -9.1158  -32.5611 H       1  UNL1        0.0393
     30 H           3.0642   -8.5088  -29.0730 H       1  UNL1        0.0459
     31 H           0.0905   -5.0340  -31.0753 H       1  UNL1        0.0649
     32 H           5.9740   -8.7729  -30.9799 H       1  UNL1        0.0386
     33 H           5.2276   -7.1800  -30.8434 H       1  UNL1        0.0386
     34 H           0.3374   -9.2537  -32.9336 H       1  UNL1        0.2923
     35 H           4.3731  -13.8993  -30.9989 H       1  UNL1        0.0624
     36 H           1.7152   -3.5420  -30.2484 H       1  UNL1        0.0598
     37 H           3.3927   -4.0159  -30.1733 H       1  UNL1        0.0598
     38 H           2.7883  -12.4020  -26.6446 H       1  UNL1        0.0612
     39 H           7.2176   -4.8113  -33.8149 H       1  UNL1        0.0661
     40 H           6.2030   -5.8534  -34.7832 H       1  UNL1        0.0661
     41 H           7.7803   -6.4019  -34.2691 H       1  UNL1        0.0661
     42 H           2.4765   -3.6596  -26.6892 H       1  UNL1        0.0524
     43 H           1.9551   -2.5905  -27.9691 H       1  UNL1        0.0524
     44 H           3.6155   -3.1307  -27.9042 H       1  UNL1        0.0524
     45 H           4.0275  -15.5103  -29.2090 H       1  UNL1        0.0618
     46 H           3.2374  -14.7619  -27.0312 H       1  UNL1        0.0617
@<TRIPOS>BOND
     1     2     4    1
     2     1     3    2
     3     1     4    1
     4     2     5    1
     5     3     6    1
     6     2     7    2
     7     1     8    1
     8     5     9    1
     9    10    12    2
    10     7    11    1
    11     8    12    1
    12    11    13    1
    13     4    14    1
    14    14    15    1
    15     5    16    2
    16     6    17    2
    17    15    18    2
    18     3    19    1
    19    15    20    1
    20     9    21   ar
    21    12    22    1
    22    22    23    1
    23    13    24   ar
    24    20    25    1
    25    23    26    1
    26    21    27   ar
    27    24    28   ar
    28     6    10    1
    29     9    13   ar
    30    27    28   ar
    31     4    29    1
    32     7    30    1
    33    10    31    1
    34    14    32    1
    35    14    33    1
    36    19    34    1
    37    21    35    1
    38    22    36    1
    39    22    37    1
    40    24    38    1
    41    25    39    1
    42    25    40    1
    43    25    41    1
    44    26    42    1
    45    26    43    1
    46    26    44    1
    47    27    45    1
    48    28    46    1
@<TRIPOS>SUBSTRUCTURE
     1 UNL1        1 TEMP              0 ****  ****    0 ROOT


