HTS1710-05122403-01
 OpenBabel03232612363D

 42 44  0  0  0  0  0  0  0  0999 V2000
    4.8641  -12.6270  -36.0901 C   0  0  0  0  0  0  0  0  0  0  0  0
    3.9811  -11.4674  -35.8266 N   0  0  0  0  0  0  0  0  0  0  0  0
    4.6836  -10.1659  -35.8039 C   0  0  0  0  0  0  0  0  0  0  0  0
    4.8791   -9.6627  -34.3972 C   0  0  0  0  0  0  0  0  0  0  0  0
    4.5577  -10.3753  -33.2733 C   0  0  0  0  0  0  0  0  0  0  0  0
    4.9362   -9.5402  -32.1900 C   0  0  0  0  0  0  0  0  0  0  0  0
    4.8012   -9.8652  -30.7502 C   0  0  0  0  0  0  0  0  0  0  0  0
    4.6547  -11.0310  -30.4261 O   0  5  0  0  0  0  0  0  0  0  0  0
    4.8450   -8.9323  -29.9662 O   0  0  0  0  0  0  0  0  0  0  0  0
    5.4401   -8.4101  -32.8063 C   0  0  0  0  0  0  0  0  0  0  0  0
    5.9891   -7.1960  -32.1009 C   0  0  0  0  0  0  0  0  0  0  0  0
    5.4302   -8.4310  -34.1781 O   0  0  0  0  0  0  0  0  0  0  0  0
    2.5794  -11.5158  -35.9069 C   0  0  0  0  0  0  0  0  0  0  0  0
    1.9952  -12.5854  -35.9490 O   0  0  0  0  0  0  0  0  0  0  0  0
    1.8568  -10.1972  -35.9667 C   0  0  0  0  0  0  0  0  0  0  0  0
    1.9210   -9.4312  -37.2216 C   0  0  0  0  0  0  0  0  0  0  0  0
    1.2589   -8.2900  -37.3247 N   0  0  0  0  0  0  0  0  0  0  0  0
    0.5219   -7.8699  -36.2721 C   0  0  0  0  0  0  0  0  0  0  0  0
   -0.2514   -6.7632  -36.1093 C   0  0  0  0  0  0  0  0  0  0  0  0
   -0.8089   -6.8545  -34.7998 C   0  0  0  0  0  0  0  0  0  0  0  0
   -1.7338   -5.7942  -34.2655 C   0  0  0  0  0  0  0  0  0  0  0  0
   -0.4137   -7.9516  -34.1672 N   0  0  0  0  0  0  0  0  0  0  0  0
    0.3985   -8.5434  -35.0998 N   0  0  0  0  0  0  0  0  0  0  0  0
    1.0606   -9.7544  -34.8784 C   0  0  0  0  0  0  0  0  0  0  0  0
    0.9907  -10.4922  -33.5505 C   0  0  0  0  0  0  0  0  0  0  0  0
    5.8853  -12.3336  -35.9635 H   0  0  0  0  0  0  0  0  0  0  0  0
    4.7131  -12.9698  -37.0923 H   0  0  0  0  0  0  0  0  0  0  0  0
    4.6318  -13.4151  -35.4048 H   0  0  0  0  0  0  0  0  0  0  0  0
    4.1060   -9.4504  -36.3509 H   0  0  0  0  0  0  0  0  0  0  0  0
    5.6482  -10.2996  -36.2474 H   0  0  0  0  0  0  0  0  0  0  0  0
    4.1330  -11.3145  -33.2245 H   0  0  0  0  0  0  0  0  0  0  0  0
    5.9249   -7.3390  -31.0424 H   0  0  0  0  0  0  0  0  0  0  0  0
    5.4200   -6.3339  -32.3796 H   0  0  0  0  0  0  0  0  0  0  0  0
    7.0122   -7.0535  -32.3801 H   0  0  0  0  0  0  0  0  0  0  0  0
    2.4787   -9.7817  -38.0160 H   0  0  0  0  0  0  0  0  0  0  0  0
   -0.4044   -6.0082  -36.7961 H   0  0  0  0  0  0  0  0  0  0  0  0
   -1.8668   -5.0317  -35.0042 H   0  0  0  0  0  0  0  0  0  0  0  0
   -1.3109   -5.3645  -33.3815 H   0  0  0  0  0  0  0  0  0  0  0  0
   -2.6813   -6.2326  -34.0309 H   0  0  0  0  0  0  0  0  0  0  0  0
    0.3299   -9.9727  -32.8882 H   0  0  0  0  0  0  0  0  0  0  0  0
    1.9674  -10.5382  -33.1161 H   0  0  0  0  0  0  0  0  0  0  0  0
    0.6254  -11.4848  -33.7127 H   0  0  0  0  0  0  0  0  0  0  0  0
  1  2  1  0  0  0  0
  1 26  1  0  0  0  0
  1 27  1  0  0  0  0
  1 28  1  0  0  0  0
  2  3  1  0  0  0  0
  2 13  1  0  0  0  0
  3  4  1  0  0  0  0
  3 29  1  0  0  0  0
  3 30  1  0  0  0  0
  4  5  2  0  0  0  0
  4 12  1  0  0  0  0
  5  6  1  0  0  0  0
  5 31  1  0  0  0  0
  6  7  1  0  0  0  0
  6 10  2  0  0  0  0
  7  8  1  0  0  0  0
  7  9  2  0  0  0  0
 10 11  1  0  0  0  0
 10 12  1  0  0  0  0
 11 32  1  0  0  0  0
 11 33  1  0  0  0  0
 11 34  1  0  0  0  0
 13 14  2  0  0  0  0
 13 15  1  0  0  0  0
 15 16  1  0  0  0  0
 15 24  2  0  0  0  0
 16 17  2  0  0  0  0
 16 35  1  0  0  0  0
 17 18  1  0  0  0  0
 18 19  2  0  0  0  0
 18 23  1  0  0  0  0
 19 20  1  0  0  0  0
 19 36  1  0  0  0  0
 20 21  1  0  0  0  0
 20 22  2  0  0  0  0
 21 37  1  0  0  0  0
 21 38  1  0  0  0  0
 21 39  1  0  0  0  0
 22 23  1  0  0  0  0
 23 24  1  0  0  0  0
 24 25  1  0  0  0  0
 25 40  1  0  0  0  0
 25 41  1  0  0  0  0
 25 42  1  0  0  0  0
M  CHG  1   8  -1
M  END
$$$$
