HTS1710-02789732-01
 OpenBabel03232612353D

 47 49  0  0  1  0  0  0  0  0999 V2000
    4.2916   -9.5421  -30.3839 C   0  0  0  0  0  0  0  0  0  0  0  0
    4.4159  -10.4204  -31.4478 C   0  0  0  0  0  0  0  0  0  0  0  0
    5.4003   -8.4980  -32.7538 C   0  0  0  0  0  0  0  0  0  0  0  0
    5.2334   -7.7502  -31.6226 C   0  0  0  0  0  0  0  0  0  0  0  0
    4.8882   -9.9453  -32.7969 C   0  0  2  0  0  0  0  0  0  0  0  0
    4.6385   -8.2160  -30.4805 O   0  0  0  0  0  0  0  0  0  0  0  0
    3.7814  -10.1487  -33.8495 C   0  0  0  0  0  0  0  0  0  0  0  0
    3.7645  -10.0005  -29.0918 C   0  0  0  0  0  0  0  0  0  0  0  0
    4.0847  -11.7609  -31.3866 O   0  0  0  0  0  0  0  0  0  0  0  0
    3.4127  -11.4191  -29.0790 C   0  0  0  0  0  0  0  0  0  0  0  0
    6.0823   -7.9765  -34.0098 C   0  0  0  0  0  0  0  0  0  0  0  0
    2.4513   -9.7122  -33.6222 C   0  0  0  0  0  0  0  0  0  0  0  0
    3.5824  -12.2163  -30.1882 C   0  0  0  0  0  0  0  0  0  0  0  0
    5.6647   -6.4455  -31.5506 N   0  0  0  0  0  0  0  0  0  0  0  0
    3.6273   -9.2753  -28.1215 O   0  0  0  0  0  0  0  0  0  0  0  0
    1.4594   -9.9264  -34.6246 C   0  0  0  0  0  0  0  0  0  0  0  0
    5.7351   -8.2334  -35.1520 O   0  0  0  0  0  0  0  0  0  0  0  0
    2.1928   -9.0933  -32.4049 O   0  0  0  0  0  0  0  0  0  0  0  0
    7.1486   -7.1659  -33.7258 O   0  0  0  0  0  0  0  0  0  0  0  0
    4.1053  -10.8032  -35.0520 C   0  0  0  0  0  0  0  0  0  0  0  0
    0.1552   -9.5028  -34.4296 O   0  0  0  0  0  0  0  0  0  0  0  0
    3.2051  -13.6735  -30.1294 C   0  0  0  0  0  0  0  0  0  0  0  0
    1.8124  -13.8529  -30.3709 O   0  0  0  0  0  0  0  0  0  0  0  0
    3.1323  -11.0135  -36.0335 C   0  0  0  0  0  0  0  0  0  0  0  0
    1.8190  -10.5785  -35.8253 C   0  0  0  0  0  0  0  0  0  0  0  0
    1.7572   -7.7401  -32.1928 C   0  0  0  0  0  0  0  0  0  0  0  0
    7.2514   -5.8763  -34.3559 C   0  0  0  0  0  0  0  0  0  0  0  0
   -0.4108   -8.3309  -35.0419 C   0  0  0  0  0  0  0  0  0  0  0  0
    5.7286  -10.5409  -33.0865 H   0  0  0  0  0  0  0  0  0  0  0  0
    3.0271  -11.8337  -28.2161 H   0  0  0  0  0  0  0  0  0  0  0  0
    6.4479   -6.2156  -31.0003 H   0  0  0  0  0  0  0  0  0  0  0  0
    5.1901   -5.7419  -32.0496 H   0  0  0  0  0  0  0  0  0  0  0  0
    5.0707  -11.1314  -35.2111 H   0  0  0  0  0  0  0  0  0  0  0  0
    3.4439  -14.0575  -29.1597 H   0  0  0  0  0  0  0  0  0  0  0  0
    3.7515  -14.1968  -30.8862 H   0  0  0  0  0  0  0  0  0  0  0  0
    1.6051  -14.8005  -30.3785 H   0  0  0  0  0  0  0  0  0  0  0  0
    3.3832  -11.4906  -36.9135 H   0  0  0  0  0  0  0  0  0  0  0  0
    1.1065  -10.7353  -36.5553 H   0  0  0  0  0  0  0  0  0  0  0  0
    1.6458   -7.5616  -31.1437 H   0  0  0  0  0  0  0  0  0  0  0  0
    0.8182   -7.5869  -32.6824 H   0  0  0  0  0  0  0  0  0  0  0  0
    2.4833   -7.0646  -32.5944 H   0  0  0  0  0  0  0  0  0  0  0  0
    8.1402   -5.3847  -34.0193 H   0  0  0  0  0  0  0  0  0  0  0  0
    6.3976   -5.2848  -34.0990 H   0  0  0  0  0  0  0  0  0  0  0  0
    7.2929   -6.0005  -35.4178 H   0  0  0  0  0  0  0  0  0  0  0  0
   -1.4294   -8.2233  -34.7322 H   0  0  0  0  0  0  0  0  0  0  0  0
   -0.3702   -8.4298  -36.1065 H   0  0  0  0  0  0  0  0  0  0  0  0
    0.1461   -7.4677  -34.7424 H   0  0  0  0  0  0  0  0  0  0  0  0
  1  2  2  0  0  0  0
  1  6  1  0  0  0  0
  1  8  1  0  0  0  0
  2  5  1  0  0  0  0
  2  9  1  0  0  0  0
  3  4  2  0  0  0  0
  3  5  1  0  0  0  0
  3 11  1  0  0  0  0
  4  6  1  0  0  0  0
  4 14  1  0  0  0  0
  5  7  1  0  0  0  0
  5 29  1  6  0  0  0
  7 12  2  0  0  0  0
  7 20  1  0  0  0  0
  8 10  1  0  0  0  0
  8 15  2  0  0  0  0
  9 13  1  0  0  0  0
 10 13  2  0  0  0  0
 10 30  1  0  0  0  0
 11 17  2  0  0  0  0
 11 19  1  0  0  0  0
 12 16  1  0  0  0  0
 12 18  1  0  0  0  0
 13 22  1  0  0  0  0
 14 31  1  0  0  0  0
 14 32  1  0  0  0  0
 16 21  1  0  0  0  0
 16 25  2  0  0  0  0
 18 26  1  0  0  0  0
 19 27  1  0  0  0  0
 20 24  2  0  0  0  0
 20 33  1  0  0  0  0
 21 28  1  0  0  0  0
 22 23  1  0  0  0  0
 22 34  1  0  0  0  0
 22 35  1  0  0  0  0
 23 36  1  0  0  0  0
 24 25  1  0  0  0  0
 24 37  1  0  0  0  0
 25 38  1  0  0  0  0
 26 39  1  0  0  0  0
 26 40  1  0  0  0  0
 26 41  1  0  0  0  0
 27 42  1  0  0  0  0
 27 43  1  0  0  0  0
 27 44  1  0  0  0  0
 28 45  1  0  0  0  0
 28 46  1  0  0  0  0
 28 47  1  0  0  0  0
M  END
$$$$
