##########                                Name: HTS1710-04387468-01
##########                    Molecular_Weight:             315.304
##########                DOCK_Rotatable_Bonds:                   8
##########                       Formal_Charge:                  -2
##########                     HBond_Acceptors:                   9
##########                        HBond_Donors:                   1
##########                         Heavy_Atoms:                  21
##########                          Grid_Score:          -78.831375
##########                     Grid_vdw_energy:          -38.555977
##########                      Grid_es_energy:          -40.275402
##########           Internal_energy_repulsive:            6.630991

@<TRIPOS>MOLECULE
HTS1710-04387468-01
 34 34 1 0 0
SMALL
USER_CHARGES


@<TRIPOS>ATOM
      1 S           1.1292  -11.0786  -34.1027 S.O2    1  UNL1        0.0584
      2 C           3.5949  -10.6861  -30.8276 C.ar    1  UNL1        0.0408
      3 C           2.1888  -11.4550  -32.6930 C.ar    1  UNL1        0.1061
      4 C           2.7635  -10.4173  -31.9409 C.ar    1  UNL1       -0.0230
      5 C           4.1813   -9.5065  -30.0533 C.2     1  UNL1        0.0752
      6 O           0.6776  -12.3400  -34.7002 O.2     1  UNL1       -0.1530
      7 O           0.2207   -9.9768  -33.7698 O.2     1  UNL1       -0.1530
      8 C           3.8418  -12.0465  -30.4819 C.ar    1  UNL1        0.1294
      9 C           4.8345   -9.4796  -36.1624 C.2     1  UNL1        0.0430
     10 N           2.2136  -10.4462  -35.2477 N.3     1  UNL1       -0.1896
     11 C           4.6150  -10.9085  -35.6529 C.3     1  UNL1        0.0010
     12 O           3.9871   -9.4785  -28.8498 O.co2   1  UNL1       -0.5445
     13 C           2.4467  -12.7883  -32.3483 C.ar    1  UNL1       -0.0319
     14 O           4.2340   -9.1467  -37.1696 O.co2   1  UNL1       -0.5498
     15 C           3.2645  -13.0822  -31.2511 C.ar    1  UNL1       -0.0174
     16 C           3.1607  -11.3882  -35.8641 C.3     1  UNL1        0.0225
     17 O           4.8085   -8.6567  -30.6605 O.co2   1  UNL1       -0.5445
     18 O           5.5839   -8.7674  -35.5169 O.co2   1  UNL1       -0.5498
     19 O           4.6445  -12.3513  -29.3970 O.3     1  UNL1       -0.4916
     20 C           4.3104  -13.3203  -28.3877 C.3     1  UNL1        0.0868
     21 C           2.9876  -12.8803  -27.7331 C.3     1  UNL1       -0.0307
     22 H           2.5755   -9.4377  -32.2057 H       1  UNL1        0.0645
     23 H           2.7599   -9.7195  -34.7851 H       1  UNL1        0.1480
     24 H           4.8395  -10.9395  -34.6071 H       1  UNL1        0.0338
     25 H           5.2585  -11.5576  -36.2092 H       1  UNL1        0.0338
     26 H           2.0336  -13.5538  -32.9036 H       1  UNL1        0.0638
     27 H           3.4481  -14.0665  -31.0009 H       1  UNL1        0.0655
     28 H           3.0394  -12.3527  -35.4170 H       1  UNL1        0.0445
     29 H           2.9625  -11.4413  -36.9142 H       1  UNL1        0.0445
     30 H           5.0854  -13.3608  -27.6511 H       1  UNL1        0.0694
     31 H           4.2073  -14.2926  -28.8223 H       1  UNL1        0.0694
     32 H           3.1082  -11.9075  -27.3042 H       1  UNL1        0.0262
     33 H           2.7198  -13.5774  -26.9668 H       1  UNL1        0.0262
     34 H           2.2159  -12.8504  -28.4736 H       1  UNL1        0.0262
@<TRIPOS>BOND
     1     2     4   ar
     2     1     3    1
     3     3     4   ar
     4     2     5    1
     5     1     6    2
     6     1     7    2
     7     2     8   ar
     8     9    11    1
     9     1    10    1
    10    11    16    1
    11     5    12   ar
    12     3    13   ar
    13     9    14   ar
    14    13    15   ar
    15    10    16    1
    16     5    17   ar
    17     9    18   ar
    18     8    19    1
    19    19    20    1
    20    20    21    1
    21     8    15   ar
    22     4    22    1
    23    10    23    1
    24    11    24    1
    25    11    25    1
    26    13    26    1
    27    15    27    1
    28    16    28    1
    29    16    29    1
    30    20    30    1
    31    20    31    1
    32    21    32    1
    33    21    33    1
    34    21    34    1
@<TRIPOS>SUBSTRUCTURE
     1 UNL1        1 TEMP              0 ****  ****    0 ROOT


