##########                                Name: HTS1710-02789733-01
##########                    Molecular_Weight:             403.388
##########                DOCK_Rotatable_Bonds:                   9
##########                       Formal_Charge:                  -2
##########                     HBond_Acceptors:                   9
##########                        HBond_Donors:                   3
##########                         Heavy_Atoms:                  29
##########                          Grid_Score:          -79.138847
##########                     Grid_vdw_energy:          -42.199329
##########                      Grid_es_energy:          -36.939518
##########           Internal_energy_repulsive:           10.218856

@<TRIPOS>MOLECULE
HTS1710-02789733-01
 50 52 1 0 0
SMALL
USER_CHARGES


@<TRIPOS>ATOM
      1 C           5.7507   -7.5514  -33.0062 C.2     1  UNL1       -0.0555
      2 C           5.0155   -7.2569  -31.8716 C.2     1  UNL1       -0.1091
      3 C           4.2524   -9.6532  -31.8887 C.2     1  UNL1        0.0538
      4 C           5.0363   -9.8136  -32.9991 C.2     1  UNL1       -0.0306
      5 C           4.0413   -8.2535  -31.3084 C.3     1  UNL1        0.0284
      6 O           5.6828   -8.7777  -33.6225 O.co2   1  UNL1       -0.7688
      7 C           6.6378   -6.5457  -33.6055 C.2     1  UNL1        0.1708
      8 O           5.0545   -6.0413  -31.2157 O.co2   1  UNL1       -0.7839
      9 C           2.6082   -7.7743  -31.5411 C.ar    1  UNL1       -0.0328
     10 C           6.6413   -5.2735  -32.8852 C.2     1  UNL1       -0.0241
     11 C           3.5110  -10.7480  -31.1330 C.2     1  UNL1        0.3367
     12 C           5.8735   -5.0757  -31.7586 C.2     1  UNL1       -0.0886
     13 C           1.8256   -8.3461  -32.5601 C.ar    1  UNL1       -0.0123
     14 C           0.4988   -7.9134  -32.7733 C.ar    1  UNL1        0.1618
     15 N           5.2446  -11.0376  -33.5910 N.pl3   1  UNL1       -0.3685
     16 C           2.0559   -6.7659  -30.7309 C.ar    1  UNL1       -0.0540
     17 O           7.3069   -6.7439  -34.6057 O.2     1  UNL1       -0.2886
     18 C          -0.0472   -6.9000  -31.9591 C.ar    1  UNL1        0.1615
     19 O           2.5317  -11.3140  -31.5939 O.2     1  UNL1       -0.2453
     20 C           0.7400   -6.3291  -30.9360 C.ar    1  UNL1       -0.0160
     21 O           4.0344  -11.0541  -29.9046 O.3     1  UNL1       -0.4616
     22 O          -0.2929   -8.4604  -33.7683 O.3     1  UNL1       -0.4914
     23 O          -1.3503   -6.4940  -32.1864 O.3     1  UNL1       -0.4915
     24 C           5.9049   -3.7460  -31.0489 C.3     1  UNL1        0.0566
     25 O           4.6129   -3.3836  -30.5695 O.3     1  UNL1       -0.3915
     26 C           3.6728  -12.2742  -29.2221 C.3     1  UNL1        0.0900
     27 C           0.2365   -9.2471  -34.8514 C.3     1  UNL1        0.0790
     28 C          -1.8905   -5.2618  -31.6779 C.3     1  UNL1        0.0790
     29 C           4.6269  -13.4112  -29.6518 C.3     1  UNL1       -0.0306
     30 H           4.2171   -8.3251  -30.2554 H       1  UNL1        0.0437
     31 H           7.2349   -4.5029  -33.2299 H       1  UNL1        0.0647
     32 H           2.2243   -9.0879  -33.1567 H       1  UNL1        0.0658
     33 H           5.2959  -11.8498  -33.0370 H       1  UNL1        0.1413
     34 H           5.3423  -11.1014  -34.5686 H       1  UNL1        0.1413
     35 H           2.6239   -6.3445  -29.9794 H       1  UNL1        0.0622
     36 H           0.3452   -5.5873  -30.3368 H       1  UNL1        0.0655
     37 H           6.2468   -2.9953  -31.7305 H       1  UNL1        0.0596
     38 H           6.5655   -3.8262  -30.2111 H       1  UNL1        0.0596
     39 H           4.6587   -2.5139  -30.1423 H       1  UNL1        0.2098
     40 H           2.6672  -12.5387  -29.4746 H       1  UNL1        0.0695
     41 H           3.7498  -12.1262  -28.1652 H       1  UNL1        0.0695
     42 H          -0.5634   -9.5583  -35.4903 H       1  UNL1        0.0660
     43 H           0.7335  -10.1086  -34.4568 H       1  UNL1        0.0660
     44 H           0.9329   -8.6593  -35.4122 H       1  UNL1        0.0660
     45 H          -2.9118   -5.1674  -31.9828 H       1  UNL1        0.0660
     46 H          -1.3257   -4.4388  -32.0633 H       1  UNL1        0.0660
     47 H          -1.8359   -5.2625  -30.6093 H       1  UNL1        0.0660
     48 H           4.5510  -13.5603  -30.7087 H       1  UNL1        0.0262
     49 H           4.3577  -14.3137  -29.1440 H       1  UNL1        0.0262
     50 H           5.6328  -13.1468  -29.4003 H       1  UNL1        0.0262
@<TRIPOS>BOND
     1     1     2    2
     2     1     6    1
     3     1     7    1
     4     2     5    1
     5     2     8    1
     6     3     4    2
     7     3     5    1
     8     3    11    1
     9     4     6    1
    10     4    15    1
    11     5     9    1
    12     7    10    1
    13     7    17    2
    14     8    12    1
    15     9    13   ar
    16     9    16   ar
    17    10    12    2
    18    11    19    2
    19    11    21    1
    20    12    24    1
    21    13    14   ar
    22    14    18   ar
    23    14    22    1
    24    16    20   ar
    25    18    20   ar
    26    18    23    1
    27    21    26    1
    28    22    27    1
    29    23    28    1
    30    24    25    1
    31    26    29    1
    32     5    30    1
    33    10    31    1
    34    13    32    1
    35    15    33    1
    36    15    34    1
    37    16    35    1
    38    20    36    1
    39    24    37    1
    40    24    38    1
    41    25    39    1
    42    26    40    1
    43    26    41    1
    44    27    42    1
    45    27    43    1
    46    27    44    1
    47    28    45    1
    48    28    46    1
    49    28    47    1
    50    29    48    1
    51    29    49    1
    52    29    50    1
@<TRIPOS>SUBSTRUCTURE
     1 UNL1        1 TEMP              0 ****  ****    0 ROOT


