HTS1710-00178338-01
 OpenBabel03232612343D

 49 50  0  0  0  0  0  0  0  0999 V2000
    4.2067   -7.6325  -30.8908 C   0  0  0  0  0  0  0  0  0  0  0  0
    4.0999  -10.1806  -31.0960 C   0  0  0  0  0  0  0  0  0  0  0  0
    4.6283   -5.3602  -31.9886 C   0  0  0  0  0  0  0  0  0  0  0  0
    3.0872  -12.5233  -30.9171 C   0  0  0  0  0  0  0  0  0  0  0  0
    2.8689  -12.5188  -32.2575 C   0  0  0  0  0  0  0  0  0  0  0  0
    3.3169   -5.0494  -31.8198 C   0  0  0  0  0  0  0  0  0  0  0  0
    3.6961  -11.3396  -30.2354 C   0  0  0  0  0  0  0  0  0  0  0  0
    5.1618   -6.6900  -31.5607 C   0  0  0  0  0  0  0  0  0  0  0  0
    2.2877   -5.9673  -31.1447 C   0  0  0  0  0  0  0  0  0  0  0  0
    3.2563  -11.3673  -33.1956 C   0  0  0  0  0  0  0  0  0  0  0  0
    3.8914  -10.1968  -32.4359 C   0  0  0  0  0  0  0  0  0  0  0  0
    2.9049   -7.3025  -30.7127 C   0  0  0  0  0  0  0  0  0  0  0  0
    4.7700   -8.9803  -30.3978 C   0  0  0  0  0  0  0  0  0  0  0  0
    5.5235   -4.3992  -32.7174 C   0  0  0  0  0  0  0  0  0  0  0  0
    2.6052  -13.6868  -30.0980 C   0  0  0  0  0  0  0  0  0  0  0  0
    3.8697  -11.3349  -29.0284 O   0  0  0  0  0  0  0  0  0  0  0  0
    6.3336   -6.9787  -31.7366 O   0  0  0  0  0  0  0  0  0  0  0  0
    2.2644  -13.5480  -32.8794 O   0  5  0  0  0  0  0  0  0  0  0  0
    2.8046   -3.8840  -32.2574 O   0  5  0  0  0  0  0  0  0  0  0  0
    5.5149   -4.2921  -33.9317 O   0  0  0  0  0  0  0  0  0  0  0  0
    1.4274  -14.0004  -30.0399 O   0  0  0  0  0  0  0  0  0  0  0  0
    2.0378   -8.1449  -30.1217 O   0  5  0  0  0  0  0  0  0  0  0  0
    4.2369   -9.1566  -33.2180 O   0  5  0  0  0  0  0  0  0  0  0  0
    1.7263   -5.2430  -29.8823 C   0  0  0  0  0  0  0  0  0  0  0  0
    1.1253   -6.2526  -32.1456 C   0  0  0  0  0  0  0  0  0  0  0  0
    4.2827  -11.9001  -34.2418 C   0  0  0  0  0  0  0  0  0  0  0  0
    1.9780  -10.8542  -33.9276 C   0  0  0  0  0  0  0  0  0  0  0  0
    6.5537   -3.6516  -31.8648 C   0  0  0  0  0  0  0  0  0  0  0  0
    3.6525  -14.3816  -29.2240 C   0  0  0  0  0  0  0  0  0  0  0  0
    5.8210   -9.0083  -30.5969 H   0  0  0  0  0  0  0  0  0  0  0  0
    4.5708   -9.0563  -29.3492 H   0  0  0  0  0  0  0  0  0  0  0  0
    2.5255   -5.0486  -29.1978 H   0  0  0  0  0  0  0  0  0  0  0  0
    0.9952   -5.8650  -29.4096 H   0  0  0  0  0  0  0  0  0  0  0  0
    1.2734   -4.3183  -30.1735 H   0  0  0  0  0  0  0  0  0  0  0  0
    1.5132   -6.7495  -33.0103 H   0  0  0  0  0  0  0  0  0  0  0  0
    0.6719   -5.3287  -32.4384 H   0  0  0  0  0  0  0  0  0  0  0  0
    0.3938   -6.8754  -31.6746 H   0  0  0  0  0  0  0  0  0  0  0  0
    5.1579  -12.2511  -33.7361 H   0  0  0  0  0  0  0  0  0  0  0  0
    4.5508  -11.1107  -34.9125 H   0  0  0  0  0  0  0  0  0  0  0  0
    3.8436  -12.7041  -34.7947 H   0  0  0  0  0  0  0  0  0  0  0  0
    1.2763  -10.4895  -33.2067 H   0  0  0  0  0  0  0  0  0  0  0  0
    1.5368  -11.6572  -34.4802 H   0  0  0  0  0  0  0  0  0  0  0  0
    2.2439  -10.0637  -34.5980 H   0  0  0  0  0  0  0  0  0  0  0  0
    6.3929   -3.8777  -30.8314 H   0  0  0  0  0  0  0  0  0  0  0  0
    6.4480   -2.5981  -32.0199 H   0  0  0  0  0  0  0  0  0  0  0  0
    7.5395   -3.9567  -32.1475 H   0  0  0  0  0  0  0  0  0  0  0  0
    4.6174  -13.9645  -29.4240 H   0  0  0  0  0  0  0  0  0  0  0  0
    3.6638  -15.4285  -29.4450 H   0  0  0  0  0  0  0  0  0  0  0  0
    3.4085  -14.2373  -28.1923 H   0  0  0  0  0  0  0  0  0  0  0  0
  1  8  1  0  0  0  0
  1 12  2  0  0  0  0
  1 13  1  0  0  0  0
  2 13  1  0  0  0  0
  2  7  1  0  0  0  0
  2 11  2  0  0  0  0
  3  8  1  0  0  0  0
  3 14  1  0  0  0  0
  3  6  2  0  0  0  0
  4  7  1  0  0  0  0
  4 15  1  0  0  0  0
  4  5  2  0  0  0  0
  5 10  1  0  0  0  0
  5 18  1  0  0  0  0
  6  9  1  0  0  0  0
  6 19  1  0  0  0  0
  7 16  2  0  0  0  0
  8 17  2  0  0  0  0
  9 12  1  0  0  0  0
  9 24  1  0  0  0  0
  9 25  1  0  0  0  0
 10 11  1  0  0  0  0
 10 26  1  0  0  0  0
 10 27  1  0  0  0  0
 11 23  1  0  0  0  0
 12 22  1  0  0  0  0
 13 30  1  0  0  0  0
 13 31  1  0  0  0  0
 14 20  2  0  0  0  0
 14 28  1  0  0  0  0
 15 21  2  0  0  0  0
 15 29  1  0  0  0  0
 24 32  1  0  0  0  0
 24 33  1  0  0  0  0
 24 34  1  0  0  0  0
 25 35  1  0  0  0  0
 25 36  1  0  0  0  0
 25 37  1  0  0  0  0
 26 38  1  0  0  0  0
 26 39  1  0  0  0  0
 26 40  1  0  0  0  0
 27 41  1  0  0  0  0
 27 42  1  0  0  0  0
 27 43  1  0  0  0  0
 28 44  1  0  0  0  0
 28 45  1  0  0  0  0
 28 46  1  0  0  0  0
 29 47  1  0  0  0  0
 29 48  1  0  0  0  0
 29 49  1  0  0  0  0
M  CHG  4  18  -1  19  -1  22  -1  23  -1
M  END
$$$$
