HTS1710-04414837-01
 OpenBabel03232612343D

 42 43  0  0  0  0  0  0  0  0999 V2000
    5.7654   -8.3144  -33.0950 C   0  0  0  0  0  0  0  0  0  0  0  0
    2.8780  -13.4868  -29.7497 S   0  0  0  0  0  0  0  0  0  0  0  0
    6.1043   -7.6414  -34.2522 C   0  0  0  0  0  0  0  0  0  0  0  0
    5.3302   -9.4750  -34.9267 C   0  0  0  0  0  0  0  0  0  0  0  0
    2.7057  -11.2312  -34.7960 C   0  0  0  0  0  0  0  0  0  0  0  0
    5.8563   -8.3136  -35.4218 O   0  0  0  0  0  0  0  0  0  0  0  0
    5.2458   -9.5500  -33.5620 C   0  0  0  0  0  0  0  0  0  0  0  0
    5.8865   -7.9002  -31.6762 C   0  0  0  0  0  0  0  0  0  0  0  0
    4.0142  -11.5501  -35.1809 N   0  0  0  0  0  0  0  0  0  0  0  0
    1.9112  -12.3051  -34.1089 C   0  0  0  0  0  0  0  0  0  0  0  0
    1.7899  -14.1396  -30.8818 N   0  0  0  0  0  0  0  0  0  0  0  0
    4.8751  -10.5625  -35.8625 C   0  0  0  0  0  0  0  0  0  0  0  0
    2.8392  -14.3671  -28.5939 O   0  0  0  0  0  0  0  0  0  0  0  0
    2.5699  -12.0689  -29.6605 O   0  0  0  0  0  0  0  0  0  0  0  0
    2.2362  -12.7124  -32.8014 C   0  0  0  0  0  0  0  0  0  0  0  0
    2.2121  -10.1348  -34.9969 O   0  0  0  0  0  0  0  0  0  0  0  0
    1.4822  -13.7139  -32.1577 C   0  0  0  0  0  0  0  0  0  0  0  0
    6.3109   -6.7862  -31.4294 O   0  5  0  0  0  0  0  0  0  0  0  0
    4.4906  -13.6674  -30.5465 C   0  0  0  0  0  0  0  0  0  0  0  0
    5.5491   -8.7127  -30.8330 O   0  0  0  0  0  0  0  0  0  0  0  0
    6.7039   -6.2592  -34.3207 C   0  0  0  0  0  0  0  0  0  0  0  0
    0.8064  -12.8809  -34.7609 C   0  0  0  0  0  0  0  0  0  0  0  0
    4.6013  -12.8978  -35.0323 C   0  0  0  0  0  0  0  0  0  0  0  0
    0.0508  -13.8766  -34.1229 C   0  0  0  0  0  0  0  0  0  0  0  0
    0.3905  -14.2949  -32.8264 C   0  0  0  0  0  0  0  0  0  0  0  0
    4.8835  -10.3336  -32.9966 H   0  0  0  0  0  0  0  0  0  0  0  0
    1.3063  -14.9428  -30.5813 H   0  0  0  0  0  0  0  0  0  0  0  0
    4.3245  -10.1196  -36.6660 H   0  0  0  0  0  0  0  0  0  0  0  0
    5.7428  -11.0728  -36.2250 H   0  0  0  0  0  0  0  0  0  0  0  0
    3.0317  -12.2747  -32.3110 H   0  0  0  0  0  0  0  0  0  0  0  0
    4.7368  -14.7059  -30.6220 H   0  0  0  0  0  0  0  0  0  0  0  0
    5.2346  -13.1659  -29.9636 H   0  0  0  0  0  0  0  0  0  0  0  0
    4.4548  -13.2372  -31.5255 H   0  0  0  0  0  0  0  0  0  0  0  0
    6.8332   -5.8769  -33.3298 H   0  0  0  0  0  0  0  0  0  0  0  0
    6.0504   -5.6137  -34.8696 H   0  0  0  0  0  0  0  0  0  0  0  0
    7.6536   -6.3063  -34.8116 H   0  0  0  0  0  0  0  0  0  0  0  0
    0.5505  -12.5704  -35.7112 H   0  0  0  0  0  0  0  0  0  0  0  0
    3.9053  -13.5366  -34.5298 H   0  0  0  0  0  0  0  0  0  0  0  0
    5.5032  -12.8329  -34.4603 H   0  0  0  0  0  0  0  0  0  0  0  0
    4.8204  -13.3000  -35.9993 H   0  0  0  0  0  0  0  0  0  0  0  0
   -0.7553  -14.3017  -34.6071 H   0  0  0  0  0  0  0  0  0  0  0  0
   -0.1634  -15.0318  -32.3625 H   0  0  0  0  0  0  0  0  0  0  0  0
  1  3  2  0  0  0  0
  1  7  1  0  0  0  0
  1  8  1  0  0  0  0
  2 11  1  0  0  0  0
  2 13  2  0  0  0  0
  2 14  2  0  0  0  0
  2 19  1  0  0  0  0
  3  6  1  0  0  0  0
  3 21  1  0  0  0  0
  4  7  2  0  0  0  0
  4 12  1  0  0  0  0
  4  6  1  0  0  0  0
  5  9  1  0  0  0  0
  5 10  1  0  0  0  0
  5 16  2  0  0  0  0
  7 26  1  0  0  0  0
  8 18  1  0  0  0  0
  8 20  2  0  0  0  0
  9 12  1  0  0  0  0
  9 23  1  0  0  0  0
 10 15  2  0  0  0  0
 10 22  1  0  0  0  0
 11 17  1  0  0  0  0
 11 27  1  0  0  0  0
 12 28  1  0  0  0  0
 12 29  1  0  0  0  0
 15 17  1  0  0  0  0
 15 30  1  0  0  0  0
 17 25  2  0  0  0  0
 19 31  1  0  0  0  0
 19 32  1  0  0  0  0
 19 33  1  0  0  0  0
 21 34  1  0  0  0  0
 21 35  1  0  0  0  0
 21 36  1  0  0  0  0
 22 24  2  0  0  0  0
 22 37  1  0  0  0  0
 23 38  1  0  0  0  0
 23 39  1  0  0  0  0
 23 40  1  0  0  0  0
 24 25  1  0  0  0  0
 24 41  1  0  0  0  0
 25 42  1  0  0  0  0
M  CHG  1  18  -1
M  END
$$$$
