##########                                Name: HTS1710-05227439-01
##########                    Molecular_Weight:             322.274
##########                DOCK_Rotatable_Bonds:                  11
##########                       Formal_Charge:                  -2
##########                     HBond_Acceptors:                   9
##########                        HBond_Donors:                   1
##########                         Heavy_Atoms:                  23
##########                          Grid_Score:          -75.127945
##########                     Grid_vdw_energy:          -34.199139
##########                      Grid_es_energy:          -40.928806
##########           Internal_energy_repulsive:           12.275128

@<TRIPOS>MOLECULE
HTS1710-05227439-01
 37 37 1 0 0
SMALL
USER_CHARGES


@<TRIPOS>ATOM
      1 C          -3.0188   -4.8484  -35.8594 C.3     1  UNL1        0.0788
      2 O          -2.9641   -6.2608  -35.5925 O.3     1  UNL1       -0.4951
      3 C          -1.7831   -6.9774  -35.5757 C.ar    1  UNL1        0.1203
      4 C          -0.8082   -6.8497  -36.5878 C.ar    1  UNL1       -0.0165
      5 C           0.3773   -7.6003  -36.5195 C.ar    1  UNL1       -0.0165
      6 C           0.6029   -8.4829  -35.4503 C.ar    1  UNL1        0.1214
      7 O           1.7885   -9.1953  -35.4327 O.3     1  UNL1       -0.4827
      8 C           1.9110  -10.5415  -34.9261 C.3     1  UNL1        0.1668
      9 C           2.8079  -10.5678  -33.6861 C.2     1  UNL1        0.2698
     10 O           4.0235  -10.4984  -33.7736 O.2     1  UNL1       -0.2703
     11 N           2.2023  -10.6770  -32.4429 N.am    1  UNL1       -0.2039
     12 N           2.9205  -10.7080  -31.2876 N.2     1  UNL1       -0.1830
     13 C           3.0002   -9.7565  -30.3978 C.2     1  UNL1        0.0819
     14 C           2.2378   -8.4337  -30.5956 C.3     1  UNL1       -0.0021
     15 C           2.7746   -7.5666  -31.7678 C.3     1  UNL1       -0.0077
     16 C           4.1527   -6.9590  -31.4691 C.2     1  UNL1        0.0421
     17 O           4.9389   -7.6491  -30.8440 O.co2   1  UNL1       -0.5498
     18 O           4.3559   -5.8183  -31.8456 O.co2   1  UNL1       -0.5498
     19 C           3.7729   -9.9481  -29.0921 C.2     1  UNL1        0.0873
     20 O           3.6515   -9.0723  -28.2516 O.co2   1  UNL1       -0.5433
     21 O           4.4699  -10.9352  -28.9278 O.co2   1  UNL1       -0.5433
     22 C          -0.3693   -8.6047  -34.4351 C.ar    1  UNL1       -0.0165
     23 C          -1.5555   -7.8567  -34.5046 C.ar    1  UNL1       -0.0165
     24 H          -4.0354   -4.5169  -35.8189 H       1  UNL1        0.0660
     25 H          -2.6187   -4.6536  -36.8324 H       1  UNL1        0.0660
     26 H          -2.4431   -4.3242  -35.1255 H       1  UNL1        0.0660
     27 H          -0.9661   -6.2050  -37.3781 H       1  UNL1        0.0655
     28 H           1.0884   -7.5026  -37.2611 H       1  UNL1        0.0655
     29 H           2.3385  -11.1651  -35.6833 H       1  UNL1        0.0795
     30 H           0.9393  -10.9004  -34.6581 H       1  UNL1        0.0795
     31 H           1.2207  -10.7340  -32.3950 H       1  UNL1        0.1773
     32 H           2.3126   -7.8637  -29.6931 H       1  UNL1        0.0333
     33 H           1.2276   -8.6907  -30.8368 H       1  UNL1        0.0333
     34 H           2.0821   -6.7719  -31.9514 H       1  UNL1        0.0328
     35 H           2.8791   -8.2037  -32.6211 H       1  UNL1        0.0328
     36 H          -0.2085   -9.2439  -33.6411 H       1  UNL1        0.0655
     37 H          -2.2660   -7.9539  -33.7625 H       1  UNL1        0.0655
@<TRIPOS>BOND
     1     1     2    1
     2     2     3    1
     3     3     4   ar
     4     4     5   ar
     5     5     6   ar
     6     6     7    1
     7     7     8    1
     8     8     9    1
     9     9    10    2
    10     9    11   am
    11    11    12    1
    12    12    13    2
    13    13    14    1
    14    14    15    1
    15    15    16    1
    16    16    17   ar
    17    16    18   ar
    18    13    19    1
    19    19    20   ar
    20    19    21   ar
    21     6    22   ar
    22    22    23   ar
    23     3    23   ar
    24     1    24    1
    25     1    25    1
    26     1    26    1
    27     4    27    1
    28     5    28    1
    29     8    29    1
    30     8    30    1
    31    11    31    1
    32    14    32    1
    33    14    33    1
    34    15    34    1
    35    15    35    1
    36    22    36    1
    37    23    37    1
@<TRIPOS>SUBSTRUCTURE
     1 UNL1        1 TEMP              0 ****  ****    0 ROOT


