##########                                Name: HTS1710-00300511-01
##########                    Molecular_Weight:             339.349
##########                DOCK_Rotatable_Bonds:                   6
##########                       Formal_Charge:                  -2
##########                     HBond_Acceptors:                   9
##########                        HBond_Donors:                   1
##########                         Heavy_Atoms:                  23
##########                          Grid_Score:          -75.181549
##########                     Grid_vdw_energy:          -38.558994
##########                      Grid_es_energy:          -36.622559
##########           Internal_energy_repulsive:           10.983955

@<TRIPOS>MOLECULE
HTS1710-00300511-01
 38 39 1 0 0
SMALL
USER_CHARGES


@<TRIPOS>ATOM
      1 C           3.7827  -10.3430  -30.1205 C.2     1  UNL1        0.0142
      2 C           4.0931  -11.6398  -30.4302 C.2     1  UNL1       -0.0769
      3 N           4.4770  -10.5065  -32.3070 N.2     1  UNL1       -0.3024
      4 S           5.4469  -13.9293  -27.5799 S.O2    1  UNL1        0.0270
      5 C           4.1078   -9.6581  -31.3499 C.2     1  UNL1        0.0695
      6 O           4.5037  -11.8031  -31.7129 O.co2   1  UNL1       -0.7129
      7 C           3.8633  -12.8630  -29.5603 C.3     1  UNL1        0.0392
      8 C           3.1470   -9.8398  -28.8611 C.2     1  UNL1        0.0729
      9 N           5.1784  -13.4194  -29.1816 N.3     1  UNL1       -0.1887
     10 C           4.0658   -8.1897  -31.4984 C.ar    1  UNL1        0.0004
     11 O           4.2931  -13.5051  -26.8064 O.2     1  UNL1       -0.1585
     12 O           6.7832  -13.4637  -27.2452 O.2     1  UNL1       -0.1585
     13 O           2.4331  -10.5970  -28.2295 O.co2   1  UNL1       -0.5446
     14 C           5.2730   -7.4645  -31.4242 C.ar    1  UNL1       -0.0491
     15 C           2.8571   -7.4646  -31.5851 C.ar    1  UNL1       -0.0491
     16 C           5.5124  -15.7314  -27.6909 C.3     1  UNL1        0.0705
     17 O           3.4007   -8.7048  -28.5023 O.co2   1  UNL1       -0.5446
     18 C           4.0785   -5.3551  -31.6646 C.ar    1  UNL1        0.1201
     19 C           5.2807   -6.0638  -31.5226 C.ar    1  UNL1       -0.0193
     20 C           2.8593   -6.0637  -31.6832 C.ar    1  UNL1       -0.0193
     21 C           2.9921  -13.9381  -30.2613 C.3     1  UNL1       -0.0450
     22 O           4.1363   -3.9782  -31.7596 O.3     1  UNL1       -0.4951
     23 C           5.3386   -3.2282  -31.5154 C.3     1  UNL1        0.0788
     24 H           3.3193  -12.5634  -28.6890 H       1  UNL1        0.0513
     25 H           5.3414  -14.2285  -29.7811 H       1  UNL1        0.1482
     26 H           6.1634   -7.9704  -31.2959 H       1  UNL1        0.0625
     27 H           1.9585   -7.9720  -31.5764 H       1  UNL1        0.0625
     28 H           4.5420  -16.1091  -27.9367 H       1  UNL1        0.0479
     29 H           5.8248  -16.1356  -26.7507 H       1  UNL1        0.0479
     30 H           6.2092  -16.0168  -28.4511 H       1  UNL1        0.0479
     31 H           6.1765   -5.5525  -31.4902 H       1  UNL1        0.0654
     32 H           1.9673   -5.5519  -31.7690 H       1  UNL1        0.0654
     33 H           3.4885  -14.2781  -31.1462 H       1  UNL1        0.0248
     34 H           2.0453  -13.5143  -30.5240 H       1  UNL1        0.0248
     35 H           2.8414  -14.7636  -29.5974 H       1  UNL1        0.0248
     36 H           5.1414   -2.1850  -31.6484 H       1  UNL1        0.0660
     37 H           6.0980   -3.5381  -32.2026 H       1  UNL1        0.0660
     38 H           5.6710   -3.4035  -30.5136 H       1  UNL1        0.0660
@<TRIPOS>BOND
     1     1     2    2
     2     3     5    2
     3     4     9    1
     4     1     5    1
     5     2     6    1
     6     2     7    1
     7     1     8    1
     8     7     9    1
     9     5    10    1
    10     4    11    2
    11     4    12    2
    12     8    13   ar
    13    10    14   ar
    14    10    15   ar
    15     4    16    1
    16     8    17   ar
    17    18    20   ar
    18    14    19   ar
    19    15    20   ar
    20     7    21    1
    21    18    22    1
    22    22    23    1
    23     3     6    1
    24    18    19   ar
    25     7    24    1
    26     9    25    1
    27    14    26    1
    28    15    27    1
    29    16    28    1
    30    16    29    1
    31    16    30    1
    32    19    31    1
    33    20    32    1
    34    21    33    1
    35    21    34    1
    36    21    35    1
    37    23    36    1
    38    23    37    1
    39    23    38    1
@<TRIPOS>SUBSTRUCTURE
     1 UNL1        1 TEMP              0 ****  ****    0 ROOT


