##########                                Name: HTS1710-04806202-01
##########                    Molecular_Weight:             362.339
##########                DOCK_Rotatable_Bonds:                   9
##########                       Formal_Charge:                  -2
##########                     HBond_Acceptors:                   9
##########                        HBond_Donors:                   3
##########                         Heavy_Atoms:                  26
##########                          Grid_Score:          -75.098450
##########                     Grid_vdw_energy:          -41.849438
##########                      Grid_es_energy:          -33.249008
##########           Internal_energy_repulsive:           14.428794

@<TRIPOS>MOLECULE
HTS1710-04806202-01
 44 45 1 0 0
SMALL
USER_CHARGES


@<TRIPOS>ATOM
      1 C           2.6787  -13.9634  -29.3162 C.2     1  UNL1       -0.0046
      2 C           3.5658  -13.3260  -28.4903 C.2     1  UNL1       -0.0110
      3 O           4.1304  -12.1345  -28.8393 O.co2   1  UNL1       -0.5831
      4 C           3.9038  -11.4699  -30.0133 C.2     1  UNL1        0.0683
      5 C           2.9522  -12.1230  -30.9783 C.2     1  UNL1        0.0567
      6 C           2.3013  -13.4122  -30.6192 C.2     1  UNL1        0.1897
      7 O           1.5159  -13.9943  -31.3485 O.2     1  UNL1       -0.2872
      8 C           2.6538  -11.5843  -32.2103 C.2     1  UNL1        0.0021
      9 N           3.1893  -10.4066  -32.6798 N.pl3   1  UNL1       -0.3465
     10 C           2.9510  -10.0015  -34.0716 C.3     1  UNL1        0.0361
     11 O           4.4639  -10.4081  -30.2265 O.2     1  UNL1       -0.5452
     12 C           3.9427  -10.6771  -35.0573 C.3     1  UNL1        0.0859
     13 C           5.4507  -10.4088  -34.7607 C.3     1  UNL1        0.0361
     14 O           3.6426  -10.2714  -36.3903 O.3     1  UNL1       -0.3887
     15 N           5.7885   -8.9734  -34.7685 N.pl3   1  UNL1       -0.3465
     16 C           5.7475   -8.2254  -33.6092 C.2     1  UNL1        0.0021
     17 C           6.0969   -6.8953  -33.5223 C.2     1  UNL1        0.0567
     18 C           6.0368   -6.1183  -32.2373 C.2     1  UNL1        0.0683
     19 O           6.3115   -4.7804  -32.3222 O.co2   1  UNL1       -0.5831
     20 C           6.5187   -6.2167  -34.7790 C.2     1  UNL1        0.1897
     21 C           6.7747   -4.7800  -34.6605 C.2     1  UNL1       -0.0046
     22 C           6.6487   -4.1195  -33.4681 C.2     1  UNL1       -0.0110
     23 O           6.6395   -6.7926  -35.8469 O.2     1  UNL1       -0.2872
     24 O           5.7609   -6.6124  -31.1576 O.2     1  UNL1       -0.5452
     25 C           3.9455  -13.9163  -27.1586 C.3     1  UNL1       -0.0331
     26 C           6.8930   -2.6374  -33.3751 C.3     1  UNL1       -0.0331
     27 H           2.2642  -14.8580  -29.0115 H       1  UNL1        0.0664
     28 H           1.9907  -12.0928  -32.8160 H       1  UNL1        0.0786
     29 H           3.7298   -9.8378  -32.0852 H       1  UNL1        0.1456
     30 H           3.0616   -8.9398  -34.1452 H       1  UNL1        0.0487
     31 H           1.9617  -10.3096  -34.3385 H       1  UNL1        0.0487
     32 H           3.8040  -11.7300  -34.9270 H       1  UNL1        0.0624
     33 H           6.0388  -10.9024  -35.5061 H       1  UNL1        0.0487
     34 H           5.6575  -10.7830  -33.7798 H       1  UNL1        0.0487
     35 H           4.2575  -10.7011  -37.0053 H       1  UNL1        0.2099
     36 H           6.0474   -8.5415  -35.6145 H       1  UNL1        0.1456
     37 H           5.4329   -8.6957  -32.7462 H       1  UNL1        0.0786
     38 H           7.0582   -4.2503  -35.4996 H       1  UNL1        0.0664
     39 H           3.4305  -14.8438  -27.0197 H       1  UNL1        0.0283
     40 H           3.6746  -13.2374  -26.3773 H       1  UNL1        0.0283
     41 H           5.0015  -14.0874  -27.1324 H       1  UNL1        0.0283
     42 H           6.7445   -2.3141  -32.3660 H       1  UNL1        0.0283
     43 H           6.2107   -2.1225  -34.0186 H       1  UNL1        0.0283
     44 H           7.8973   -2.4220  -33.6745 H       1  UNL1        0.0283
@<TRIPOS>BOND
     1    12    13    1
     2    12    14    1
     3     6     7    2
     4    13    15    1
     5     1     2    2
     6    15    16    1
     7     5     8    2
     8    16    17    2
     9    17    18    1
    10     1     6    1
    11     8     9    1
    12     2     3    1
    13    17    20    1
    14    18    19    1
    15    19    22    1
    16    20    21    1
    17     9    10    1
    18     3     4    1
    19    21    22    2
    20     4    11    2
    21    20    23    2
    22     4     5    1
    23    18    24    2
    24    10    12    1
    25     2    25    1
    26     5     6    1
    27    22    26    1
    28     1    27    1
    29     8    28    1
    30     9    29    1
    31    10    30    1
    32    10    31    1
    33    12    32    1
    34    13    33    1
    35    13    34    1
    36    14    35    1
    37    15    36    1
    38    16    37    1
    39    21    38    1
    40    25    39    1
    41    25    40    1
    42    25    41    1
    43    26    42    1
    44    26    43    1
    45    26    44    1
@<TRIPOS>SUBSTRUCTURE
     1 UNL1        1 TEMP              0 ****  ****    0 ROOT


