##########                                Name: HTS1710-01574048-01
##########                    Molecular_Weight:             335.337
##########                DOCK_Rotatable_Bonds:                   7
##########                       Formal_Charge:                  -2
##########                     HBond_Acceptors:                   8
##########                        HBond_Donors:                   1
##########                         Heavy_Atoms:                  23
##########                          Grid_Score:          -75.119965
##########                     Grid_vdw_energy:          -37.329391
##########                      Grid_es_energy:          -37.790577
##########           Internal_energy_repulsive:            7.933256

@<TRIPOS>MOLECULE
HTS1710-01574048-01
 36 37 1 0 0
SMALL
USER_CHARGES


@<TRIPOS>ATOM
      1 O           2.9475   -9.6675  -28.7034 O.co2   1  UNL1       -0.5498
      2 C           2.7140  -10.8583  -28.5957 C.2     1  UNL1        0.0418
      3 O           2.2617  -11.3994  -27.6015 O.co2   1  UNL1       -0.5498
      4 C           3.0325  -11.7414  -29.8162 C.3     1  UNL1       -0.0114
      5 C           4.1572  -11.1937  -30.7411 C.3     1  UNL1       -0.0256
      6 C           3.6569  -10.1638  -31.7893 C.3     1  UNL1        0.0683
      7 N           3.9455  -10.6440  -33.1586 N.3     1  UNL1       -0.1814
      8 S           2.6942  -11.3769  -34.0496 S.O2    1  UNL1        0.0590
      9 O           1.8470  -11.9594  -33.0049 O.2     1  UNL1       -0.1530
     10 O           3.3462  -12.1811  -35.0884 O.2     1  UNL1       -0.1530
     11 C           1.8101   -9.9840  -34.7725 C.ar    1  UNL1        0.1059
     12 C           2.0396   -9.6348  -36.1144 C.ar    1  UNL1       -0.0348
     13 C           1.3120   -8.5919  -36.7069 C.ar    1  UNL1       -0.0522
     14 C           0.3466   -7.8939  -35.9617 C.ar    1  UNL1       -0.0178
     15 C          -0.3941   -6.8572  -36.5568 C.ar    1  UNL1       -0.0540
     16 C          -1.3631   -6.1666  -35.8101 C.ar    1  UNL1       -0.0612
     17 C          -1.5938   -6.5109  -34.4685 C.ar    1  UNL1       -0.0612
     18 C          -0.8574   -7.5465  -33.8703 C.ar    1  UNL1       -0.0540
     19 C           0.1148   -8.2409  -34.6139 C.ar    1  UNL1       -0.0160
     20 C           0.8468   -9.2850  -34.0223 C.ar    1  UNL1       -0.0276
     21 C           4.2945   -8.7806  -31.5709 C.2     1  UNL1        0.0603
     22 O           5.4779   -8.7558  -31.2801 O.co2   1  UNL1       -0.5481
     23 O           3.5761   -7.8016  -31.6883 O.co2   1  UNL1       -0.5481
     24 H           2.1402  -11.8387  -30.3988 H       1  UNL1        0.0325
     25 H           3.3876  -12.6737  -29.4293 H       1  UNL1        0.0325
     26 H           4.5981  -12.0182  -31.2615 H       1  UNL1        0.0288
     27 H           4.8585  -10.6851  -30.1131 H       1  UNL1        0.0288
     28 H           2.5988  -10.0626  -31.6663 H       1  UNL1        0.0538
     29 H           4.7003  -11.3261  -33.0845 H       1  UNL1        0.1487
     30 H           2.7457  -10.1473  -36.6656 H       1  UNL1        0.0637
     31 H           1.4861   -8.3368  -37.6917 H       1  UNL1        0.0624
     32 H          -0.2255   -6.6034  -37.5428 H       1  UNL1        0.0624
     33 H          -1.9057   -5.4058  -36.2479 H       1  UNL1        0.0618
     34 H          -2.3054   -6.0021  -33.9211 H       1  UNL1        0.0618
     35 H          -1.0296   -7.7985  -32.8845 H       1  UNL1        0.0624
     36 H           0.6774   -9.5391  -33.0365 H       1  UNL1        0.0643
@<TRIPOS>BOND
     1     1     2   ar
     2     2     3   ar
     3     2     4    1
     4     4     5    1
     5     5     6    1
     6     6     7    1
     7     7     8    1
     8     8     9    2
     9     8    10    2
    10     8    11    1
    11    11    12   ar
    12    12    13   ar
    13    13    14   ar
    14    14    15   ar
    15    15    16   ar
    16    16    17   ar
    17    17    18   ar
    18    18    19   ar
    19    14    19   ar
    20    19    20   ar
    21    11    20   ar
    22     6    21    1
    23    21    22   ar
    24    21    23   ar
    25     4    24    1
    26     4    25    1
    27     5    26    1
    28     5    27    1
    29     6    28    1
    30     7    29    1
    31    12    30    1
    32    13    31    1
    33    15    32    1
    34    16    33    1
    35    17    34    1
    36    18    35    1
    37    20    36    1
@<TRIPOS>SUBSTRUCTURE
     1 UNL1        1 TEMP              0 ****  ****    0 ROOT


