##########                                Name: HTS1710-05335768-01
##########                    Molecular_Weight:              305.31
##########                DOCK_Rotatable_Bonds:                   7
##########                       Formal_Charge:                  -2
##########                     HBond_Acceptors:                   7
##########                        HBond_Donors:                   0
##########                         Heavy_Atoms:                  22
##########                          Grid_Score:          -78.096359
##########                     Grid_vdw_energy:          -37.161339
##########                      Grid_es_energy:          -40.935017
##########           Internal_energy_repulsive:            9.308616

@<TRIPOS>MOLECULE
HTS1710-05335768-01
 39 40 1 0 0
SMALL
USER_CHARGES


@<TRIPOS>ATOM
      1 C          -0.2397   -8.5925  -34.8955 C.3     1  UNL1       -0.0597
      2 C           0.4135   -9.9782  -35.0843 C.3     1  UNL1       -0.0097
      3 C           1.7424   -9.8999  -35.8072 C.ar    1  UNL1        0.0880
      4 N           2.0779   -8.9959  -36.7270 N.ar    1  UNL1       -0.0831
      5 O           3.4223   -9.3242  -37.1528 O.2     1  UNL1       -0.3624
      6 C           3.7876  -10.4260  -36.4489 C.ar    1  UNL1        0.1291
      7 C           2.8057  -10.8242  -35.6117 C.ar    1  UNL1        0.0316
      8 C           2.8314  -12.0230  -34.6927 C.3     1  UNL1        0.0445
      9 N           3.0079  -11.6187  -33.2780 N.am    1  UNL1       -0.2961
     10 C           1.9796  -12.1421  -32.3620 C.3     1  UNL1        0.0038
     11 C           4.2634  -11.2644  -32.7826 C.2     1  UNL1        0.2460
     12 O           5.2526  -11.2417  -33.4954 O.2     1  UNL1       -0.2700
     13 C           4.3121  -10.8772  -31.3461 C.2     1  UNL1        0.0284
     14 C           4.3904  -11.7580  -30.2347 C.2     1  UNL1       -0.0531
     15 C           4.5379  -13.2548  -30.3121 C.3     1  UNL1       -0.0401
     16 C           4.3546  -10.9881  -29.1068 C.2     1  UNL1       -0.1303
     17 O           4.2207   -9.6515  -29.3639 O.co2   1  UNL1       -0.7870
     18 C           4.1754   -9.6385  -30.7388 C.2     1  UNL1       -0.1000
     19 C           3.7291   -8.3548  -31.4176 C.3     1  UNL1       -0.0004
     20 C           4.8358   -7.3093  -31.6208 C.2     1  UNL1        0.0449
     21 O           5.9842   -7.7114  -31.6798 O.co2   1  UNL1       -0.5495
     22 O           4.4899   -6.1447  -31.7060 O.co2   1  UNL1       -0.5495
     23 H          -1.1717   -8.7045  -34.3818 H       1  UNL1        0.0233
     24 H          -0.4114   -8.1457  -35.8525 H       1  UNL1        0.0233
     25 H           0.4110   -7.9666  -34.3213 H       1  UNL1        0.0233
     26 H          -0.2503  -10.5958  -35.6525 H       1  UNL1        0.0327
     27 H           0.5961  -10.3864  -34.1122 H       1  UNL1        0.0327
     28 H           4.6999  -10.8993  -36.5419 H       1  UNL1        0.1061
     29 H           3.6425  -12.6609  -34.9759 H       1  UNL1        0.0515
     30 H           1.8958  -12.5345  -34.7817 H       1  UNL1        0.0515
     31 H           1.0881  -12.3586  -32.9127 H       1  UNL1        0.0429
     32 H           1.7659  -11.4111  -31.6104 H       1  UNL1        0.0429
     33 H           2.3379  -13.0369  -31.8974 H       1  UNL1        0.0429
     34 H           4.5309  -13.5613  -31.3372 H       1  UNL1        0.0277
     35 H           3.7251  -13.7205  -29.7951 H       1  UNL1        0.0277
     36 H           5.4624  -13.5460  -29.8590 H       1  UNL1        0.0277
     37 H           4.4220  -11.3772  -28.1533 H       1  UNL1        0.0458
     38 H           2.9606   -7.9125  -30.8187 H       1  UNL1        0.0362
     39 H           3.3977   -8.6335  -32.3961 H       1  UNL1        0.0362
@<TRIPOS>BOND
     1     1     2    1
     2     2     3    1
     3     3     4   ar
     4     4     5   ar
     5     5     6   ar
     6     6     7   ar
     7     3     7   ar
     8     7     8    1
     9     8     9    1
    10     9    10    1
    11     9    11   am
    12    11    12    2
    13    11    13    1
    14    13    14    1
    15    14    15    1
    16    14    16    2
    17    16    17    1
    18    17    18    1
    19    13    18    2
    20    18    19    1
    21    19    20    1
    22    20    21   ar
    23    20    22   ar
    24     1    23    1
    25     1    24    1
    26     1    25    1
    27     2    26    1
    28     2    27    1
    29     6    28    1
    30     8    29    1
    31     8    30    1
    32    10    31    1
    33    10    32    1
    34    10    33    1
    35    15    34    1
    36    15    35    1
    37    15    36    1
    38    16    37    1
    39    19    38    1
    40    19    39    1
@<TRIPOS>SUBSTRUCTURE
     1 UNL1        1 TEMP              0 ****  ****    0 ROOT


