##########                                Name: HTS1710-04739359-01
##########                    Molecular_Weight:             315.305
##########                DOCK_Rotatable_Bonds:                   6
##########                       Formal_Charge:                  -2
##########                     HBond_Acceptors:                   7
##########                        HBond_Donors:                   1
##########                         Heavy_Atoms:                  23
##########                          Grid_Score:          -76.833824
##########                     Grid_vdw_energy:          -39.082760
##########                      Grid_es_energy:          -37.751064
##########           Internal_energy_repulsive:            9.804228

@<TRIPOS>MOLECULE
HTS1710-04739359-01
 38 40 1 0 0
SMALL
USER_CHARGES


@<TRIPOS>ATOM
      1 O           5.0253   -8.9963  -36.1334 O.co2   1  UNL1       -0.5446
      2 C           4.0178   -9.4423  -36.6549 C.2     1  UNL1        0.0717
      3 O           3.5988   -9.1185  -37.7522 O.co2   1  UNL1       -0.5446
      4 C           3.2282  -10.4757  -35.8796 C.ar    1  UNL1       -0.0024
      5 C           1.8684  -10.7114  -36.1757 C.ar    1  UNL1       -0.0529
      6 C           1.1374  -11.6715  -35.4584 C.ar    1  UNL1       -0.0608
      7 C           1.7529  -12.4074  -34.4372 C.ar    1  UNL1       -0.0570
      8 C           3.1053  -12.1877  -34.1275 C.ar    1  UNL1       -0.0297
      9 C           3.7769  -12.9972  -33.0279 C.3     1  UNL1        0.0372
     10 N           3.4969  -12.3715  -31.7324 N.am    1  UNL1       -0.3060
     11 C           4.0986  -11.1854  -31.3333 C.2     1  UNL1        0.2618
     12 O           4.8919  -10.6434  -32.0853 O.2     1  UNL1       -0.2686
     13 C           3.7390  -10.6442  -29.9997 C.2     1  UNL1        0.1158
     14 N           3.8069   -9.3286  -29.6692 N.2     1  UNL1       -0.2657
     15 C           3.3954   -9.3082  -28.4127 C.2     1  UNL1       -0.0365
     16 O           3.0492  -10.5180  -27.8488 O.co2   1  UNL1       -0.7724
     17 C           3.2922  -11.3442  -28.9128 C.2     1  UNL1       -0.0569
     18 C           3.0697  -12.8403  -28.8209 C.3     1  UNL1        0.0731
     19 C           2.4646  -13.3574  -27.4954 C.3     1  UNL1       -0.0214
     20 C           3.0923  -14.7519  -27.3157 C.3     1  UNL1       -0.0268
     21 C           4.0715  -14.8910  -28.4973 C.3     1  UNL1        0.0485
     22 O           4.3256  -13.5329  -28.8820 O.3     1  UNL1       -0.3730
     23 C           3.8367  -11.2250  -34.8474 C.ar    1  UNL1       -0.0482
     24 H           1.4075  -10.1732  -36.9261 H       1  UNL1        0.0624
     25 H           0.1438  -11.8357  -35.6838 H       1  UNL1        0.0618
     26 H           1.2118  -13.1119  -33.9119 H       1  UNL1        0.0621
     27 H           4.8338  -13.0196  -33.1940 H       1  UNL1        0.0512
     28 H           3.3979  -13.9978  -33.0343 H       1  UNL1        0.0512
     29 H           2.8588  -12.8081  -31.1229 H       1  UNL1        0.1494
     30 H           3.3360   -8.4272  -27.8786 H       1  UNL1        0.0668
     31 H           2.3936  -13.0231  -29.6298 H       1  UNL1        0.0635
     32 H           1.3992  -13.4265  -27.5657 H       1  UNL1        0.0294
     33 H           2.6658  -12.7066  -26.6703 H       1  UNL1        0.0294
     34 H           2.3410  -15.5127  -27.3559 H       1  UNL1        0.0288
     35 H           3.5797  -14.8592  -26.3692 H       1  UNL1        0.0288
     36 H           3.6260  -15.4393  -29.3009 H       1  UNL1        0.0560
     37 H           4.9622  -15.4253  -28.2402 H       1  UNL1        0.0560
     38 H           4.8301  -11.0640  -34.6187 H       1  UNL1        0.0627
@<TRIPOS>BOND
     1     1     2   ar
     2     2     3   ar
     3     2     4    1
     4     4     5   ar
     5     5     6   ar
     6     6     7   ar
     7     7     8   ar
     8     8     9    1
     9     9    10    1
    10    10    11   am
    11    11    12    2
    12    11    13    1
    13    13    14    1
    14    14    15    2
    15    15    16    1
    16    16    17    1
    17    13    17    2
    18    17    18    1
    19    18    19    1
    20    19    20    1
    21    20    21    1
    22    21    22    1
    23    18    22    1
    24     8    23   ar
    25     4    23   ar
    26     5    24    1
    27     6    25    1
    28     7    26    1
    29     9    27    1
    30     9    28    1
    31    10    29    1
    32    15    30    1
    33    18    31    1
    34    19    32    1
    35    19    33    1
    36    20    34    1
    37    20    35    1
    38    21    36    1
    39    21    37    1
    40    23    38    1
@<TRIPOS>SUBSTRUCTURE
     1 UNL1        1 TEMP              0 ****  ****    0 ROOT


