HTS1710-01240407-01
 OpenBabel03232612353D

 27 28  0  0  0  0  0  0  0  0999 V2000
    5.4281   -8.6429  -32.8554 C   0  0  0  0  0  0  0  0  0  0  0  0
    4.9472   -9.1321  -34.0523 C   0  0  0  0  0  0  0  0  0  0  0  0
    5.0830   -9.0077  -31.4600 C   0  0  0  0  0  0  0  0  0  0  0  0
   -2.0500   -7.3062  -33.5584 C   0  0  0  0  0  0  0  0  0  0  0  0
    6.3691   -7.6571  -33.2521 C   0  0  0  0  0  0  0  0  0  0  0  0
    5.4785   -8.5541  -35.1765 O   0  0  0  0  0  0  0  0  0  0  0  0
    6.3490   -7.6530  -34.6228 C   0  0  0  0  0  0  0  0  0  0  0  0
   -0.7421   -7.9513  -33.9627 C   0  0  0  0  0  0  0  0  0  0  0  0
    3.8944  -10.2000  -34.2132 C   0  0  0  0  0  0  0  0  0  0  0  0
    4.1760   -9.8083  -31.3063 O   0  5  0  0  0  0  0  0  0  0  0  0
   -2.2580   -7.1522  -32.3668 O   0  5  0  0  0  0  0  0  0  0  0  0
    0.0862   -8.5646  -32.9975 C   0  0  0  0  0  0  0  0  0  0  0  0
   -0.3259   -7.9527  -35.3108 C   0  0  0  0  0  0  0  0  0  0  0  0
    2.8868   -9.7454  -35.1358 O   0  0  0  0  0  0  0  0  0  0  0  0
    5.7146   -8.5015  -30.5499 O   0  0  0  0  0  0  0  0  0  0  0  0
    1.7059   -9.1617  -34.7202 C   0  0  0  0  0  0  0  0  0  0  0  0
   -2.8174   -6.9810  -34.4484 O   0  0  0  0  0  0  0  0  0  0  0  0
    0.8888   -8.5507  -35.6832 C   0  0  0  0  0  0  0  0  0  0  0  0
    1.2989   -9.1672  -33.3703 C   0  0  0  0  0  0  0  0  0  0  0  0
    6.9486   -7.0658  -32.6360 H   0  0  0  0  0  0  0  0  0  0  0  0
    6.9395   -7.0243  -35.1895 H   0  0  0  0  0  0  0  0  0  0  0  0
    3.4437  -10.4024  -33.2641 H   0  0  0  0  0  0  0  0  0  0  0  0
    4.3470  -11.0930  -34.5908 H   0  0  0  0  0  0  0  0  0  0  0  0
   -0.2028   -8.5702  -32.0068 H   0  0  0  0  0  0  0  0  0  0  0  0
   -0.9195   -7.5102  -36.0297 H   0  0  0  0  0  0  0  0  0  0  0  0
    1.1827   -8.5407  -36.6724 H   0  0  0  0  0  0  0  0  0  0  0  0
    1.8930   -9.6147  -32.6549 H   0  0  0  0  0  0  0  0  0  0  0  0
  1  2  2  0  0  0  0
  1  3  1  0  0  0  0
  1  5  1  0  0  0  0
  2  6  1  0  0  0  0
  2  9  1  0  0  0  0
  3 10  1  0  0  0  0
  3 15  2  0  0  0  0
  4  8  1  0  0  0  0
  4 11  1  0  0  0  0
  4 17  2  0  0  0  0
  5  7  2  0  0  0  0
  5 20  1  0  0  0  0
  6  7  1  0  0  0  0
  7 21  1  0  0  0  0
  8 12  2  0  0  0  0
  8 13  1  0  0  0  0
  9 14  1  0  0  0  0
  9 22  1  0  0  0  0
  9 23  1  0  0  0  0
 12 19  1  0  0  0  0
 12 24  1  0  0  0  0
 13 18  2  0  0  0  0
 13 25  1  0  0  0  0
 14 16  1  0  0  0  0
 16 18  1  0  0  0  0
 16 19  2  0  0  0  0
 18 26  1  0  0  0  0
 19 27  1  0  0  0  0
M  CHG  2  10  -1  11  -1
M  END
$$$$
