HTS1710-02656637-01
 OpenBabel03232612353D

 52 53  0  0  1  0  0  0  0  0999 V2000
   -0.9674   -6.3190  -34.7143 C   0  0  1  0  0  0  0  0  0  0  0  0
    3.2707  -11.8709  -30.7267 C   0  0  1  0  0  0  0  0  0  0  0  0
   -2.4695   -6.0113  -34.4085 C   0  0  2  0  0  0  0  0  0  0  0  0
    2.9765  -11.0540  -29.4263 C   0  0  2  0  0  0  0  0  0  0  0  0
   -0.5302   -7.6481  -34.0700 C   0  0  0  0  0  0  0  0  0  0  0  0
    3.3003  -10.9595  -31.9690 C   0  0  0  0  0  0  0  0  0  0  0  0
   -3.3904   -7.2251  -34.6687 C   0  0  0  0  0  0  0  0  0  0  0  0
    3.8573   -9.7897  -29.2996 C   0  0  0  0  0  0  0  0  0  0  0  0
   -0.7647   -7.9186  -32.9019 O   0  0  0  0  0  0  0  0  0  0  0  0
    4.3429  -10.5985  -32.4912 O   0  0  0  0  0  0  0  0  0  0  0  0
   -4.0444   -7.2083  -35.6974 O   0  5  0  0  0  0  0  0  0  0  0  0
    3.4575   -8.9158  -28.5507 O   0  5  0  0  0  0  0  0  0  0  0  0
    0.1443   -8.5640  -34.8665 N   0  0  0  0  0  0  0  0  0  0  0  0
    2.0847  -10.5639  -32.5128 N   0  0  0  0  0  0  0  0  0  0  0  0
    4.8914   -9.7408  -29.9423 O   0  0  0  0  0  0  0  0  0  0  0  0
   -3.4086   -8.1219  -33.8443 O   0  0  0  0  0  0  0  0  0  0  0  0
    4.5448  -12.7589  -30.6089 C   0  0  0  0  0  0  0  0  0  0  0  0
   -0.6341   -6.2532  -36.2336 C   0  0  0  0  0  0  0  0  0  0  0  0
   -2.9705   -4.7262  -35.1312 C   0  0  0  0  0  0  0  0  0  0  0  0
    3.0353  -11.9389  -28.1470 C   0  0  0  0  0  0  0  0  0  0  0  0
    0.6078   -9.8600  -34.3619 C   0  0  0  0  0  0  0  0  0  0  0  0
    1.9914   -9.6981  -33.6933 C   0  0  0  0  0  0  0  0  0  0  0  0
   -1.0931   -4.9222  -36.8695 C   0  0  0  0  0  0  0  0  0  0  0  0
   -2.5973   -4.6624  -36.6335 C   0  0  0  0  0  0  0  0  0  0  0  0
    4.2914  -12.8429  -28.0620 C   0  0  0  0  0  0  0  0  0  0  0  0
    4.5094  -13.6605  -29.3545 C   0  0  0  0  0  0  0  0  0  0  0  0
   -0.3895   -5.5401  -34.2623 H   0  0  0  0  0  0  0  0  0  0  0  0
    2.4562  -12.5531  -30.8537 H   0  0  0  0  0  0  0  0  0  0  0  0
   -2.5243   -5.8124  -33.3585 H   0  0  0  0  0  0  0  0  0  0  0  0
    1.9682  -10.7078  -29.5176 H   0  0  0  0  0  0  0  0  0  0  0  0
    0.3182   -8.3337  -35.8078 H   0  0  0  0  0  0  0  0  0  0  0  0
    1.2530  -10.8771  -32.0891 H   0  0  0  0  0  0  0  0  0  0  0  0
    5.4043  -12.1239  -30.5536 H   0  0  0  0  0  0  0  0  0  0  0  0
    4.5860  -13.3928  -31.4699 H   0  0  0  0  0  0  0  0  0  0  0  0
   -1.1277   -7.0619  -36.7309 H   0  0  0  0  0  0  0  0  0  0  0  0
    0.4281   -6.3226  -36.3423 H   0  0  0  0  0  0  0  0  0  0  0  0
   -2.5426   -3.8764  -34.6417 H   0  0  0  0  0  0  0  0  0  0  0  0
   -4.0391   -4.7375  -35.0778 H   0  0  0  0  0  0  0  0  0  0  0  0
    2.1682  -12.5656  -28.1315 H   0  0  0  0  0  0  0  0  0  0  0  0
    3.0773  -11.2720  -27.3114 H   0  0  0  0  0  0  0  0  0  0  0  0
    0.6853  -10.5507  -35.1755 H   0  0  0  0  0  0  0  0  0  0  0  0
   -0.0916  -10.2285  -33.6408 H   0  0  0  0  0  0  0  0  0  0  0  0
    2.7558   -9.9681  -34.3917 H   0  0  0  0  0  0  0  0  0  0  0  0
    2.1177   -8.6793  -33.3916 H   0  0  0  0  0  0  0  0  0  0  0  0
   -0.9092   -4.9601  -37.9229 H   0  0  0  0  0  0  0  0  0  0  0  0
   -0.5424   -4.1274  -36.4113 H   0  0  0  0  0  0  0  0  0  0  0  0
   -2.8429   -3.6911  -37.0092 H   0  0  0  0  0  0  0  0  0  0  0  0
   -3.1477   -5.4257  -37.1428 H   0  0  0  0  0  0  0  0  0  0  0  0
    4.1742  -13.5198  -27.2416 H   0  0  0  0  0  0  0  0  0  0  0  0
    5.1434  -12.2102  -27.9254 H   0  0  0  0  0  0  0  0  0  0  0  0
    5.4392  -14.1848  -29.2792 H   0  0  0  0  0  0  0  0  0  0  0  0
    3.6898  -14.3403  -29.4584 H   0  0  0  0  0  0  0  0  0  0  0  0
  1  3  1  0  0  0  0
  1  5  1  0  0  0  0
  1 18  1  0  0  0  0
  1 27  1  1  0  0  0
  2  4  1  0  0  0  0
  2  6  1  0  0  0  0
  2 17  1  0  0  0  0
  2 28  1  6  0  0  0
  3  7  1  0  0  0  0
  3 19  1  0  0  0  0
  3 29  1  1  0  0  0
  4  8  1  0  0  0  0
  4 20  1  0  0  0  0
  4 30  1  6  0  0  0
  5  9  2  0  0  0  0
  5 13  1  0  0  0  0
  6 10  2  0  0  0  0
  6 14  1  0  0  0  0
  7 11  1  0  0  0  0
  7 16  2  0  0  0  0
  8 12  1  0  0  0  0
  8 15  2  0  0  0  0
 13 21  1  0  0  0  0
 13 31  1  0  0  0  0
 14 22  1  0  0  0  0
 14 32  1  0  0  0  0
 17 26  1  0  0  0  0
 17 33  1  0  0  0  0
 17 34  1  0  0  0  0
 18 23  1  0  0  0  0
 18 35  1  0  0  0  0
 18 36  1  0  0  0  0
 19 24  1  0  0  0  0
 19 37  1  0  0  0  0
 19 38  1  0  0  0  0
 20 25  1  0  0  0  0
 20 39  1  0  0  0  0
 20 40  1  0  0  0  0
 21 22  1  0  0  0  0
 21 41  1  0  0  0  0
 21 42  1  0  0  0  0
 22 43  1  0  0  0  0
 22 44  1  0  0  0  0
 23 24  1  0  0  0  0
 23 45  1  0  0  0  0
 23 46  1  0  0  0  0
 24 47  1  0  0  0  0
 24 48  1  0  0  0  0
 25 26  1  0  0  0  0
 25 49  1  0  0  0  0
 25 50  1  0  0  0  0
 26 51  1  0  0  0  0
 26 52  1  0  0  0  0
M  CHG  2  11  -1  12  -1
M  END
$$$$
