HTS1710-03146805-01
 OpenBabel03232612353D

 28 28  0  0  0  0  0  0  0  0999 V2000
    1.8093   -7.3621  -31.6646 C   0  0  0  0  0  0  0  0  0  0  0  0
    3.0651   -9.0918  -30.4577 C   0  0  0  0  0  0  0  0  0  0  0  0
    1.1644   -5.9935  -31.6978 C   0  0  0  0  0  0  0  0  0  0  0  0
    3.7503   -9.5799  -29.1997 C   0  0  0  0  0  0  0  0  0  0  0  0
    2.3921   -9.4657  -32.7857 C   0  0  0  0  0  0  0  0  0  0  0  0
    2.4407   -7.8275  -30.4927 C   0  0  0  0  0  0  0  0  0  0  0  0
    2.4323  -10.3214  -33.8872 N   0  0  0  0  0  0  0  0  0  0  0  0
    1.3591  -10.6719  -34.7028 C   0  0  0  0  0  0  0  0  0  0  0  0
    1.7953   -8.1857  -32.8087 C   0  0  0  0  0  0  0  0  0  0  0  0
    3.0396   -9.8953  -31.6156 C   0  0  0  0  0  0  0  0  0  0  0  0
    2.8589   -9.7162  -37.0107 C   0  0  0  0  0  0  0  0  0  0  0  0
    3.4792   -9.0146  -28.1543 O   0  5  0  0  0  0  0  0  0  0  0  0
    0.5816   -5.6693  -32.7193 O   0  5  0  0  0  0  0  0  0  0  0  0
    0.2348  -10.2525  -34.4909 O   0  0  0  0  0  0  0  0  0  0  0  0
    1.7692   -9.1934  -37.1702 O   0  5  0  0  0  0  0  0  0  0  0  0
    1.6338  -11.6330  -35.8632 C   0  0  0  0  0  0  0  0  0  0  0  0
    4.5326  -10.5081  -29.3093 O   0  0  0  0  0  0  0  0  0  0  0  0
    1.2663   -5.2974  -30.7020 O   0  0  0  0  0  0  0  0  0  0  0  0
    2.8767  -11.2135  -36.6816 C   0  0  0  0  0  0  0  0  0  0  0  0
    3.9341   -9.1478  -37.0756 O   0  0  0  0  0  0  0  0  0  0  0  0
    2.4460   -7.2343  -29.6482 H   0  0  0  0  0  0  0  0  0  0  0  0
    3.3060  -10.7167  -34.1099 H   0  0  0  0  0  0  0  0  0  0  0  0
    1.3436   -7.8493  -33.6735 H   0  0  0  0  0  0  0  0  0  0  0  0
    3.5052  -10.8162  -31.6034 H   0  0  0  0  0  0  0  0  0  0  0  0
    0.7821  -11.6452  -36.5106 H   0  0  0  0  0  0  0  0  0  0  0  0
    1.8213  -12.6027  -35.4516 H   0  0  0  0  0  0  0  0  0  0  0  0
    3.7565  -11.4334  -36.1136 H   0  0  0  0  0  0  0  0  0  0  0  0
    2.8694  -11.7580  -37.6027 H   0  0  0  0  0  0  0  0  0  0  0  0
  1  3  1  0  0  0  0
  1  6  2  0  0  0  0
  1  9  1  0  0  0  0
  2  4  1  0  0  0  0
  2  6  1  0  0  0  0
  2 10  2  0  0  0  0
  3 13  1  0  0  0  0
  3 18  2  0  0  0  0
  4 12  1  0  0  0  0
  4 17  2  0  0  0  0
  5  7  1  0  0  0  0
  5  9  2  0  0  0  0
  5 10  1  0  0  0  0
  6 21  1  0  0  0  0
  7  8  1  0  0  0  0
  7 22  1  0  0  0  0
  8 14  2  0  0  0  0
  8 16  1  0  0  0  0
  9 23  1  0  0  0  0
 10 24  1  0  0  0  0
 11 15  1  0  0  0  0
 11 19  1  0  0  0  0
 11 20  2  0  0  0  0
 16 19  1  0  0  0  0
 16 25  1  0  0  0  0
 16 26  1  0  0  0  0
 19 27  1  0  0  0  0
 19 28  1  0  0  0  0
M  CHG  3  12  -1  13  -1  15  -1
M  END
$$$$
