HTS1710-01189021-01
 OpenBabel03232612363D

 35 36  0  0  0  0  0  0  0  0999 V2000
    4.6384  -10.5280  -35.6838 S   0  0  0  0  0  0  0  0  0  0  0  0
    4.5470  -10.6283  -31.5875 C   0  0  0  0  0  0  0  0  0  0  0  0
    4.4596  -11.0995  -33.9856 C   0  0  0  0  0  0  0  0  0  0  0  0
    4.6372  -10.1961  -32.9255 C   0  0  0  0  0  0  0  0  0  0  0  0
    3.0546  -10.4591  -36.3019 N   0  0  0  0  0  0  0  0  0  0  0  0
    4.7625   -9.6214  -30.4867 C   0  0  0  0  0  0  0  0  0  0  0  0
    0.0687   -8.0707  -33.1691 C   0  0  0  0  0  0  0  0  0  0  0  0
    5.1804   -9.1675  -35.7535 O   0  0  0  0  0  0  0  0  0  0  0  0
    5.2044  -11.6478  -36.4413 O   0  0  0  0  0  0  0  0  0  0  0  0
    0.6123   -8.2893  -34.5645 C   0  0  0  0  0  0  0  0  0  0  0  0
    4.2586  -11.9884  -31.3152 C   0  0  0  0  0  0  0  0  0  0  0  0
    2.0947   -9.4876  -36.1055 C   0  0  0  0  0  0  0  0  0  0  0  0
    1.5789   -9.2891  -34.8130 C   0  0  0  0  0  0  0  0  0  0  0  0
    4.5687   -9.9845  -29.3396 O   0  5  0  0  0  0  0  0  0  0  0  0
   -0.5895   -7.0635  -32.9722 O   0  5  0  0  0  0  0  0  0  0  0  0
    4.1777  -12.4467  -33.7139 C   0  0  0  0  0  0  0  0  0  0  0  0
    4.0750  -12.8902  -32.3873 C   0  0  0  0  0  0  0  0  0  0  0  0
    5.1342   -8.5099  -30.8222 O   0  0  0  0  0  0  0  0  0  0  0  0
    0.3217   -8.9140  -32.3260 O   0  0  0  0  0  0  0  0  0  0  0  0
    4.1451  -12.4065  -30.0004 O   0  0  0  0  0  0  0  0  0  0  0  0
    0.1657   -7.4958  -35.6432 C   0  0  0  0  0  0  0  0  0  0  0  0
    0.6660   -7.7041  -36.9372 C   0  0  0  0  0  0  0  0  0  0  0  0
    1.6237   -8.6993  -37.1715 C   0  0  0  0  0  0  0  0  0  0  0  0
    3.8158  -13.7543  -29.6234 C   0  0  0  0  0  0  0  0  0  0  0  0
    4.8361   -9.2039  -33.1286 H   0  0  0  0  0  0  0  0  0  0  0  0
    2.7875  -11.2128  -36.8763 H   0  0  0  0  0  0  0  0  0  0  0  0
    1.9108   -9.8813  -34.0357 H   0  0  0  0  0  0  0  0  0  0  0  0
    4.0456  -13.1123  -34.4914 H   0  0  0  0  0  0  0  0  0  0  0  0
    3.8641  -13.8815  -32.1929 H   0  0  0  0  0  0  0  0  0  0  0  0
   -0.5348   -6.7561  -35.4785 H   0  0  0  0  0  0  0  0  0  0  0  0
    0.3273   -7.1222  -37.7193 H   0  0  0  0  0  0  0  0  0  0  0  0
    1.9838   -8.8543  -38.1261 H   0  0  0  0  0  0  0  0  0  0  0  0
    3.7876  -13.8295  -28.5565 H   0  0  0  0  0  0  0  0  0  0  0  0
    4.5566  -14.4235  -30.0086 H   0  0  0  0  0  0  0  0  0  0  0  0
    2.8583  -14.0131  -30.0247 H   0  0  0  0  0  0  0  0  0  0  0  0
  1  3  1  0  0  0  0
  1  5  1  0  0  0  0
  1  8  2  0  0  0  0
  1  9  2  0  0  0  0
  2  4  2  0  0  0  0
  2  6  1  0  0  0  0
  2 11  1  0  0  0  0
  3  4  1  0  0  0  0
  3 16  2  0  0  0  0
  4 25  1  0  0  0  0
  5 12  1  0  0  0  0
  5 26  1  0  0  0  0
  6 14  1  0  0  0  0
  6 18  2  0  0  0  0
  7 10  1  0  0  0  0
  7 15  1  0  0  0  0
  7 19  2  0  0  0  0
 10 13  2  0  0  0  0
 10 21  1  0  0  0  0
 11 17  2  0  0  0  0
 11 20  1  0  0  0  0
 12 13  1  0  0  0  0
 12 23  2  0  0  0  0
 13 27  1  0  0  0  0
 16 17  1  0  0  0  0
 16 28  1  0  0  0  0
 17 29  1  0  0  0  0
 20 24  1  0  0  0  0
 21 22  2  0  0  0  0
 21 30  1  0  0  0  0
 22 23  1  0  0  0  0
 22 31  1  0  0  0  0
 23 32  1  0  0  0  0
 24 33  1  0  0  0  0
 24 34  1  0  0  0  0
 24 35  1  0  0  0  0
M  CHG  2  14  -1  15  -1
M  END
$$$$
