##########                                Name: HTS1710-05434745-01
##########                    Molecular_Weight:             368.366
##########                DOCK_Rotatable_Bonds:                   5
##########                       Formal_Charge:                  -2
##########                     HBond_Acceptors:                   7
##########                        HBond_Donors:                   0
##########                         Heavy_Atoms:                  27
##########                          Grid_Score:          -78.530212
##########                     Grid_vdw_energy:          -42.783070
##########                      Grid_es_energy:          -35.747139
##########           Internal_energy_repulsive:           12.353537

@<TRIPOS>MOLECULE
HTS1710-05434745-01
 45 47 1 0 0
SMALL
USER_CHARGES


@<TRIPOS>ATOM
      1 C           3.7451  -11.0702  -31.7011 C.ar    1  UNL1        0.0160
      2 C           4.1824  -11.0905  -30.3791 C.ar    1  UNL1       -0.0288
      3 C           2.7306   -9.2856  -33.1749 C.2     1  UNL1       -0.0060
      4 N           3.9942  -12.2862  -29.6296 N.ar    1  UNL1       -0.3601
      5 C           4.0247   -9.8353  -32.5749 C.3     1  UNL1        0.0262
      6 C           2.9851  -12.1635  -32.3110 C.ar    1  UNL1        0.1851
      7 C           1.7778   -8.6352  -32.2540 C.2     1  UNL1        0.1882
      8 C           2.7077  -13.2454  -31.3943 C.ar    1  UNL1        0.0044
      9 C           3.1360  -13.3186  -30.0879 C.ar    1  UNL1        0.0183
     10 C           2.4602   -9.4014  -34.5263 C.2     1  UNL1       -0.1262
     11 C           0.5238   -8.1459  -32.9063 C.ar    1  UNL1        0.0152
     12 O           1.2990   -8.9241  -35.0839 O.co2   1  UNL1       -0.7845
     13 C           0.3430   -8.3158  -34.2933 C.ar    1  UNL1       -0.0834
     14 C           5.1558  -10.0991  -33.6204 C.3     1  UNL1        0.0559
     15 C           5.6411   -8.8396  -34.3536 C.2     1  UNL1        0.3077
     16 O           2.5852  -12.1781  -33.4630 O.2     1  UNL1       -0.2875
     17 O           1.9781   -8.5015  -31.0582 O.2     1  UNL1       -0.2870
     18 O           4.8302  -10.0688  -29.7696 O.co2   1  UNL1       -0.8612
     19 O           5.7267   -8.7319  -35.5670 O.2     1  UNL1       -0.2508
     20 C           4.6315  -12.4207  -28.2975 C.3     1  UNL1        0.0110
     21 O           5.9598   -7.8501  -33.4657 O.3     1  UNL1       -0.4679
     22 C           2.7384  -14.5236  -29.2618 C.3     1  UNL1       -0.0242
     23 C          -0.4859   -7.5197  -32.1468 C.ar    1  UNL1       -0.0515
     24 C          -0.8375   -7.8626  -34.9086 C.ar    1  UNL1       -0.0678
     25 C           6.7309   -6.7229  -33.9187 C.3     1  UNL1        0.0817
     26 C          -1.6630   -7.0707  -32.7658 C.ar    1  UNL1       -0.0611
     27 C          -1.8394   -7.2419  -34.1458 C.ar    1  UNL1       -0.0623
     28 H           4.4110   -9.0586  -31.9485 H       1  UNL1        0.0405
     29 H           2.1397  -14.0305  -31.7492 H       1  UNL1        0.0673
     30 H           3.1540   -9.8616  -35.1362 H       1  UNL1        0.0459
     31 H           4.7853  -10.7898  -34.3488 H       1  UNL1        0.0387
     32 H           5.9945  -10.4809  -33.0765 H       1  UNL1        0.0387
     33 H           5.2423  -11.5633  -28.1062 H       1  UNL1        0.0455
     34 H           5.2382  -13.3019  -28.2797 H       1  UNL1        0.0455
     35 H           3.8740  -12.4940  -27.5454 H       1  UNL1        0.0455
     36 H           2.0870  -15.1497  -29.8349 H       1  UNL1        0.0292
     37 H           2.2328  -14.1981  -28.3768 H       1  UNL1        0.0292
     38 H           3.6145  -15.0744  -28.9898 H       1  UNL1        0.0292
     39 H          -0.3588   -7.3910  -31.1307 H       1  UNL1        0.0624
     40 H          -0.9679   -7.9868  -35.9248 H       1  UNL1        0.0612
     41 H           6.8895   -6.0485  -33.1033 H       1  UNL1        0.0661
     42 H           6.2011   -6.2193  -34.7001 H       1  UNL1        0.0661
     43 H           7.6753   -7.0627  -34.2894 H       1  UNL1        0.0661
     44 H          -2.3989   -6.6142  -32.2045 H       1  UNL1        0.0618
     45 H          -2.7050   -6.9118  -34.6007 H       1  UNL1        0.0617
@<TRIPOS>BOND
     1     1     2   ar
     2     3     5    1
     3     2     4   ar
     4     1     5    1
     5     1     6   ar
     6     3     7    1
     7     6     8   ar
     8     8     9   ar
     9     3    10    2
    10     7    11    1
    11    10    12    1
    12    12    13    1
    13     5    14    1
    14    14    15    1
    15     6    16    2
    16     7    17    2
    17     2    18    1
    18    15    19    2
    19     4    20    1
    20    15    21    1
    21     9    22    1
    22    11    23   ar
    23    13    24   ar
    24    21    25    1
    25    23    26   ar
    26    24    27   ar
    27     4     9   ar
    28    11    13   ar
    29    26    27   ar
    30     5    28    1
    31     8    29    1
    32    10    30    1
    33    14    31    1
    34    14    32    1
    35    20    33    1
    36    20    34    1
    37    20    35    1
    38    22    36    1
    39    22    37    1
    40    22    38    1
    41    23    39    1
    42    24    40    1
    43    25    41    1
    44    25    42    1
    45    25    43    1
    46    26    44    1
    47    27    45    1
@<TRIPOS>SUBSTRUCTURE
     1 UNL1        1 TEMP              0 ****  ****    0 ROOT


