##########                                Name: HTS1710-04760776-01
##########                    Molecular_Weight:             331.305
##########                DOCK_Rotatable_Bonds:                   6
##########                       Formal_Charge:                  -2
##########                     HBond_Acceptors:                   8
##########                        HBond_Donors:                   0
##########                         Heavy_Atoms:                  24
##########                          Grid_Score:          -79.964394
##########                     Grid_vdw_energy:          -37.597435
##########                      Grid_es_energy:          -42.366959
##########           Internal_energy_repulsive:            7.586850

@<TRIPOS>MOLECULE
HTS1710-04760776-01
 39 41 1 0 0
SMALL
USER_CHARGES


@<TRIPOS>ATOM
      1 C           1.7452  -10.6411  -34.6843 C.3     1  UNL1        0.0035
      2 N           3.0040  -10.1667  -34.0734 N.am    1  UNL1       -0.2990
      3 C           4.1839  -11.0250  -34.3773 C.3     1  UNL1        0.0198
      4 C           4.6639  -10.8967  -35.8441 C.3     1  UNL1        0.0026
      5 C           4.6318   -9.4418  -36.3247 C.2     1  UNL1        0.0432
      6 O           3.7951   -9.1515  -37.1621 O.co2   1  UNL1       -0.5498
      7 O           5.4587   -8.6795  -35.8555 O.co2   1  UNL1       -0.5498
      8 C           2.9572   -9.1582  -33.0947 C.2     1  UNL1        0.2641
      9 O           1.9672   -8.4565  -32.9655 O.2     1  UNL1       -0.2683
     10 C           4.1951   -8.9244  -32.2880 C.2     1  UNL1        0.1181
     11 N           5.1425   -7.9932  -32.5881 N.2     1  UNL1       -0.2654
     12 C           5.9120   -7.9511  -31.5144 C.2     1  UNL1       -0.0363
     13 O           5.5608   -8.7679  -30.4612 O.co2   1  UNL1       -0.7709
     14 C           4.4767   -9.3811  -31.0231 C.2     1  UNL1       -0.0549
     15 C           3.8085  -10.4945  -30.3202 C.ar    1  UNL1       -0.0259
     16 C           3.4642  -10.3215  -28.9610 C.ar    1  UNL1       -0.0514
     17 C           2.8488  -11.3528  -28.2327 C.ar    1  UNL1       -0.0157
     18 C           2.5931  -12.5842  -28.8485 C.ar    1  UNL1        0.1621
     19 O           2.0121  -13.6081  -28.1330 O.3     1  UNL1       -0.4849
     20 C           2.0799  -14.9527  -28.6520 C.3     1  UNL1        0.1237
     21 C           1.7766  -14.9109  -30.1678 C.3     1  UNL1        0.1237
     22 O           2.6986  -13.9956  -30.7953 O.3     1  UNL1       -0.4849
     23 C           2.9502  -12.7819  -30.1945 C.ar    1  UNL1        0.1626
     24 C           3.5747  -11.7543  -30.9189 C.ar    1  UNL1       -0.0096
     25 H           1.9626  -11.4035  -35.4029 H       1  UNL1        0.0429
     26 H           1.2538   -9.8237  -35.1693 H       1  UNL1        0.0429
     27 H           1.1075  -11.0398  -33.9232 H       1  UNL1        0.0429
     28 H           3.9197  -12.0453  -34.1929 H       1  UNL1        0.0468
     29 H           4.9863  -10.7002  -33.7483 H       1  UNL1        0.0468
     30 H           4.0252  -11.4833  -36.4708 H       1  UNL1        0.0340
     31 H           5.6749  -11.2435  -35.8963 H       1  UNL1        0.0340
     32 H           6.7383   -7.3347  -31.4667 H       1  UNL1        0.0668
     33 H           3.6680   -9.4230  -28.4960 H       1  UNL1        0.0624
     34 H           2.5858  -11.2035  -27.2461 H       1  UNL1        0.0655
     35 H           1.3579  -15.5675  -28.1565 H       1  UNL1        0.0731
     36 H           3.0548  -15.3609  -28.4848 H       1  UNL1        0.0731
     37 H           0.7726  -14.5763  -30.3256 H       1  UNL1        0.0731
     38 H           1.8861  -15.8878  -30.5901 H       1  UNL1        0.0731
     39 H           3.8652  -11.9193  -31.8953 H       1  UNL1        0.0661
@<TRIPOS>BOND
     1     1     2    1
     2     2     3    1
     3     3     4    1
     4     4     5    1
     5     5     6   ar
     6     5     7   ar
     7     2     8   am
     8     8     9    2
     9     8    10    1
    10    10    11    1
    11    11    12    2
    12    12    13    1
    13    13    14    1
    14    10    14    2
    15    14    15    1
    16    15    16   ar
    17    16    17   ar
    18    17    18   ar
    19    18    19    1
    20    19    20    1
    21    20    21    1
    22    21    22    1
    23    22    23    1
    24    18    23   ar
    25    23    24   ar
    26    15    24   ar
    27     1    25    1
    28     1    26    1
    29     1    27    1
    30     3    28    1
    31     3    29    1
    32     4    30    1
    33     4    31    1
    34    12    32    1
    35    16    33    1
    36    17    34    1
    37    20    35    1
    38    20    36    1
    39    21    37    1
    40    21    38    1
    41    24    39    1
@<TRIPOS>SUBSTRUCTURE
     1 UNL1        1 TEMP              0 ****  ****    0 ROOT


