##########                                Name: HTS1710-04097722-01
##########                    Molecular_Weight:             327.293
##########                DOCK_Rotatable_Bonds:                   6
##########                       Formal_Charge:                  -2
##########                     HBond_Acceptors:                   7
##########                        HBond_Donors:                   1
##########                         Heavy_Atoms:                  24
##########                          Grid_Score:          -74.985970
##########                     Grid_vdw_energy:          -40.314339
##########                      Grid_es_energy:          -34.671631
##########           Internal_energy_repulsive:            7.730563

@<TRIPOS>MOLECULE
HTS1710-04097722-01
 37 39 1 0 0
SMALL
USER_CHARGES


@<TRIPOS>ATOM
      1 C           4.9517  -10.0892  -32.7805 C.2     1  UNL1        0.1361
      2 N           4.6075  -11.2765  -32.2194 N.2     1  UNL1       -0.2555
      3 C           4.5503  -10.9989  -30.9259 C.2     1  UNL1        0.0101
      4 C           5.0806   -9.1603  -31.7800 C.2     1  UNL1       -0.0869
      5 O           4.8298   -9.7004  -30.5511 O.co2   1  UNL1       -0.7687
      6 C           5.1407   -9.9015  -34.2420 C.2     1  UNL1        0.3571
      7 C           0.4042   -8.5423  -35.6633 C.2     1  UNL1        0.1495
      8 C           0.7393   -9.5526  -34.6485 C.2     1  UNL1        0.2181
      9 C           2.0010  -10.2336  -34.9334 C.2     1  UNL1       -0.0188
     10 C           1.2182   -8.2962  -36.7505 C.2     1  UNL1       -0.0871
     11 C           2.7593   -9.9244  -36.0438 C.2     1  UNL1       -0.0762
     12 O           2.4044   -8.9688  -36.9747 O.co2   1  UNL1       -0.7835
     13 O           4.6783  -10.9274  -35.0174 O.3     1  UNL1       -0.4565
     14 C           4.2136  -11.9552  -29.8569 C.ar    1  UNL1       -0.0133
     15 O           0.0527   -9.8054  -33.6718 O.2     1  UNL1       -0.2841
     16 O           5.6656   -8.9026  -34.7085 O.2     1  UNL1       -0.2433
     17 C           4.0574  -10.6482  -36.2858 C.3     1  UNL1        0.1053
     18 O          -0.7544   -7.8836  -35.4432 O.2     1  UNL1       -0.5041
     19 C           5.4401   -7.6997  -31.9009 C.3     1  UNL1       -0.0508
     20 C           3.4284  -11.5501  -28.7566 C.ar    1  UNL1       -0.0537
     21 C           4.6679  -13.2903  -29.9106 C.ar    1  UNL1       -0.0537
     22 C           4.3455  -14.1973  -28.8883 C.ar    1  UNL1       -0.0612
     23 C           3.1078  -12.4585  -27.7335 C.ar    1  UNL1       -0.0612
     24 C           3.5658  -13.7817  -27.7992 C.ar    1  UNL1       -0.0617
     25 H           2.3336  -10.9656  -34.2864 H       1  UNL1        0.0649
     26 H           0.9269   -7.5750  -37.4288 H       1  UNL1        0.0492
     27 H           4.7060  -10.0352  -36.8761 H       1  UNL1        0.0737
     28 H           3.8706  -11.5634  -36.8076 H       1  UNL1        0.0737
     29 H          -1.1399   -7.3722  -36.1272 H       1  UNL1        0.2923
     30 H           5.6005   -7.4559  -32.9303 H       1  UNL1        0.0267
     31 H           6.3334   -7.5050  -31.3449 H       1  UNL1        0.0267
     32 H           4.6414   -7.1025  -31.5132 H       1  UNL1        0.0267
     33 H           3.0865  -10.5778  -28.7029 H       1  UNL1        0.0624
     34 H           5.2425  -13.6030  -30.7089 H       1  UNL1        0.0624
     35 H           4.6828  -15.1713  -28.9385 H       1  UNL1        0.0618
     36 H           2.5343  -12.1510  -26.9325 H       1  UNL1        0.0618
     37 H           3.3297  -14.4486  -27.0478 H       1  UNL1        0.0618
@<TRIPOS>BOND
     1     1     2    1
     2     2     3    2
     3     1     4    2
     4     4     5    1
     5     1     6    1
     6     7    10    2
     7     8     9    1
     8     9    11    2
     9    10    12    1
    10    11    17    1
    11    11    12    1
    12     6    13    1
    13     3    14    1
    14     8    15    2
    15     6    16    2
    16    13    17    1
    17     7    18    1
    18     4    19    1
    19    14    20   ar
    20    14    21   ar
    21    21    22   ar
    22    20    23   ar
    23    22    24   ar
    24     3     5    1
    25     7     8    1
    26    23    24   ar
    27     9    25    1
    28    10    26    1
    29    17    27    1
    30    17    28    1
    31    18    29    1
    32    19    30    1
    33    19    31    1
    34    19    32    1
    35    20    33    1
    36    21    34    1
    37    22    35    1
    38    23    36    1
    39    24    37    1
@<TRIPOS>SUBSTRUCTURE
     1 UNL1        1 TEMP              0 ****  ****    0 ROOT


