##########                                Name: HTS1710-00642839-01
##########                    Molecular_Weight:             345.332
##########                DOCK_Rotatable_Bonds:                   7
##########                       Formal_Charge:                  -2
##########                     HBond_Acceptors:                   8
##########                        HBond_Donors:                   1
##########                         Heavy_Atoms:                  24
##########                          Grid_Score:          -75.191055
##########                     Grid_vdw_energy:          -41.664955
##########                      Grid_es_energy:          -33.526100
##########           Internal_energy_repulsive:            7.650833

@<TRIPOS>MOLECULE
HTS1710-00642839-01
 35 36 1 0 0
SMALL
USER_CHARGES


@<TRIPOS>ATOM
      1 C           4.7778   -9.8165  -34.9722 C.ar    1  UNL1        0.0492
      2 C           5.5565   -8.7011  -35.3350 C.ar    1  UNL1       -0.0304
      3 C           4.5432  -10.0874  -33.6137 C.ar    1  UNL1       -0.0304
      4 N           4.2445  -10.6642  -35.9220 N.pl3   1  UNL1       -0.2167
      5 C           6.0679   -7.8319  -34.3510 C.ar    1  UNL1       -0.0003
      6 C           5.0588   -9.2410  -32.6114 C.ar    1  UNL1       -0.0003
      7 S           2.7486  -11.4776  -35.9372 S.O2    1  UNL1        0.0656
      8 C           5.8138   -8.1120  -32.9924 C.ar    1  UNL1       -0.0439
      9 C           6.8737   -6.6157  -34.7508 C.2     1  UNL1        0.0717
     10 C           4.8045   -9.5403  -31.1521 C.2     1  UNL1        0.0717
     11 C           1.5445  -10.2785  -35.3674 C.2     1  UNL1        0.0729
     12 O           2.9173  -12.4460  -34.8503 O.2     1  UNL1       -0.1505
     13 O           2.4925  -11.8725  -37.3259 O.2     1  UNL1       -0.1505
     14 O           7.2907   -5.8993  -33.8570 O.co2   1  UNL1       -0.5446
     15 O           7.0529   -6.4257  -35.9416 O.co2   1  UNL1       -0.5446
     16 O           4.2666  -10.6005  -30.8796 O.co2   1  UNL1       -0.5446
     17 O           5.1531   -8.7031  -30.3368 O.co2   1  UNL1       -0.5446
     18 C           1.2839   -9.1230  -36.0231 C.2     1  UNL1       -0.0353
     19 C           0.3181   -8.0541  -35.6592 C.ar    1  UNL1       -0.0237
     20 C          -0.3224   -8.0379  -34.4027 C.ar    1  UNL1       -0.0546
     21 C           0.0208   -7.0404  -36.5914 C.ar    1  UNL1       -0.0546
     22 C          -1.2422   -7.0240  -34.0872 C.ar    1  UNL1       -0.0612
     23 C          -0.8998   -6.0284  -36.2753 C.ar    1  UNL1       -0.0612
     24 C          -1.5316   -6.0196  -35.0223 C.ar    1  UNL1       -0.0617
     25 H           5.7545   -8.5183  -36.3312 H       1  UNL1        0.0643
     26 H           3.9874  -10.9150  -33.3468 H       1  UNL1        0.0643
     27 H           4.8147  -10.8223  -36.7090 H       1  UNL1        0.1737
     28 H           6.1860   -7.4810  -32.2655 H       1  UNL1        0.0630
     29 H           1.0252  -10.4783  -34.4983 H       1  UNL1        0.0838
     30 H           1.8258   -8.9642  -36.8869 H       1  UNL1        0.0637
     31 H          -0.1142   -8.7751  -33.7111 H       1  UNL1        0.0623
     32 H           0.4833   -7.0417  -37.5140 H       1  UNL1        0.0623
     33 H          -1.7061   -7.0182  -33.1653 H       1  UNL1        0.0618
     34 H          -1.1120   -5.2905  -36.9649 H       1  UNL1        0.0618
     35 H          -2.2077   -5.2755  -34.7894 H       1  UNL1        0.0618
@<TRIPOS>BOND
     1     1     2   ar
     2     1     3   ar
     3     1     4    1
     4     2     5   ar
     5     3     6   ar
     6     4     7    1
     7     5     8   ar
     8     5     9    1
     9     6    10    1
    10     7    11    1
    11     7    12    2
    12     7    13    2
    13     9    14   ar
    14     9    15   ar
    15    10    16   ar
    16    10    17   ar
    17    11    18    2
    18    18    19    1
    19    19    20   ar
    20    19    21   ar
    21    20    22   ar
    22    21    23   ar
    23    22    24   ar
    24     6     8   ar
    25    23    24   ar
    26     2    25    1
    27     3    26    1
    28     4    27    1
    29     8    28    1
    30    11    29    1
    31    18    30    1
    32    20    31    1
    33    21    32    1
    34    22    33    1
    35    23    34    1
    36    24    35    1
@<TRIPOS>SUBSTRUCTURE
     1 UNL1        1 TEMP              0 ****  ****    0 ROOT


