##########                                Name: HTS1710-01625495-01
##########                    Molecular_Weight:             338.343
##########                DOCK_Rotatable_Bonds:                   6
##########                       Formal_Charge:                  -2
##########                     HBond_Acceptors:                   7
##########                        HBond_Donors:                   0
##########                         Heavy_Atoms:                  25
##########                          Grid_Score:          -78.512344
##########                     Grid_vdw_energy:          -41.387276
##########                      Grid_es_energy:          -37.125072
##########           Internal_energy_repulsive:           10.591816

@<TRIPOS>MOLECULE
HTS1710-01625495-01
 41 43 1 0 0
SMALL
USER_CHARGES


@<TRIPOS>ATOM
      1 C           3.9379  -12.6185  -31.1705 C.3     1  UNL1        0.0038
      2 N           3.2427  -11.3162  -31.1629 N.am    1  UNL1       -0.2961
      3 C           3.9498  -10.2636  -30.3953 C.3     1  UNL1        0.0269
      4 C           4.6200   -9.2248  -31.2680 C.2     1  UNL1       -0.0998
      5 C           5.0943   -9.4417  -32.5383 C.2     1  UNL1       -0.0630
      6 C           5.5896   -8.1829  -32.9655 C.2     1  UNL1       -0.0144
      7 C           6.1980   -7.8901  -34.2860 C.2     1  UNL1        0.0708
      8 O           7.0702   -7.0418  -34.3498 O.co2   1  UNL1       -0.5447
      9 O           5.7800   -8.5239  -35.2396 O.co2   1  UNL1       -0.5447
     10 C           5.3587   -7.3536  -31.8853 C.2     1  UNL1       -0.1120
     11 C           5.6963   -5.8852  -31.8174 C.3     1  UNL1       -0.0524
     12 O           4.7599   -7.9469  -30.8040 O.co2   1  UNL1       -0.7845
     13 C           2.1346  -10.9756  -31.9582 C.2     1  UNL1        0.2650
     14 O           1.7457   -9.8208  -32.0320 O.2     1  UNL1       -0.2683
     15 C           1.4482  -12.0678  -32.7179 C.ar    1  UNL1        0.1284
     16 C           0.8899  -13.2641  -32.3345 C.ar    1  UNL1        0.0582
     17 N           0.3445  -13.9549  -33.3730 N.ar    1  UNL1       -0.2429
     18 C           0.5238  -13.2210  -34.4496 C.ar    1  UNL1        0.1010
     19 N           1.1257  -12.0281  -34.0740 N.ar    1  UNL1       -0.2948
     20 C           1.8443  -11.2794  -35.0017 C.ar    1  UNL1        0.0482
     21 C           3.1203  -11.7060  -35.4192 C.ar    1  UNL1       -0.0378
     22 C           3.8413  -10.9384  -36.3479 C.ar    1  UNL1       -0.0598
     23 C           3.2875   -9.7547  -36.8621 C.ar    1  UNL1       -0.0616
     24 C           2.0104   -9.3359  -36.4513 C.ar    1  UNL1       -0.0598
     25 C           1.2852  -10.0992  -35.5214 C.ar    1  UNL1       -0.0378
     26 H           4.7436  -12.5968  -30.4668 H       1  UNL1        0.0429
     27 H           4.3246  -12.8106  -32.1495 H       1  UNL1        0.0429
     28 H           3.2496  -13.3919  -30.9007 H       1  UNL1        0.0429
     29 H           4.6983  -10.7311  -29.7902 H       1  UNL1        0.0502
     30 H           3.2134   -9.7538  -29.8097 H       1  UNL1        0.0502
     31 H           5.0910  -10.3279  -33.0672 H       1  UNL1        0.0615
     32 H           6.1548   -5.5818  -32.7353 H       1  UNL1        0.0266
     33 H           6.3726   -5.7118  -31.0066 H       1  UNL1        0.0266
     34 H           4.8010   -5.3203  -31.6621 H       1  UNL1        0.0266
     35 H           0.8848  -13.6035  -31.3599 H       1  UNL1        0.0853
     36 H           0.2612  -13.4872  -35.4115 H       1  UNL1        0.1032
     37 H           3.5235  -12.5788  -35.0442 H       1  UNL1        0.0638
     38 H           4.7786  -11.2442  -36.6528 H       1  UNL1        0.0618
     39 H           3.8195   -9.1910  -37.5434 H       1  UNL1        0.0618
     40 H           1.6051   -8.4670  -36.8331 H       1  UNL1        0.0618
     41 H           0.3459   -9.7947  -35.2211 H       1  UNL1        0.0638
@<TRIPOS>BOND
     1     1     2    1
     2     2     3    1
     3     3     4    1
     4     4     5    2
     5     5     6    1
     6     6     7    1
     7     7     8   ar
     8     7     9   ar
     9     6    10    2
    10    10    11    1
    11    10    12    1
    12     4    12    1
    13     2    13   am
    14    13    14    2
    15    13    15    1
    16    15    16   ar
    17    16    17   ar
    18    17    18   ar
    19    18    19   ar
    20    15    19   ar
    21    19    20    1
    22    20    21   ar
    23    21    22   ar
    24    22    23   ar
    25    23    24   ar
    26    24    25   ar
    27    20    25   ar
    28     1    26    1
    29     1    27    1
    30     1    28    1
    31     3    29    1
    32     3    30    1
    33     5    31    1
    34    11    32    1
    35    11    33    1
    36    11    34    1
    37    16    35    1
    38    18    36    1
    39    21    37    1
    40    22    38    1
    41    23    39    1
    42    24    40    1
    43    25    41    1
@<TRIPOS>SUBSTRUCTURE
     1 UNL1        1 TEMP              0 ****  ****    0 ROOT


