##########                                Name: HTS1710-00833846-01
##########                    Molecular_Weight:             436.165
##########                DOCK_Rotatable_Bonds:                   3
##########                       Formal_Charge:                  -2
##########                     HBond_Acceptors:                   8
##########                        HBond_Donors:                   2
##########                         Heavy_Atoms:                  24
##########                          Grid_Score:          -77.601837
##########                     Grid_vdw_energy:          -40.175873
##########                      Grid_es_energy:          -37.425968
##########           Internal_energy_repulsive:           15.685296

@<TRIPOS>MOLECULE
HTS1710-00833846-01
 33 35 1 0 0
SMALL
USER_CHARGES


@<TRIPOS>ATOM
      1 C           4.9393   -9.4529  -32.6317 C.ar    1  UNL1        0.0395
      2 C           2.8226  -10.7206  -33.3168 C.ar    1  UNL1        0.0395
      3 C           4.0585  -10.6903  -32.4113 C.3     1  UNL1        0.0462
      4 C           5.4514   -8.6468  -31.6203 C.ar    1  UNL1       -0.0012
      5 C           2.0251   -9.6122  -33.5576 C.ar    1  UNL1       -0.0012
      6 C           2.4432  -12.0007  -33.9523 C.ar    1  UNL1        0.2548
      7 C           5.2514   -9.0904  -34.0303 C.ar    1  UNL1        0.2548
      8 N           0.9231   -9.6945  -34.3819 N.ar    1  UNL1       -0.2529
      9 N           6.2386   -7.5526  -31.9172 N.ar    1  UNL1       -0.2529
     10 C           3.7449  -11.0441  -30.9506 C.ar    1  UNL1       -0.0343
     11 N           1.3258  -11.9971  -34.7677 N.ar    1  UNL1       -0.3132
     12 N           6.0478   -7.9790  -34.2392 N.ar    1  UNL1       -0.3132
     13 C           0.5866  -10.8382  -34.9702 C.ar    1  UNL1        0.0952
     14 C           6.5300   -7.2312  -33.1735 C.ar    1  UNL1        0.0952
     15 C           4.4159  -12.0854  -30.2738 C.ar    1  UNL1       -0.0445
     16 O           4.8499   -9.7048  -35.0040 O.2     1  UNL1       -0.2675
     17 O           3.0439  -13.0509  -33.8022 O.2     1  UNL1       -0.2675
     18 O           5.2190   -8.8417  -30.3065 O.co2   1  UNL1       -0.8598
     19 O           2.2445   -8.4047  -33.0019 O.co2   1  UNL1       -0.8598
     20 C           4.0949  -12.3852  -28.9405 C.ar    1  UNL1        0.0137
     21 I           5.1122  -13.9682  -27.9406 I       1  UNL1       -0.0438
     22 C           2.7547  -10.3133  -30.2651 C.ar    1  UNL1       -0.0576
     23 C           2.4373  -10.6150  -28.9306 C.ar    1  UNL1       -0.0605
     24 C           3.1074  -11.6528  -28.2670 C.ar    1  UNL1       -0.0486
     25 H           4.6906  -11.4947  -32.7251 H       1  UNL1        0.0450
     26 H           1.0494  -12.8307  -35.2127 H       1  UNL1        0.1698
     27 H           6.2765   -7.7137  -35.1592 H       1  UNL1        0.1698
     28 H          -0.2390  -10.8658  -35.5887 H       1  UNL1        0.1027
     29 H           7.1263   -6.4100  -33.3604 H       1  UNL1        0.1027
     30 H           5.1456  -12.6286  -30.7613 H       1  UNL1        0.0631
     31 H           2.2577   -9.5487  -30.7481 H       1  UNL1        0.0621
     32 H           1.7104  -10.0727  -28.4382 H       1  UNL1        0.0618
     33 H           2.8745  -11.8765  -27.2868 H       1  UNL1        0.0628
@<TRIPOS>BOND
     1     2     3    1
     2     1     3    1
     3     1     4   ar
     4     2     5   ar
     5     2     6   ar
     6     1     7   ar
     7     5     8   ar
     8     4     9   ar
     9     3    10    1
    10     6    11   ar
    11     7    12   ar
    12    11    13   ar
    13    12    14   ar
    14    10    15   ar
    15     7    16    2
    16     6    17    2
    17     4    18    1
    18     5    19    1
    19    15    20   ar
    20    20    21    1
    21    10    22   ar
    22    22    23   ar
    23    23    24   ar
    24     9    14   ar
    25    20    24   ar
    26     8    13   ar
    27     3    25    1
    28    11    26    1
    29    12    27    1
    30    13    28    1
    31    14    29    1
    32    15    30    1
    33    22    31    1
    34    23    32    1
    35    24    33    1
@<TRIPOS>SUBSTRUCTURE
     1 UNL1        1 TEMP              0 ****  ****    0 ROOT


