##########                                Name: HTS1710-02004788-01
##########                    Molecular_Weight:             380.357
##########                DOCK_Rotatable_Bonds:                   7
##########                       Formal_Charge:                  -2
##########                     HBond_Acceptors:                   8
##########                        HBond_Donors:                   0
##########                         Heavy_Atoms:                  28
##########                          Grid_Score:          -82.059059
##########                     Grid_vdw_energy:          -41.351219
##########                      Grid_es_energy:          -40.707840
##########           Internal_energy_repulsive:           12.182329

@<TRIPOS>MOLECULE
HTS1710-02004788-01
 44 46 1 0 0
SMALL
USER_CHARGES


@<TRIPOS>ATOM
      1 C           3.4590  -10.7539  -29.7877 C.2     1  UNL1        0.0219
      2 N           4.0980  -10.2845  -31.9984 N.am    1  UNL1       -0.2869
      3 C           3.4611   -9.4190  -29.9982 C.2     1  UNL1       -0.0354
      4 C           3.8559   -9.0772  -31.3715 C.2     1  UNL1        0.2329
      5 C           3.8442  -11.4409  -31.1040 C.3     1  UNL1        0.0813
      6 C           3.1501  -11.5746  -28.5702 C.2     1  UNL1        0.1909
      7 C           4.5120  -10.4740  -33.3995 C.3     1  UNL1        0.0209
      8 C           2.7525  -12.3659  -31.6369 C.ar    1  UNL1       -0.0044
      9 C           5.7650   -9.6441  -33.7542 C.3     1  UNL1        0.0027
     10 C           5.5150   -8.7395  -34.9654 C.2     1  UNL1        0.0432
     11 O           3.9554   -7.9672  -31.8664 O.2     1  UNL1       -0.2712
     12 C           4.0766  -12.6865  -28.1772 C.ar    1  UNL1        0.0222
     13 O           2.1479  -11.3664  -27.9069 O.2     1  UNL1       -0.2869
     14 O           3.1342   -8.4431  -29.1199 O.co2   1  UNL1       -0.8701
     15 N           0.6559  -12.6107  -32.8298 N.ar    1  UNL1       -0.2629
     16 O           4.7255   -9.1352  -35.8058 O.co2   1  UNL1       -0.5498
     17 C           5.4159  -12.4181  -27.8387 C.ar    1  UNL1       -0.0475
     18 C           3.6223  -14.0167  -28.1965 C.ar    1  UNL1       -0.0475
     19 C           5.8214  -14.7984  -27.4943 C.ar    1  UNL1        0.1201
     20 O           6.1132   -7.6784  -34.9994 O.co2   1  UNL1       -0.5498
     21 C           4.4889  -15.0659  -27.8508 C.ar    1  UNL1       -0.0193
     22 C           6.2857  -13.4656  -27.4919 C.ar    1  UNL1       -0.0193
     23 C           1.6527  -11.8433  -32.3441 C.ar    1  UNL1        0.0328
     24 O           6.6345  -15.8651  -27.1621 O.3     1  UNL1       -0.4951
     25 C           2.8116  -13.7571  -31.4296 C.ar    1  UNL1       -0.0536
     26 C           0.7181  -13.9420  -32.6232 C.ar    1  UNL1        0.0276
     27 C           6.1317  -17.1964  -26.9528 C.3     1  UNL1        0.0788
     28 C           1.7752  -14.5574  -31.9314 C.ar    1  UNL1       -0.0433
     29 H           4.6836  -12.0971  -31.0050 H       1  UNL1        0.0602
     30 H           3.7083  -10.1756  -34.0398 H       1  UNL1        0.0468
     31 H           4.7535  -11.5077  -33.5340 H       1  UNL1        0.0468
     32 H           6.5715  -10.3106  -33.9785 H       1  UNL1        0.0340
     33 H           6.0054   -9.0239  -32.9160 H       1  UNL1        0.0340
     34 H           5.7615  -11.4457  -27.8453 H       1  UNL1        0.0626
     35 H           2.6476  -14.2230  -28.4658 H       1  UNL1        0.0626
     36 H           4.1453  -16.0390  -27.8587 H       1  UNL1        0.0654
     37 H           7.2641  -13.2605  -27.2353 H       1  UNL1        0.0654
     38 H           1.6074  -10.8239  -32.4982 H       1  UNL1        0.0833
     39 H           3.6022  -14.1797  -30.9183 H       1  UNL1        0.0622
     40 H          -0.0436  -14.5344  -32.9891 H       1  UNL1        0.0829
     41 H           6.9429  -17.8494  -26.7070 H       1  UNL1        0.0660
     42 H           5.6539  -17.5418  -27.8457 H       1  UNL1        0.0660
     43 H           5.4245  -17.1885  -26.1499 H       1  UNL1        0.0660
     44 H           1.7885  -15.5803  -31.7951 H       1  UNL1        0.0633
@<TRIPOS>BOND
     1     1     3    2
     2     1     5    1
     3     1     6    1
     4     2     4   am
     5     2     5    1
     6     2     7    1
     7     3     4    1
     8     3    14    1
     9     4    11    2
    10     5     8    1
    11     6    12    1
    12     6    13    2
    13     7     9    1
    14     8    23   ar
    15     8    25   ar
    16     9    10    1
    17    10    16   ar
    18    10    20   ar
    19    12    17   ar
    20    12    18   ar
    21    15    23   ar
    22    15    26   ar
    23    17    22   ar
    24    18    21   ar
    25    19    21   ar
    26    19    22   ar
    27    19    24    1
    28    24    27    1
    29    25    28   ar
    30    26    28   ar
    31     5    29    1
    32     7    30    1
    33     7    31    1
    34     9    32    1
    35     9    33    1
    36    17    34    1
    37    18    35    1
    38    21    36    1
    39    22    37    1
    40    23    38    1
    41    25    39    1
    42    26    40    1
    43    27    41    1
    44    27    42    1
    45    27    43    1
    46    28    44    1
@<TRIPOS>SUBSTRUCTURE
     1 UNL1        1 TEMP              0 ****  ****    0 ROOT


