HTS1710-00617291-01
 OpenBabel03232612343D

 47 48  0  0  1  0  0  0  0  0999 V2000
    3.6297  -10.5704  -32.5058 C   0  0  2  0  0  0  0  0  0  0  0  0
    3.4037  -10.9432  -31.0855 N   0  0  0  0  0  0  0  0  0  0  0  0
    4.7121   -9.4853  -32.3872 C   0  0  0  0  0  0  0  0  0  0  0  0
    2.3507  -10.0723  -33.1739 C   0  0  0  0  0  0  0  0  0  0  0  0
    4.1958  -10.2087  -30.2222 C   0  0  0  0  0  0  0  0  0  0  0  0
    2.5496  -12.0871  -30.7090 C   0  0  0  0  0  0  0  0  0  0  0  0
    5.0000   -9.3300  -31.0799 C   0  0  0  0  0  0  0  0  0  0  0  0
    5.4432   -8.9407  -33.5765 C   0  0  0  0  0  0  0  0  0  0  0  0
    1.7492   -8.8752  -32.7462 C   0  0  0  0  0  0  0  0  0  0  0  0
    1.7763  -10.7909  -34.2392 C   0  0  0  0  0  0  0  0  0  0  0  0
    4.2289  -10.3020  -29.0061 O   0  0  0  0  0  0  0  0  0  0  0  0
    3.2079  -13.4700  -30.9518 C   0  0  0  0  0  0  0  0  0  0  0  0
    5.9586   -8.5355  -30.5513 O   0  5  0  0  0  0  0  0  0  0  0  0
    5.1434   -9.5704  -34.9396 C   0  0  0  0  0  0  0  0  0  0  0  0
    6.1613   -7.9588  -33.4901 O   0  0  0  0  0  0  0  0  0  0  0  0
    0.5853   -8.4044  -33.3742 C   0  0  0  0  0  0  0  0  0  0  0  0
    0.6164  -10.3202  -34.8731 C   0  0  0  0  0  0  0  0  0  0  0  0
    4.3680  -13.7839  -29.9687 C   0  0  0  0  0  0  0  0  0  0  0  0
    0.0138   -9.1201  -34.4395 C   0  0  0  0  0  0  0  0  0  0  0  0
    3.9092  -13.8818  -28.4907 C   0  0  0  0  0  0  0  0  0  0  0  0
   -1.1291   -8.6140  -35.0281 O   0  0  0  0  0  0  0  0  0  0  0  0
    4.7067  -14.9174  -27.6573 C   0  0  0  0  0  0  0  0  0  0  0  0
   -1.6649   -7.3183  -34.7076 C   0  0  0  0  0  0  0  0  0  0  0  0
    6.1137  -14.4103  -27.3205 C   0  0  0  0  0  0  0  0  0  0  0  0
    6.4599  -13.3537  -27.8202 O   0  5  0  0  0  0  0  0  0  0  0  0
    6.7862  -15.0893  -26.5638 O   0  0  0  0  0  0  0  0  0  0  0  0
    3.9287  -11.3876  -33.1285 H   0  0  0  0  0  0  0  0  0  0  0  0
    1.6481  -12.0376  -31.2834 H   0  0  0  0  0  0  0  0  0  0  0  0
    2.3713  -12.0085  -29.6569 H   0  0  0  0  0  0  0  0  0  0  0  0
    2.1651   -8.3407  -31.9675 H   0  0  0  0  0  0  0  0  0  0  0  0
    2.2119  -11.6710  -34.5566 H   0  0  0  0  0  0  0  0  0  0  0  0
    3.5942  -13.4909  -31.9494 H   0  0  0  0  0  0  0  0  0  0  0  0
    2.4521  -14.2108  -30.7941 H   0  0  0  0  0  0  0  0  0  0  0  0
    4.5002  -10.4154  -34.8083 H   0  0  0  0  0  0  0  0  0  0  0  0
    6.0585   -9.8862  -35.3956 H   0  0  0  0  0  0  0  0  0  0  0  0
    4.6621   -8.8498  -35.5673 H   0  0  0  0  0  0  0  0  0  0  0  0
    0.1469   -7.5276  -33.0515 H   0  0  0  0  0  0  0  0  0  0  0  0
    0.2041  -10.8515  -35.6560 H   0  0  0  0  0  0  0  0  0  0  0  0
    5.0992  -13.0066  -30.0466 H   0  0  0  0  0  0  0  0  0  0  0  0
    4.7650  -14.7394  -30.2413 H   0  0  0  0  0  0  0  0  0  0  0  0
    2.8760  -14.1597  -28.4755 H   0  0  0  0  0  0  0  0  0  0  0  0
    4.0811  -12.9238  -28.0461 H   0  0  0  0  0  0  0  0  0  0  0  0
    4.7900  -15.8244  -28.2188 H   0  0  0  0  0  0  0  0  0  0  0  0
    4.1825  -15.0821  -26.7392 H   0  0  0  0  0  0  0  0  0  0  0  0
   -2.5486   -7.1449  -35.2855 H   0  0  0  0  0  0  0  0  0  0  0  0
   -0.9381   -6.5660  -34.9329 H   0  0  0  0  0  0  0  0  0  0  0  0
   -1.9067   -7.2801  -33.6660 H   0  0  0  0  0  0  0  0  0  0  0  0
  1  2  1  0  0  0  0
  1  3  1  0  0  0  0
  1  4  1  0  0  0  0
  1 27  1  6  0  0  0
  2  5  1  0  0  0  0
  2  6  1  0  0  0  0
  3  7  2  0  0  0  0
  3  8  1  0  0  0  0
  4  9  2  0  0  0  0
  4 10  1  0  0  0  0
  5 11  2  0  0  0  0
  5  7  1  0  0  0  0
  6 12  1  0  0  0  0
  6 28  1  0  0  0  0
  6 29  1  0  0  0  0
  7 13  1  0  0  0  0
  8 14  1  0  0  0  0
  8 15  2  0  0  0  0
  9 16  1  0  0  0  0
  9 30  1  0  0  0  0
 10 17  2  0  0  0  0
 10 31  1  0  0  0  0
 12 18  1  0  0  0  0
 12 32  1  0  0  0  0
 12 33  1  0  0  0  0
 14 34  1  0  0  0  0
 14 35  1  0  0  0  0
 14 36  1  0  0  0  0
 16 19  2  0  0  0  0
 16 37  1  0  0  0  0
 17 19  1  0  0  0  0
 17 38  1  0  0  0  0
 18 20  1  0  0  0  0
 18 39  1  0  0  0  0
 18 40  1  0  0  0  0
 19 21  1  0  0  0  0
 20 22  1  0  0  0  0
 20 41  1  0  0  0  0
 20 42  1  0  0  0  0
 21 23  1  0  0  0  0
 22 24  1  0  0  0  0
 22 43  1  0  0  0  0
 22 44  1  0  0  0  0
 23 45  1  0  0  0  0
 23 46  1  0  0  0  0
 23 47  1  0  0  0  0
 24 25  1  0  0  0  0
 24 26  2  0  0  0  0
M  CHG  2  13  -1  25  -1
M  END
$$$$
