##########                                Name: HTS1710-01920929-01
##########                    Molecular_Weight:              277.19
##########                DOCK_Rotatable_Bonds:                   6
##########                       Formal_Charge:                  -3
##########                     HBond_Acceptors:                   8
##########                        HBond_Donors:                   1
##########                         Heavy_Atoms:                  20
##########                          Grid_Score:          -85.187805
##########                     Grid_vdw_energy:          -28.780157
##########                      Grid_es_energy:          -56.407650
##########           Internal_energy_repulsive:            1.817772

@<TRIPOS>MOLECULE
HTS1710-01920929-01
 27 28 1 0 0
SMALL
USER_CHARGES


@<TRIPOS>ATOM
      1 C           3.5611  -11.3499  -29.9484 C.2     1  UNL1        0.0305
      2 C           3.8182   -9.9593  -29.6975 C.2     1  UNL1       -0.0056
      3 C           3.1360  -10.4155  -36.3972 C.ar    1  UNL1        0.1504
      4 C           3.8497  -12.2072  -31.1270 C.2     1  UNL1        0.2439
      5 O           3.9340  -10.9121  -35.3920 O.2     1  UNL1       -0.4569
      6 C           4.4546   -8.9048  -30.5305 C.2     1  UNL1        0.0713
      7 C           3.6482   -9.3996  -37.3463 C.2     1  UNL1        0.1069
      8 C           1.8652  -10.9418  -36.4188 C.ar    1  UNL1       -0.0144
      9 C           3.0739  -11.7885  -34.7878 C.ar    1  UNL1        0.1228
     10 C           2.9450  -11.7923  -28.8024 C.2     1  UNL1       -0.1212
     11 C           3.3262   -9.7460  -28.4330 C.2     1  UNL1       -0.1244
     12 O           2.7744  -10.8439  -27.8325 O.co2   1  UNL1       -0.7893
     13 N           3.3114  -11.8195  -32.3488 N.am    1  UNL1       -0.3042
     14 C           1.8220  -11.8571  -35.3398 C.ar    1  UNL1       -0.0185
     15 O           4.5234  -13.2218  -31.0844 O.2     1  UNL1       -0.2702
     16 O           5.4482   -9.2274  -31.1582 O.co2   1  UNL1       -0.5446
     17 O           2.9874   -9.1766  -38.3470 O.co2   1  UNL1       -0.5416
     18 C           3.5233  -12.5812  -33.5873 C.3     1  UNL1        0.0701
     19 O           3.9697   -7.7906  -30.5490 O.co2   1  UNL1       -0.5446
     20 O           4.6990   -8.8451  -37.0712 O.co2   1  UNL1       -0.5416
     21 H           1.1056  -10.7174  -37.0804 H       1  UNL1        0.0656
     22 H           2.6338  -12.7689  -28.6826 H       1  UNL1        0.0462
     23 H           3.3698   -8.8247  -27.9700 H       1  UNL1        0.0461
     24 H           2.7656  -11.0009  -32.3857 H       1  UNL1        0.1495
     25 H           1.0279  -12.4428  -35.0376 H       1  UNL1        0.0652
     26 H           4.5645  -12.8072  -33.6861 H       1  UNL1        0.0543
     27 H           2.9491  -13.4826  -33.5376 H       1  UNL1        0.0543
@<TRIPOS>BOND
     1     1     2    1
     2     1     4    1
     3     1    10    2
     4     2     6    1
     5     2    11    2
     6     3     5   ar
     7     3     7    1
     8     3     8   ar
     9     4    13   am
    10     4    15    2
    11     5     9   ar
    12     6    16   ar
    13     6    19   ar
    14     7    17   ar
    15     7    20   ar
    16     8    14   ar
    17     9    14   ar
    18     9    18    1
    19    10    12    1
    20    11    12    1
    21    13    18    1
    22     8    21    1
    23    10    22    1
    24    11    23    1
    25    13    24    1
    26    14    25    1
    27    18    26    1
    28    18    27    1
@<TRIPOS>SUBSTRUCTURE
     1 UNL1        1 TEMP              0 ****  ****    0 ROOT


