##########                                Name: HTS1710-01933773-01
##########                    Molecular_Weight:             348.374
##########                DOCK_Rotatable_Bonds:                  10
##########                       Formal_Charge:                  -2
##########                     HBond_Acceptors:                   9
##########                        HBond_Donors:                   2
##########                         Heavy_Atoms:                  23
##########                          Grid_Score:          -75.307404
##########                     Grid_vdw_energy:          -38.576778
##########                      Grid_es_energy:          -36.730625
##########           Internal_energy_repulsive:            6.505424

@<TRIPOS>MOLECULE
HTS1710-01933773-01
 43 43 1 0 0
SMALL
USER_CHARGES


@<TRIPOS>ATOM
      1 C           4.7085  -10.2569  -34.1599 C.ar    1  UNL1        0.0895
      2 C           4.4199  -11.8869  -32.2429 C.ar    1  UNL1        0.0895
      3 C           4.3866  -10.5642  -31.8511 C.ar    1  UNL1       -0.0816
      4 C           4.5849   -9.6444  -32.9343 C.ar    1  UNL1       -0.0816
      5 S           4.6353  -12.0119  -33.9889 S.2     1  UNL1       -0.0765
      6 C           4.2649  -13.0861  -31.3835 C.2     1  UNL1        0.3453
      7 C           4.9199   -9.5760  -35.4581 C.2     1  UNL1        0.3453
      8 O           5.6128   -8.5806  -35.5919 O.2     1  UNL1       -0.2444
      9 O           3.5790  -14.0391  -31.7166 O.2     1  UNL1       -0.2444
     10 O           4.1749  -10.1622  -30.5578 O.co2   1  UNL1       -0.8000
     11 O           4.6719   -8.2875  -32.7654 O.co2   1  UNL1       -0.8000
     12 O           4.2646  -10.1842  -36.4957 O.3     1  UNL1       -0.4611
     13 O           4.9463  -13.0367  -30.1985 O.3     1  UNL1       -0.4611
     14 O           2.7476  -10.3387  -28.0640 O.3     1  UNL1       -0.3959
     15 O           4.2959   -5.7453  -31.4599 O.3     1  UNL1       -0.3959
     16 C           3.0873   -9.2746  -30.2324 C.3     1  UNL1       -0.0763
     17 C           5.6605   -7.7230  -31.8812 C.3     1  UNL1       -0.0763
     18 C           3.0518   -9.1008  -28.7005 C.3     1  UNL1        0.0343
     19 C           5.5568   -6.1863  -31.9568 C.3     1  UNL1        0.0343
     20 C           4.6237  -13.9664  -29.1478 C.3     1  UNL1        0.0900
     21 C           2.8736  -10.5560  -36.3812 C.3     1  UNL1        0.0900
     22 C           1.9826   -9.3587  -36.7829 C.3     1  UNL1       -0.0306
     23 C           5.5420  -13.6703  -27.9473 C.3     1  UNL1       -0.0306
     24 H           3.4030  -11.0051  -28.3231 H       1  UNL1        0.2094
     25 H           4.2430   -4.7789  -31.5246 H       1  UNL1        0.2094
     26 H           2.1631   -9.6941  -30.5712 H       1  UNL1        0.0162
     27 H           3.2270   -8.3271  -30.7096 H       1  UNL1        0.0162
     28 H           6.6379   -8.0350  -32.1850 H       1  UNL1        0.0162
     29 H           5.4907   -8.0550  -30.8784 H       1  UNL1        0.0162
     30 H           4.0073   -8.7571  -28.3631 H       1  UNL1        0.0548
     31 H           2.2937   -8.3882  -28.4508 H       1  UNL1        0.0548
     32 H           6.3382   -5.7515  -31.3692 H       1  UNL1        0.0548
     33 H           5.6508   -5.8833  -32.9787 H       1  UNL1        0.0548
     34 H           4.7836  -14.9681  -29.4883 H       1  UNL1        0.0695
     35 H           3.5974  -13.8625  -28.8635 H       1  UNL1        0.0695
     36 H           2.6614  -10.8345  -35.3701 H       1  UNL1        0.0695
     37 H           2.6720  -11.3826  -37.0301 H       1  UNL1        0.0695
     38 H           2.1834   -8.5314  -36.1346 H       1  UNL1        0.0262
     39 H           0.9528   -9.6363  -36.6983 H       1  UNL1        0.0262
     40 H           2.1949   -9.0794  -37.7938 H       1  UNL1        0.0262
     41 H           6.5641  -13.7777  -28.2450 H       1  UNL1        0.0262
     42 H           5.3270  -14.3576  -27.1558 H       1  UNL1        0.0262
     43 H           5.3728  -12.6701  -27.6069 H       1  UNL1        0.0262
@<TRIPOS>BOND
     1     1     4   ar
     2     1     5   ar
     3     1     7    1
     4     2     3   ar
     5     2     5   ar
     6     2     6    1
     7     3     4   ar
     8     3    10    1
     9     4    11    1
    10     6     9    2
    11     6    13    1
    12     7     8    2
    13     7    12    1
    14    10    16    1
    15    11    17    1
    16    12    21    1
    17    13    20    1
    18    14    18    1
    19    15    19    1
    20    16    18    1
    21    17    19    1
    22    20    23    1
    23    21    22    1
    24    14    24    1
    25    15    25    1
    26    16    26    1
    27    16    27    1
    28    17    28    1
    29    17    29    1
    30    18    30    1
    31    18    31    1
    32    19    32    1
    33    19    33    1
    34    20    34    1
    35    20    35    1
    36    21    36    1
    37    21    37    1
    38    22    38    1
    39    22    39    1
    40    22    40    1
    41    23    41    1
    42    23    42    1
    43    23    43    1
@<TRIPOS>SUBSTRUCTURE
     1 UNL1        1 TEMP              0 ****  ****    0 ROOT


