HTS1710-02605154-01
 OpenBabel03232612353D

 45 47  0  0  1  0  0  0  0  0999 V2000
    3.9924  -10.2694  -30.8840 C   0  0  0  0  0  0  0  0  0  0  0  0
    4.4747   -7.5588  -31.4353 C   0  0  0  0  0  0  0  0  0  0  0  0
    5.0554   -8.4822  -32.2870 C   0  0  0  0  0  0  0  0  0  0  0  0
    3.4871   -9.2579  -30.1125 C   0  0  0  0  0  0  0  0  0  0  0  0
    3.5952   -7.9313  -30.4457 O   0  0  0  0  0  0  0  0  0  0  0  0
    4.6725   -9.9341  -32.2125 C   0  0  2  0  0  0  0  0  0  0  0  0
    3.9344  -11.7595  -30.5816 C   0  0  0  0  0  0  0  0  0  0  0  0
    4.7766   -6.1273  -31.5634 C   0  0  0  0  0  0  0  0  0  0  0  0
    5.9539   -8.1596  -33.2854 O   0  0  0  0  0  0  0  0  0  0  0  0
    5.7264   -5.8302  -32.6343 C   0  0  0  0  0  0  0  0  0  0  0  0
    6.2632   -6.8240  -33.4232 C   0  0  0  0  0  0  0  0  0  0  0  0
    3.5584  -12.0688  -29.3031 O   0  0  0  0  0  0  0  0  0  0  0  0
    4.2231  -12.6093  -31.4103 O   0  0  0  0  0  0  0  0  0  0  0  0
    3.7786  -10.3123  -33.3935 C   0  0  0  0  0  0  0  0  0  0  0  0
    2.8141   -9.4851  -28.9350 N   0  0  0  0  0  0  0  0  0  0  0  0
    4.2897   -5.2661  -30.8504 O   0  0  0  0  0  0  0  0  0  0  0  0
    7.2379   -6.4705  -34.5144 C   0  0  0  0  0  0  0  0  0  0  0  0
    3.7606  -13.3933  -28.7626 C   0  0  0  0  0  0  0  0  0  0  0  0
    6.6892   -6.7507  -35.7981 O   0  0  0  0  0  0  0  0  0  0  0  0
    2.3868  -10.0955  -33.3340 C   0  0  0  0  0  0  0  0  0  0  0  0
    4.3370  -10.8762  -34.5571 C   0  0  0  0  0  0  0  0  0  0  0  0
    2.6768  -13.6758  -27.6929 C   0  0  0  0  0  0  0  0  0  0  0  0
    5.1815  -13.4326  -28.1604 C   0  0  0  0  0  0  0  0  0  0  0  0
    3.5167  -11.2216  -35.6425 C   0  0  0  0  0  0  0  0  0  0  0  0
    1.5676  -10.4422  -34.4194 C   0  0  0  0  0  0  0  0  0  0  0  0
    2.1314  -11.0056  -35.5751 C   0  0  0  0  0  0  0  0  0  0  0  0
    5.5708  -10.5129  -32.2663 H   0  0  0  0  0  0  0  0  0  0  0  0
    6.0021   -4.8502  -32.8038 H   0  0  0  0  0  0  0  0  0  0  0  0
    2.3494   -8.7443  -28.4827 H   0  0  0  0  0  0  0  0  0  0  0  0
    2.7970  -10.3886  -28.5442 H   0  0  0  0  0  0  0  0  0  0  0  0
    8.1325   -7.0428  -34.3835 H   0  0  0  0  0  0  0  0  0  0  0  0
    7.4512   -5.4236  -34.4555 H   0  0  0  0  0  0  0  0  0  0  0  0
    3.6748  -14.1486  -29.5156 H   0  0  0  0  0  0  0  0  0  0  0  0
    6.4770   -7.6951  -35.8599 H   0  0  0  0  0  0  0  0  0  0  0  0
    1.9681   -9.6797  -32.4874 H   0  0  0  0  0  0  0  0  0  0  0  0
    5.3550  -11.0363  -34.6120 H   0  0  0  0  0  0  0  0  0  0  0  0
    2.7351  -12.9359  -26.9221 H   0  0  0  0  0  0  0  0  0  0  0  0
    2.8377  -14.6452  -27.2696 H   0  0  0  0  0  0  0  0  0  0  0  0
    1.7090  -13.6413  -28.1480 H   0  0  0  0  0  0  0  0  0  0  0  0
    5.2706  -12.6781  -27.4069 H   0  0  0  0  0  0  0  0  0  0  0  0
    5.9009  -13.2528  -28.9319 H   0  0  0  0  0  0  0  0  0  0  0  0
    5.3580  -14.3941  -27.7252 H   0  0  0  0  0  0  0  0  0  0  0  0
    3.9327  -11.6351  -36.4916 H   0  0  0  0  0  0  0  0  0  0  0  0
    0.5494  -10.2827  -34.3680 H   0  0  0  0  0  0  0  0  0  0  0  0
    1.5287  -11.2603  -36.3732 H   0  0  0  0  0  0  0  0  0  0  0  0
  1  4  2  0  0  0  0
  1  6  1  0  0  0  0
  1  7  1  0  0  0  0
  2  3  2  0  0  0  0
  2  5  1  0  0  0  0
  2  8  1  0  0  0  0
  3  6  1  0  0  0  0
  3  9  1  0  0  0  0
  4  5  1  0  0  0  0
  4 15  1  0  0  0  0
  6 14  1  0  0  0  0
  6 27  1  6  0  0  0
  7 12  1  0  0  0  0
  7 13  2  0  0  0  0
  8 10  1  0  0  0  0
  8 16  2  0  0  0  0
  9 11  1  0  0  0  0
 10 11  2  0  0  0  0
 10 28  1  0  0  0  0
 11 17  1  0  0  0  0
 12 18  1  0  0  0  0
 14 20  2  0  0  0  0
 14 21  1  0  0  0  0
 15 29  1  0  0  0  0
 15 30  1  0  0  0  0
 17 19  1  0  0  0  0
 17 31  1  0  0  0  0
 17 32  1  0  0  0  0
 18 22  1  0  0  0  0
 18 23  1  0  0  0  0
 18 33  1  0  0  0  0
 19 34  1  0  0  0  0
 20 25  1  0  0  0  0
 20 35  1  0  0  0  0
 21 24  2  0  0  0  0
 21 36  1  0  0  0  0
 22 37  1  0  0  0  0
 22 38  1  0  0  0  0
 22 39  1  0  0  0  0
 23 40  1  0  0  0  0
 23 41  1  0  0  0  0
 23 42  1  0  0  0  0
 24 26  1  0  0  0  0
 24 43  1  0  0  0  0
 25 26  2  0  0  0  0
 25 44  1  0  0  0  0
 26 45  1  0  0  0  0
M  END
$$$$
