HTS1710-01037680-01
 OpenBabel03232612353D

 19 19  0  0  0  0  0  0  0  0999 V2000
    6.0026   -7.9596  -30.8681 O   0  5  0  0  0  0  0  0  0  0  0  0
    4.9181   -8.0740  -31.4126 C   0  0  0  0  0  0  0  0  0  0  0  0
    4.0554   -7.2141  -31.4585 O   0  0  0  0  0  0  0  0  0  0  0  0
    4.6203   -9.3745  -32.1139 C   0  0  0  0  0  0  0  0  0  0  0  0
    5.3589   -9.6892  -33.2730 C   0  0  0  0  0  0  0  0  0  0  0  0
    5.1241  -10.8818  -33.9697 C   0  0  0  0  0  0  0  0  0  0  0  0
    4.1408  -11.7720  -33.5207 C   0  0  0  0  0  0  0  0  0  0  0  0
    3.3937  -11.4709  -32.3719 C   0  0  0  0  0  0  0  0  0  0  0  0
    3.6254  -10.2760  -31.6545 C   0  0  0  0  0  0  0  0  0  0  0  0
    2.8826   -9.9735  -30.5237 N   0  0  0  0  0  0  0  0  0  0  0  0
    3.2776   -9.9982  -28.8946 P   0  0  0  0  0  0  0  0  0  0  0  0
    4.5504  -10.7645  -28.8132 O   0  0  0  0  0  0  0  0  0  0  0  0
    2.1615  -10.7450  -28.2544 O   0  0  0  0  0  1  0  0  0  0  0  0
    3.3819   -8.5758  -28.4764 O   0  0  0  0  0  1  0  0  0  0  0  0
    6.0805   -9.0338  -33.6118 H   0  0  0  0  0  0  0  0  0  0  0  0
    5.6754  -11.1040  -34.8133 H   0  0  0  0  0  0  0  0  0  0  0  0
    3.9657  -12.6495  -34.0349 H   0  0  0  0  0  0  0  0  0  0  0  0
    2.6677  -12.1287  -32.0477 H   0  0  0  0  0  0  0  0  0  0  0  0
    1.9573   -9.6941  -30.7109 H   0  0  0  0  0  0  0  0  0  0  0  0
  1  2  1  0  0  0  0
  2  3  2  0  0  0  0
  2  4  1  0  0  0  0
  4  5  2  0  0  0  0
  4  9  1  0  0  0  0
  5  6  1  0  0  0  0
  5 15  1  0  0  0  0
  6  7  2  0  0  0  0
  6 16  1  0  0  0  0
  7  8  1  0  0  0  0
  7 17  1  0  0  0  0
  8  9  2  0  0  0  0
  8 18  1  0  0  0  0
  9 10  1  0  0  0  0
 10 11  1  0  0  0  0
 10 19  1  0  0  0  0
 11 12  2  0  0  0  0
 11 13  1  0  0  0  0
 11 14  1  0  0  0  0
M  CHG  1   1  -1
M  END
$$$$
