##########                                Name: HTS1710-01242159-01
##########                    Molecular_Weight:             395.368
##########                DOCK_Rotatable_Bonds:                   8
##########                       Formal_Charge:                  -2
##########                     HBond_Acceptors:                   8
##########                        HBond_Donors:                   1
##########                         Heavy_Atoms:                  29
##########                          Grid_Score:          -79.142899
##########                     Grid_vdw_energy:          -44.900120
##########                      Grid_es_energy:          -34.242775
##########           Internal_energy_repulsive:           11.054284

@<TRIPOS>MOLECULE
HTS1710-01242159-01
 46 48 1 0 0
SMALL
USER_CHARGES


@<TRIPOS>ATOM
      1 C           3.9032   -9.4099  -30.9558 C.2     1  UNL1        0.0221
      2 N           3.2157  -11.5628  -30.1725 N.am    1  UNL1       -0.2833
      3 C           3.0949   -9.2679  -29.7083 C.2     1  UNL1        0.2450
      4 C           3.8910  -10.9103  -31.3093 C.3     1  UNL1        0.0802
      5 C           2.7499  -10.6833  -29.2227 C.2     1  UNL1        0.2874
      6 C           4.5151   -8.4640  -31.7348 C.2     1  UNL1       -0.0919
      7 C           3.1899  -11.2056  -32.6321 C.ar    1  UNL1       -0.0188
      8 C           3.2153  -13.0313  -30.0420 C.3     1  UNL1        0.0211
      9 C           3.8872  -11.8229  -33.6889 C.ar    1  UNL1       -0.0110
     10 C           4.6215  -13.5925  -29.7046 C.3     1  UNL1        0.0027
     11 C           3.2393  -12.0869  -34.9147 C.ar    1  UNL1        0.1616
     12 C           5.1343  -13.2078  -28.3067 C.2     1  UNL1        0.0432
     13 O           2.1752  -10.9612  -28.1843 O.2     1  UNL1       -0.2664
     14 O           2.6870   -8.2493  -29.1792 O.2     1  UNL1       -0.2820
     15 C           1.8418  -10.8468  -32.8079 C.ar    1  UNL1       -0.0528
     16 C           4.5490   -6.9736  -31.5521 C.ar    1  UNL1       -0.0323
     17 C           1.8885  -11.7221  -35.0767 C.ar    1  UNL1        0.1585
     18 O           4.3229  -12.8533  -27.4694 O.co2   1  UNL1       -0.5498
     19 C           1.1943  -11.1028  -34.0248 C.ar    1  UNL1       -0.0162
     20 O           5.2091   -8.8736  -32.8255 O.co2   1  UNL1       -0.8730
     21 O           6.3377  -13.2840  -28.1316 O.co2   1  UNL1       -0.5498
     22 O           3.8914  -12.6981  -35.9708 O.3     1  UNL1       -0.4914
     23 O           1.2458  -11.9698  -36.2565 O.3     1  UNL1       -0.5033
     24 C           3.3461   -6.2399  -31.4261 C.ar    1  UNL1       -0.0552
     25 C           5.7641   -6.2552  -31.5769 C.ar    1  UNL1       -0.0552
     26 C           5.3004  -12.9887  -35.9613 C.3     1  UNL1        0.0790
     27 C           5.7819   -4.8598  -31.4216 C.ar    1  UNL1       -0.0612
     28 C           3.3647   -4.8455  -31.2665 C.ar    1  UNL1       -0.0612
     29 C           4.5834   -4.1535  -31.2564 C.ar    1  UNL1       -0.0617
     30 H           4.8849  -11.2789  -31.4551 H       1  UNL1        0.0602
     31 H           2.8869  -13.4588  -30.9664 H       1  UNL1        0.0468
     32 H           2.5585  -13.2884  -29.2374 H       1  UNL1        0.0468
     33 H           4.8780  -12.0836  -33.5661 H       1  UNL1        0.0659
     34 H           5.3143  -13.2206  -30.4303 H       1  UNL1        0.0340
     35 H           4.5387  -14.6592  -29.7193 H       1  UNL1        0.0340
     36 H           1.3264  -10.3930  -32.0376 H       1  UNL1        0.0622
     37 H           0.2051  -10.8354  -34.1478 H       1  UNL1        0.0655
     38 H           0.3158  -11.8701  -36.3134 H       1  UNL1        0.2923
     39 H           2.4421   -6.7368  -31.4519 H       1  UNL1        0.0623
     40 H           6.6523   -6.7631  -31.7111 H       1  UNL1        0.0623
     41 H           5.5737  -13.4599  -36.8823 H       1  UNL1        0.0660
     42 H           5.5240  -13.6439  -35.1454 H       1  UNL1        0.0660
     43 H           5.8516  -12.0785  -35.8491 H       1  UNL1        0.0660
     44 H           6.6808   -4.3529  -31.4293 H       1  UNL1        0.0618
     45 H           2.4785   -4.3284  -31.1563 H       1  UNL1        0.0618
     46 H           4.5978   -3.1296  -31.1279 H       1  UNL1        0.0618
@<TRIPOS>BOND
     1     2     4    1
     2     1     3    1
     3     1     4    1
     4     3     5    1
     5     1     6    2
     6     4     7    1
     7     2     8    1
     8     7     9   ar
     9     8    10    1
    10     9    11   ar
    11    10    12    1
    12     5    13    2
    13     3    14    2
    14     7    15   ar
    15     6    16    1
    16    17    19   ar
    17    12    18   ar
    18    15    19   ar
    19     6    20    1
    20    12    21   ar
    21    11    22    1
    22    17    23    1
    23    16    24   ar
    24    16    25   ar
    25    22    26    1
    26    25    27   ar
    27    24    28   ar
    28    27    29   ar
    29     2     5   am
    30    28    29   ar
    31    11    17   ar
    32     4    30    1
    33     8    31    1
    34     8    32    1
    35     9    33    1
    36    10    34    1
    37    10    35    1
    38    15    36    1
    39    19    37    1
    40    23    38    1
    41    24    39    1
    42    25    40    1
    43    26    41    1
    44    26    42    1
    45    26    43    1
    46    27    44    1
    47    28    45    1
    48    29    46    1
@<TRIPOS>SUBSTRUCTURE
     1 UNL1        1 TEMP              0 ****  ****    0 ROOT


