HTS1710-04762230-01
 OpenBabel03232612353D

 45 46  0  0  1  0  0  0  0  0999 V2000
    0.4226  -11.9824  -34.9057 C   0  0  0  0  0  0  0  0  0  0  0  0
    1.9219  -12.1030  -34.5256 C   0  0  2  0  0  0  0  0  0  0  0  0
    2.0532  -12.0773  -33.0823 O   0  0  0  0  0  0  0  0  0  0  0  0
    1.8253  -13.3178  -32.3767 C   0  0  0  0  0  0  0  0  0  0  0  0
    2.3652  -13.1718  -30.9385 C   0  0  1  0  0  0  0  0  0  0  0  0
    2.0919  -14.3881  -30.0300 C   0  0  0  0  0  0  0  0  0  0  0  0
    3.3394  -14.4800  -29.1345 C   0  0  0  0  0  0  0  0  0  0  0  0
    4.2745  -13.3711  -29.6532 C   0  0  0  0  0  0  0  0  0  0  0  0
    3.7974  -13.1200  -30.9836 O   0  0  0  0  0  0  0  0  0  0  0  0
    2.8187  -11.0225  -35.1826 C   0  0  0  0  0  0  0  0  0  0  0  0
    2.3644   -9.9400  -35.5172 O   0  0  0  0  0  0  0  0  0  0  0  0
    4.1781  -11.3301  -35.3198 N   0  0  0  0  0  0  0  0  0  0  0  0
    4.7802  -12.5937  -34.8435 C   0  0  0  0  0  0  0  0  0  0  0  0
    5.1250  -10.3744  -35.9318 C   0  0  0  0  0  0  0  0  0  0  0  0
    5.4743   -9.2646  -34.9776 C   0  0  0  0  0  0  0  0  0  0  0  0
    5.3127   -9.3358  -33.6192 C   0  0  0  0  0  0  0  0  0  0  0  0
    5.8291   -8.1077  -33.1271 C   0  0  0  0  0  0  0  0  0  0  0  0
    5.9057   -7.6984  -31.7034 C   0  0  0  0  0  0  0  0  0  0  0  0
    5.6211   -8.5406  -30.8695 O   0  5  0  0  0  0  0  0  0  0  0  0
    6.2471   -6.5589  -31.4442 O   0  0  0  0  0  0  0  0  0  0  0  0
    6.2281   -7.4376  -34.2663 C   0  0  0  0  0  0  0  0  0  0  0  0
    6.8338   -6.0583  -34.3090 C   0  0  0  0  0  0  0  0  0  0  0  0
    6.0359   -8.1103  -35.4457 O   0  0  0  0  0  0  0  0  0  0  0  0
   -0.1323  -12.7564  -34.4181 H   0  0  0  0  0  0  0  0  0  0  0  0
    0.3145  -12.0795  -35.9657 H   0  0  0  0  0  0  0  0  0  0  0  0
    0.0517  -11.0279  -34.5953 H   0  0  0  0  0  0  0  0  0  0  0  0
    2.2725  -13.0375  -34.9110 H   0  0  0  0  0  0  0  0  0  0  0  0
    2.3367  -14.1149  -32.8747 H   0  0  0  0  0  0  0  0  0  0  0  0
    0.7786  -13.5387  -32.3538 H   0  0  0  0  0  0  0  0  0  0  0  0
    1.8794  -12.2999  -30.5530 H   0  0  0  0  0  0  0  0  0  0  0  0
    1.9769  -15.2783  -30.6125 H   0  0  0  0  0  0  0  0  0  0  0  0
    1.1894  -14.2824  -29.4651 H   0  0  0  0  0  0  0  0  0  0  0  0
    3.8028  -15.4397  -29.2298 H   0  0  0  0  0  0  0  0  0  0  0  0
    3.1038  -14.3592  -28.0977 H   0  0  0  0  0  0  0  0  0  0  0  0
    5.2909  -13.7051  -29.6689 H   0  0  0  0  0  0  0  0  0  0  0  0
    4.2639  -12.4969  -29.0365 H   0  0  0  0  0  0  0  0  0  0  0  0
    4.0184  -13.2142  -34.4196 H   0  0  0  0  0  0  0  0  0  0  0  0
    5.5194  -12.3787  -34.1003 H   0  0  0  0  0  0  0  0  0  0  0  0
    5.2384  -13.1026  -35.6656 H   0  0  0  0  0  0  0  0  0  0  0  0
    4.6778   -9.9531  -36.8078 H   0  0  0  0  0  0  0  0  0  0  0  0
    6.0226  -10.9008  -36.1811 H   0  0  0  0  0  0  0  0  0  0  0  0
    4.9054  -10.1112  -33.0734 H   0  0  0  0  0  0  0  0  0  0  0  0
    6.9159   -5.6739  -33.3138 H   0  0  0  0  0  0  0  0  0  0  0  0
    6.2096   -5.4125  -34.8904 H   0  0  0  0  0  0  0  0  0  0  0  0
    7.8060   -6.1093  -34.7530 H   0  0  0  0  0  0  0  0  0  0  0  0
  1  2  1  0  0  0  0
  1 24  1  0  0  0  0
  1 25  1  0  0  0  0
  1 26  1  0  0  0  0
  2  3  1  0  0  0  0
  2 10  1  0  0  0  0
  2 27  1  6  0  0  0
  3  4  1  0  0  0  0
  4  5  1  0  0  0  0
  4 28  1  0  0  0  0
  4 29  1  0  0  0  0
  5  6  1  0  0  0  0
  5  9  1  0  0  0  0
  5 30  1  1  0  0  0
  6  7  1  0  0  0  0
  6 31  1  0  0  0  0
  6 32  1  0  0  0  0
  7  8  1  0  0  0  0
  7 33  1  0  0  0  0
  7 34  1  0  0  0  0
  8  9  1  0  0  0  0
  8 35  1  0  0  0  0
  8 36  1  0  0  0  0
 10 11  2  0  0  0  0
 10 12  1  0  0  0  0
 12 13  1  0  0  0  0
 12 14  1  0  0  0  0
 13 37  1  0  0  0  0
 13 38  1  0  0  0  0
 13 39  1  0  0  0  0
 14 15  1  0  0  0  0
 14 40  1  0  0  0  0
 14 41  1  0  0  0  0
 15 16  2  0  0  0  0
 15 23  1  0  0  0  0
 16 17  1  0  0  0  0
 16 42  1  0  0  0  0
 17 18  1  0  0  0  0
 17 21  2  0  0  0  0
 18 19  1  0  0  0  0
 18 20  2  0  0  0  0
 21 22  1  0  0  0  0
 21 23  1  0  0  0  0
 22 43  1  0  0  0  0
 22 44  1  0  0  0  0
 22 45  1  0  0  0  0
M  CHG  1  19  -1
M  END
$$$$
