##########                                Name: HTS1710-01816653-01
##########                    Molecular_Weight:             414.458
##########                DOCK_Rotatable_Bonds:                  11
##########                       Formal_Charge:                  -2
##########                     HBond_Acceptors:                   8
##########                        HBond_Donors:                   2
##########                         Heavy_Atoms:                  30
##########                          Grid_Score:          -80.966553
##########                     Grid_vdw_energy:          -46.748344
##########                      Grid_es_energy:          -34.218212
##########           Internal_energy_repulsive:           12.114527

@<TRIPOS>MOLECULE
HTS1710-01816653-01
 56 59 1 0 0
SMALL
USER_CHARGES


@<TRIPOS>ATOM
      1 C           4.5641  -12.2899  -28.4908 C.3     1  UNL1       -0.0137
      2 C           2.5688  -13.0373  -29.2280 C.3     1  UNL1       -0.0106
      3 C          -2.1541   -5.3223  -33.1583 C.3     1  UNL1       -0.0137
      4 C          -2.6513   -5.9685  -35.2629 C.3     1  UNL1       -0.0106
      5 C           2.8906  -11.8879  -30.2312 C.3     1  UNL1        0.0502
      6 C          -1.1115   -5.7227  -35.3373 C.3     1  UNL1        0.0502
      7 C           4.3141  -11.3962  -29.7505 C.3     1  UNL1        0.0164
      8 C          -0.7499   -5.3512  -33.8403 C.3     1  UNL1        0.0164
      9 C           4.7565  -13.7048  -28.9971 C.2     1  UNL1       -0.0839
     10 C           3.5829  -14.1429  -29.4372 C.2     1  UNL1       -0.0838
     11 C          -2.6369   -6.7540  -33.0988 C.2     1  UNL1       -0.0839
     12 C          -2.9235   -7.1381  -34.3369 C.2     1  UNL1       -0.0838
     13 C           2.8094  -12.3331  -31.7041 C.2     1  UNL1        0.2173
     14 C          -0.2786   -6.8935  -35.8826 C.2     1  UNL1        0.2173
     15 C           4.3407   -9.8753  -29.4940 C.2     1  UNL1        0.0461
     16 C           0.0376   -4.0380  -33.6335 C.2     1  UNL1        0.0461
     17 C           3.1381  -12.4465  -27.9242 C.3     1  UNL1       -0.0391
     18 C          -3.0556   -4.8265  -34.3080 C.3     1  UNL1       -0.0391
     19 O          -0.0072   -7.0190  -37.0660 O.2     1  UNL1       -0.2755
     20 O           3.7592  -12.8066  -32.3062 O.2     1  UNL1       -0.2755
     21 O           3.9203   -9.4586  -28.4281 O.co2   1  UNL1       -0.5495
     22 O          -0.1191   -3.1262  -34.4273 O.co2   1  UNL1       -0.5495
     23 N           1.5931  -12.1875  -32.3548 N.am    1  UNL1       -0.3150
     24 N           0.1850   -7.8257  -34.9672 N.am    1  UNL1       -0.3150
     25 O           0.7945   -4.0071  -32.6781 O.co2   1  UNL1       -0.5495
     26 O           4.8080   -9.1837  -30.3811 O.co2   1  UNL1       -0.5495
     27 C           1.3984  -12.5772  -33.7568 C.3     1  UNL1        0.0116
     28 C           0.9892   -8.9862  -35.3635 C.3     1  UNL1        0.0116
     29 C           0.7759  -10.1544  -34.3751 C.3     1  UNL1       -0.0360
     30 C           1.6743  -11.3803  -34.6931 C.3     1  UNL1       -0.0360
     31 H           5.3433  -11.9120  -27.8624 H       1  UNL1        0.0350
     32 H           1.5491  -13.3573  -29.2811 H       1  UNL1        0.0351
     33 H          -2.1506   -4.7970  -32.2262 H       1  UNL1        0.0350
     34 H          -3.0970   -6.0719  -36.2302 H       1  UNL1        0.0351
     35 H           2.1762  -11.0914  -30.2218 H       1  UNL1        0.0406
     36 H          -0.8707   -4.9598  -36.0477 H       1  UNL1        0.0406
     37 H           5.0962  -11.5084  -30.4720 H       1  UNL1        0.0374
     38 H          -0.0621   -6.0569  -33.4235 H       1  UNL1        0.0374
     39 H           5.6425  -14.2341  -28.9995 H       1  UNL1        0.0572
     40 H           3.3952  -15.0707  -29.8482 H       1  UNL1        0.0572
     41 H          -2.7274   -7.3300  -32.2473 H       1  UNL1        0.0572
     42 H          -3.2703   -8.0682  -34.6192 H       1  UNL1        0.0572
     43 H           3.0854  -13.1231  -27.0968 H       1  UNL1        0.0277
     44 H           2.6608  -11.5838  -27.5085 H       1  UNL1        0.0277
     45 H          -4.0965   -4.8335  -34.0600 H       1  UNL1        0.0277
     46 H          -2.9365   -3.8183  -34.6457 H       1  UNL1        0.0277
     47 H           0.8321  -11.8087  -31.8581 H       1  UNL1        0.1487
     48 H          -0.0340   -7.7040  -34.0151 H       1  UNL1        0.1487
     49 H           0.3897  -12.9067  -33.8940 H       1  UNL1        0.0462
     50 H           2.0797  -13.3672  -33.9945 H       1  UNL1        0.0462
     51 H           2.0237   -8.7129  -35.3678 H       1  UNL1        0.0462
     52 H           0.6868   -9.2998  -36.3408 H       1  UNL1        0.0462
     53 H          -0.2486  -10.4595  -34.4218 H       1  UNL1        0.0281
     54 H           1.0405   -9.8044  -33.3993 H       1  UNL1        0.0281
     55 H           2.6990  -11.0911  -34.5869 H       1  UNL1        0.0281
     56 H           1.4541  -11.6930  -35.6925 H       1  UNL1        0.0281
@<TRIPOS>BOND
     1     2    17    1
     2     3     8    1
     3     4     6    1
     4     5     7    1
     5     6    14    1
     6     1     7    1
     7     6     8    1
     8     1     9    1
     9     9    10    2
    10    11    12    2
    11     4    12    1
    12     5    13    1
    13    14    24   am
    14     7    15    1
    15     8    16    1
    16     1    17    1
    17     4    18    1
    18    14    19    2
    19    13    20    2
    20    15    21   ar
    21    16    22   ar
    22    13    23   am
    23    24    28    1
    24    16    25   ar
    25    15    26   ar
    26    23    27    1
    27    28    29    1
    28    29    30    1
    29    27    30    1
    30     2    10    1
    31     2     5    1
    32     3    18    1
    33     3    11    1
    34     1    31    1
    35     2    32    1
    36     3    33    1
    37     4    34    1
    38     5    35    1
    39     6    36    1
    40     7    37    1
    41     8    38    1
    42     9    39    1
    43    10    40    1
    44    11    41    1
    45    12    42    1
    46    17    43    1
    47    17    44    1
    48    18    45    1
    49    18    46    1
    50    23    47    1
    51    24    48    1
    52    27    49    1
    53    27    50    1
    54    28    51    1
    55    28    52    1
    56    29    53    1
    57    29    54    1
    58    30    55    1
    59    30    56    1
@<TRIPOS>SUBSTRUCTURE
     1 UNL1        1 TEMP              0 ****  ****    0 ROOT


