##########                                Name: HTS1710-00236567-01
##########                    Molecular_Weight:             381.342
##########                DOCK_Rotatable_Bonds:                   4
##########                       Formal_Charge:                  -3
##########                     HBond_Acceptors:                  13
##########                        HBond_Donors:                   1
##########                         Heavy_Atoms:                  23
##########                          Grid_Score:          -88.998154
##########                     Grid_vdw_energy:          -34.699039
##########                      Grid_es_energy:          -54.299114
##########           Internal_energy_repulsive:           11.797471

@<TRIPOS>MOLECULE
HTS1710-00236567-01
 28 29 1 0 0
SMALL
USER_CHARGES


@<TRIPOS>ATOM
      1 S           3.4068   -9.8420  -29.4895 S.3     1  UNL1       -0.0477
      2 S           2.6880   -9.5787  -36.7011 S.3     1  UNL1       -0.0506
      3 S          -1.7473   -6.8205  -34.8080 S.3     1  UNL1       -0.0511
      4 C           2.9048   -9.6091  -31.2191 C.ar    1  UNL1        0.1184
      5 C           1.7286   -8.9684  -35.2757 C.ar    1  UNL1        0.0862
      6 C           2.1390   -9.1979  -33.9314 C.ar    1  UNL1        0.0096
      7 C          -0.2279   -7.7354  -34.4600 C.ar    1  UNL1        0.0790
      8 C           0.5435   -8.2412  -35.5190 C.ar    1  UNL1       -0.0133
      9 C           1.3523   -8.6898  -32.8707 C.ar    1  UNL1       -0.0123
     10 C           1.7341   -8.8936  -31.5325 C.ar    1  UNL1       -0.0264
     11 C           3.6923  -10.1212  -32.2705 C.ar    1  UNL1        0.1413
     12 C           3.3119   -9.9180  -33.6070 C.ar    1  UNL1       -0.0088
     13 C           0.1770   -7.9683  -33.1372 C.ar    1  UNL1       -0.0300
     14 O           2.7761   -8.7297  -28.7712 O.2     1  UNL1       -0.1802
     15 O           2.8767  -11.1707  -29.1700 O.2     1  UNL1       -0.1802
     16 O           2.0961   -8.9119  -37.8647 O.2     1  UNL1       -0.1803
     17 O           2.4667  -11.0272  -36.6428 O.2     1  UNL1       -0.1803
     18 O          -1.6441   -6.5255  -36.2403 O.2     1  UNL1       -0.1803
     19 O          -1.6714   -5.6578  -33.9179 O.2     1  UNL1       -0.1803
     20 O           4.8694   -9.7760  -29.5787 O.co2   1  UNL1       -0.7201
     21 O           4.0528   -9.1514  -36.3749 O.co2   1  UNL1       -0.7201
     22 O          -2.7799   -7.8008  -34.4564 O.co2   1  UNL1       -0.7202
     23 O           4.8385  -10.8178  -32.0082 O.3     1  UNL1       -0.5049
     24 H           0.2389   -8.0784  -36.4914 H       1  UNL1        0.0655
     25 H           1.1491   -8.5140  -30.7717 H       1  UNL1        0.0643
     26 H           3.8982  -10.3006  -34.3652 H       1  UNL1        0.0661
     27 H          -0.3920   -7.6075  -32.3555 H       1  UNL1        0.0642
     28 H           5.3579  -11.1484  -32.7145 H       1  UNL1        0.2922
@<TRIPOS>BOND
     1     2     5    1
     2     3     7    1
     3     1     4    1
     4     5     6   ar
     5     6    12   ar
     6     7    13   ar
     7     5     8   ar
     8     9    10   ar
     9     4    10   ar
    10     4    11   ar
    11    11    12   ar
    12     9    13   ar
    13     1    14    2
    14     1    15    2
    15     2    16    2
    16     2    17    2
    17     3    18    2
    18     3    19    2
    19     1    20    1
    20     2    21    1
    21     3    22    1
    22    11    23    1
    23     6     9   ar
    24     7     8   ar
    25     8    24    1
    26    10    25    1
    27    12    26    1
    28    13    27    1
    29    23    28    1
@<TRIPOS>SUBSTRUCTURE
     1 UNL1        1 TEMP              0 ****  ****    0 ROOT


