##########                                Name: HTS1710-00346648-01
##########                    Molecular_Weight:             383.335
##########                DOCK_Rotatable_Bonds:                   7
##########                       Formal_Charge:                  -2
##########                     HBond_Acceptors:                  11
##########                        HBond_Donors:                   1
##########                         Heavy_Atoms:                  26
##########                          Grid_Score:          -76.534256
##########                     Grid_vdw_energy:          -42.049438
##########                      Grid_es_energy:          -34.484821
##########           Internal_energy_repulsive:            9.215620

@<TRIPOS>MOLECULE
HTS1710-00346648-01
 39 40 1 0 0
SMALL
USER_CHARGES


@<TRIPOS>ATOM
      1 C          -1.2441   -6.1646  -33.2799 C.3     1  UNL1        0.0788
      2 O          -0.0325   -6.7032  -33.8388 O.3     1  UNL1       -0.4950
      3 C           0.6085   -7.8115  -33.3169 C.ar    1  UNL1        0.1243
      4 C           0.5530   -9.0089  -34.0429 C.ar    1  UNL1        0.0237
      5 C           1.1947  -10.1704  -33.5606 C.ar    1  UNL1        0.1464
      6 O           1.1029  -11.3719  -34.2412 O.3     1  UNL1       -0.4931
      7 C           0.7376  -11.4699  -35.6298 C.3     1  UNL1        0.0789
      8 C           1.9172  -10.1174  -32.3446 C.ar    1  UNL1        0.0986
      9 N           2.6070  -11.2240  -31.8813 N.pl3   1  UNL1       -0.2120
     10 S           4.2420  -11.6279  -32.1326 S.O2    1  UNL1        0.0758
     11 O           4.2415  -12.9756  -32.7086 O.2     1  UNL1       -0.1499
     12 O           4.8621  -11.3046  -30.8431 O.2     1  UNL1       -0.1499
     13 C           4.8730  -10.4543  -33.3349 C.ar    1  UNL1        0.1495
     14 C           5.3725   -9.1463  -33.1112 C.ar    1  UNL1        0.0123
     15 C           5.7549   -8.6653  -34.3366 C.ar    1  UNL1        0.1522
     16 O           5.5335   -9.5390  -35.3709 O.2     1  UNL1       -0.4568
     17 C           4.9967  -10.6048  -34.6977 C.ar    1  UNL1        0.1292
     18 C           4.5799  -11.8256  -35.4760 C.3     1  UNL1       -0.0044
     19 C           6.3623   -7.3350  -34.5710 C.2     1  UNL1        0.1070
     20 O           6.5172   -6.6074  -33.6051 O.co2   1  UNL1       -0.5416
     21 O           6.6734   -7.0472  -35.7146 O.co2   1  UNL1       -0.5416
     22 C           1.9375   -8.9189  -31.5891 C.ar    1  UNL1        0.0267
     23 C           1.2932   -7.7725  -32.0872 C.ar    1  UNL1       -0.0091
     24 C           2.6643   -8.8169  -30.2705 C.2     1  UNL1        0.0737
     25 O           2.2960   -9.5407  -29.3614 O.co2   1  UNL1       -0.5446
     26 O           3.5668   -7.9997  -30.2006 O.co2   1  UNL1       -0.5446
     27 H          -1.5513   -5.3122  -33.8491 H       1  UNL1        0.0660
     28 H          -1.0698   -5.8721  -32.2655 H       1  UNL1        0.0660
     29 H          -2.0122   -6.9090  -33.3096 H       1  UNL1        0.0660
     30 H           0.0389   -9.0419  -34.9372 H       1  UNL1        0.0691
     31 H           0.7358  -12.4979  -35.9264 H       1  UNL1        0.0660
     32 H           1.4443  -10.9286  -36.2236 H       1  UNL1        0.0660
     33 H          -0.2388  -11.0560  -35.7717 H       1  UNL1        0.0660
     34 H           2.0863  -11.8583  -31.3374 H       1  UNL1        0.1738
     35 H           5.4356   -8.6544  -32.2061 H       1  UNL1        0.0676
     36 H           4.7882  -11.6747  -36.5147 H       1  UNL1        0.0308
     37 H           3.5313  -11.9924  -35.3432 H       1  UNL1        0.0308
     38 H           5.1240  -12.6766  -35.1231 H       1  UNL1        0.0308
     39 H           1.3224   -6.8941  -31.5462 H       1  UNL1        0.0661
@<TRIPOS>BOND
     1     1     2    1
     2     2     3    1
     3     3     4   ar
     4     4     5   ar
     5     5     6    1
     6     6     7    1
     7     5     8   ar
     8     8     9    1
     9     9    10    1
    10    10    11    2
    11    10    12    2
    12    10    13    1
    13    13    14   ar
    14    14    15   ar
    15    15    16   ar
    16    16    17   ar
    17    13    17   ar
    18    17    18    1
    19    15    19    1
    20    19    20   ar
    21    19    21   ar
    22     8    22   ar
    23    22    23   ar
    24     3    23   ar
    25    22    24    1
    26    24    25   ar
    27    24    26   ar
    28     1    27    1
    29     1    28    1
    30     1    29    1
    31     4    30    1
    32     7    31    1
    33     7    32    1
    34     7    33    1
    35     9    34    1
    36    14    35    1
    37    18    36    1
    38    18    37    1
    39    18    38    1
    40    23    39    1
@<TRIPOS>SUBSTRUCTURE
     1 UNL1        1 TEMP              0 ****  ****    0 ROOT


