##########                                Name: HTS1710-00385047-01
##########                    Molecular_Weight:             333.364
##########                DOCK_Rotatable_Bonds:                   6
##########                       Formal_Charge:                  -2
##########                     HBond_Acceptors:                   7
##########                        HBond_Donors:                   1
##########                         Heavy_Atoms:                  24
##########                          Grid_Score:          -74.955429
##########                     Grid_vdw_energy:          -40.896004
##########                      Grid_es_energy:          -34.059429
##########           Internal_energy_repulsive:           12.573728

@<TRIPOS>MOLECULE
HTS1710-00385047-01
 45 47 1 0 0
SMALL
USER_CHARGES


@<TRIPOS>ATOM
      1 C           6.6476   -6.0895  -35.1766 C.3     1  UNL1       -0.0524
      2 C           6.1494   -7.4284  -34.6928 C.2     1  UNL1       -0.1120
      3 O           5.8129   -8.3813  -35.6193 O.co2   1  UNL1       -0.7845
      4 C           5.4256   -9.4024  -34.7973 C.2     1  UNL1       -0.1000
      5 C           4.9489  -10.6996  -35.4158 C.3     1  UNL1        0.0240
      6 N           4.7170  -11.7553  -34.4213 N.am    1  UNL1       -0.3120
      7 C           3.6893  -11.6918  -33.4889 C.2     1  UNL1        0.2183
      8 O           2.9427  -10.7278  -33.4724 O.2     1  UNL1       -0.2754
      9 C           3.5253  -12.8444  -32.4881 C.3     1  UNL1        0.0595
     10 C           3.6892  -12.4031  -31.0150 C.3     1  UNL1        0.0265
     11 N           2.6605  -13.1361  -30.2706 N.am    1  UNL1       -0.2977
     12 C           2.7320  -13.3173  -28.7997 C.3     1  UNL1        0.0260
     13 C           3.7977  -12.4286  -28.1155 C.3     1  UNL1       -0.0343
     14 C           5.0679  -13.2873  -27.9459 C.3     1  UNL1       -0.0513
     15 C           4.6468  -14.7593  -28.1420 C.3     1  UNL1       -0.0513
     16 C           3.1299  -14.7617  -28.4258 C.3     1  UNL1       -0.0343
     17 C           1.7987  -13.8269  -31.0971 C.2     1  UNL1        0.2166
     18 O           0.9211  -14.5850  -30.7204 O.2     1  UNL1       -0.2756
     19 C           2.1362  -13.5327  -32.5529 C.3     1  UNL1        0.0367
     20 C           5.5087   -9.1339  -33.4526 C.2     1  UNL1       -0.0630
     21 C           5.9933   -7.8011  -33.3740 C.2     1  UNL1       -0.0144
     22 C           6.2510   -7.0359  -32.1290 C.2     1  UNL1        0.0708
     23 O           6.0463   -5.8356  -32.1649 O.co2   1  UNL1       -0.5447
     24 O           6.6501   -7.6389  -31.1480 O.co2   1  UNL1       -0.5447
     25 H           6.6664   -6.0814  -36.2464 H       1  UNL1        0.0266
     26 H           7.6351   -5.9195  -34.8013 H       1  UNL1        0.0266
     27 H           5.9948   -5.3179  -34.8254 H       1  UNL1        0.0266
     28 H           5.6896  -11.0401  -36.1087 H       1  UNL1        0.0500
     29 H           4.0143  -10.5014  -35.8976 H       1  UNL1        0.0500
     30 H           5.3132  -12.5386  -34.4154 H       1  UNL1        0.1490
     31 H           4.3020  -13.5187  -32.7827 H       1  UNL1        0.0414
     32 H           3.5381  -11.3480  -30.9216 H       1  UNL1        0.0472
     33 H           4.6714  -12.6110  -30.6450 H       1  UNL1        0.0472
     34 H           1.7501  -13.0562  -28.4641 H       1  UNL1        0.0500
     35 H           3.4448  -12.1034  -27.1591 H       1  UNL1        0.0283
     36 H           4.0029  -11.5596  -28.7053 H       1  UNL1        0.0283
     37 H           5.4767  -13.1494  -26.9668 H       1  UNL1        0.0266
     38 H           5.8166  -13.0063  -28.6569 H       1  UNL1        0.0266
     39 H           4.8556  -15.3222  -27.2564 H       1  UNL1        0.0266
     40 H           5.1869  -15.2061  -28.9505 H       1  UNL1        0.0266
     41 H           2.5945  -15.0753  -27.5540 H       1  UNL1        0.0283
     42 H           2.8936  -15.4381  -29.2205 H       1  UNL1        0.0283
     43 H           1.4085  -12.8793  -32.9870 H       1  UNL1        0.0366
     44 H           2.1428  -14.4144  -33.1590 H       1  UNL1        0.0366
     45 H           5.2708   -9.7634  -32.6702 H       1  UNL1        0.0615
@<TRIPOS>BOND
     1     1     2    1
     2     2     3    1
     3     3     4    1
     4     4     5    1
     5     5     6    1
     6     6     7   am
     7     7     8    2
     8     7     9    1
     9     9    10    1
    10    10    11    1
    11    11    12    1
    12    12    13    1
    13    13    14    1
    14    14    15    1
    15    15    16    1
    16    12    16    1
    17    11    17   am
    18    17    18    2
    19    17    19    1
    20     9    19    1
    21     4    20    2
    22    20    21    1
    23     2    21    2
    24    21    22    1
    25    22    23   ar
    26    22    24   ar
    27     1    25    1
    28     1    26    1
    29     1    27    1
    30     5    28    1
    31     5    29    1
    32     6    30    1
    33     9    31    1
    34    10    32    1
    35    10    33    1
    36    12    34    1
    37    13    35    1
    38    13    36    1
    39    14    37    1
    40    14    38    1
    41    15    39    1
    42    15    40    1
    43    16    41    1
    44    16    42    1
    45    19    43    1
    46    19    44    1
    47    20    45    1
@<TRIPOS>SUBSTRUCTURE
     1 UNL1        1 TEMP              0 ****  ****    0 ROOT


