##########                                Name: HTS1710-00483312-01
##########                    Molecular_Weight:             260.203
##########                DOCK_Rotatable_Bonds:                   5
##########                       Formal_Charge:                  -3
##########                     HBond_Acceptors:                   6
##########                        HBond_Donors:                   0
##########                         Heavy_Atoms:                  19
##########                          Grid_Score:          -85.532494
##########                     Grid_vdw_energy:          -29.727394
##########                      Grid_es_energy:          -55.805099
##########           Internal_energy_repulsive:            8.348752

@<TRIPOS>MOLECULE
HTS1710-00483312-01
 27 28 1 0 0
SMALL
USER_CHARGES


@<TRIPOS>ATOM
      1 C           5.4992   -8.8778  -34.2207 C.2     1  UNL1       -0.0708
      2 C           6.0500   -7.6911  -33.7856 C.2     1  UNL1       -0.0107
      3 O           4.9676   -9.6708  -33.2368 O.co2   1  UNL1       -0.7794
      4 C           5.4583   -9.3688  -35.6509 C.3     1  UNL1        0.1025
      5 C           5.8727   -7.7340  -32.3779 C.2     1  UNL1       -0.0587
      6 C           6.6888   -6.5902  -34.5501 C.2     1  UNL1        0.0709
      7 C           5.2309   -8.9199  -32.1175 C.2     1  UNL1       -0.0707
      8 O           4.1252   -9.2252  -36.1860 O.3     1  UNL1       -0.4885
      9 O           6.9296   -5.5628  -33.9406 O.co2   1  UNL1       -0.5447
     10 O           6.9307   -6.7623  -35.7307 O.co2   1  UNL1       -0.5447
     11 C           4.8366   -9.3930  -30.7692 C.2     1  UNL1        0.0579
     12 C           3.0328   -9.9468  -35.7445 C.ar    1  UNL1        0.1209
     13 O           4.8663  -10.5945  -30.5594 O.co2   1  UNL1       -0.5458
     14 O           4.5070   -8.5547  -29.9472 O.co2   1  UNL1       -0.5458
     15 C           3.2501  -11.2529  -35.2734 C.ar    1  UNL1       -0.0199
     16 C           1.7216   -9.4222  -35.7626 C.ar    1  UNL1       -0.0199
     17 C           2.1745  -12.0279  -34.8113 C.ar    1  UNL1       -0.0583
     18 C           0.6482  -10.2002  -35.2986 C.ar    1  UNL1       -0.0583
     19 C           0.8738  -11.5002  -34.8218 C.ar    1  UNL1       -0.0615
     20 H           5.7419  -10.4001  -35.6794 H       1  UNL1        0.0736
     21 H           6.1369   -8.7884  -36.2404 H       1  UNL1        0.0736
     22 H           6.1657   -7.0210  -31.6916 H       1  UNL1        0.0619
     23 H           4.2049  -11.6443  -35.2672 H       1  UNL1        0.0654
     24 H           1.5523   -8.4678  -36.1167 H       1  UNL1        0.0654
     25 H           2.3401  -12.9855  -34.4640 H       1  UNL1        0.0619
     26 H          -0.3090   -9.8145  -35.3085 H       1  UNL1        0.0619
     27 H           0.0836  -12.0684  -34.4787 H       1  UNL1        0.0618
@<TRIPOS>BOND
     1     1     2    2
     2     1     3    1
     3     1     4    1
     4     2     5    1
     5     2     6    1
     6     3     7    1
     7     4     8    1
     8     6     9   ar
     9     6    10   ar
    10     7    11    1
    11     8    12    1
    12    11    13   ar
    13    11    14   ar
    14    12    15   ar
    15    12    16   ar
    16    15    17   ar
    17    16    18   ar
    18    17    19   ar
    19     5     7    2
    20    18    19   ar
    21     4    20    1
    22     4    21    1
    23     5    22    1
    24    15    23    1
    25    16    24    1
    26    17    25    1
    27    18    26    1
    28    19    27    1
@<TRIPOS>SUBSTRUCTURE
     1 UNL1        1 TEMP              0 ****  ****    0 ROOT


