HTS1710-04739359-01
 OpenBabel03232612353D

 38 40  0  0  1  0  0  0  0  0999 V2000
    5.0253   -8.9963  -36.1334 O   0  5  0  0  0  0  0  0  0  0  0  0
    4.0178   -9.4423  -36.6549 C   0  0  0  0  0  0  0  0  0  0  0  0
    3.5988   -9.1185  -37.7522 O   0  0  0  0  0  0  0  0  0  0  0  0
    3.2282  -10.4757  -35.8796 C   0  0  0  0  0  0  0  0  0  0  0  0
    1.8684  -10.7114  -36.1757 C   0  0  0  0  0  0  0  0  0  0  0  0
    1.1374  -11.6715  -35.4584 C   0  0  0  0  0  0  0  0  0  0  0  0
    1.7529  -12.4074  -34.4372 C   0  0  0  0  0  0  0  0  0  0  0  0
    3.1053  -12.1877  -34.1275 C   0  0  0  0  0  0  0  0  0  0  0  0
    3.7769  -12.9972  -33.0279 C   0  0  0  0  0  0  0  0  0  0  0  0
    3.4969  -12.3715  -31.7324 N   0  0  0  0  0  0  0  0  0  0  0  0
    4.0986  -11.1854  -31.3333 C   0  0  0  0  0  0  0  0  0  0  0  0
    4.8919  -10.6434  -32.0853 O   0  0  0  0  0  0  0  0  0  0  0  0
    3.7390  -10.6442  -29.9997 C   0  0  0  0  0  0  0  0  0  0  0  0
    3.8069   -9.3286  -29.6692 N   0  0  0  0  0  0  0  0  0  0  0  0
    3.3954   -9.3082  -28.4127 C   0  0  0  0  0  0  0  0  0  0  0  0
    3.0492  -10.5180  -27.8488 O   0  0  0  0  0  0  0  0  0  0  0  0
    3.2922  -11.3442  -28.9128 C   0  0  0  0  0  0  0  0  0  0  0  0
    3.0697  -12.8403  -28.8209 C   0  0  2  0  0  0  0  0  0  0  0  0
    2.4646  -13.3574  -27.4954 C   0  0  0  0  0  0  0  0  0  0  0  0
    3.0923  -14.7519  -27.3157 C   0  0  0  0  0  0  0  0  0  0  0  0
    4.0715  -14.8910  -28.4973 C   0  0  0  0  0  0  0  0  0  0  0  0
    4.3256  -13.5329  -28.8820 O   0  0  0  0  0  0  0  0  0  0  0  0
    3.8367  -11.2250  -34.8474 C   0  0  0  0  0  0  0  0  0  0  0  0
    1.4075  -10.1732  -36.9261 H   0  0  0  0  0  0  0  0  0  0  0  0
    0.1438  -11.8357  -35.6838 H   0  0  0  0  0  0  0  0  0  0  0  0
    1.2118  -13.1119  -33.9119 H   0  0  0  0  0  0  0  0  0  0  0  0
    4.8338  -13.0196  -33.1940 H   0  0  0  0  0  0  0  0  0  0  0  0
    3.3979  -13.9978  -33.0343 H   0  0  0  0  0  0  0  0  0  0  0  0
    2.8588  -12.8081  -31.1229 H   0  0  0  0  0  0  0  0  0  0  0  0
    3.3360   -8.4272  -27.8786 H   0  0  0  0  0  0  0  0  0  0  0  0
    2.3936  -13.0231  -29.6298 H   0  0  0  0  0  0  0  0  0  0  0  0
    1.3992  -13.4265  -27.5657 H   0  0  0  0  0  0  0  0  0  0  0  0
    2.6658  -12.7066  -26.6703 H   0  0  0  0  0  0  0  0  0  0  0  0
    2.3410  -15.5127  -27.3559 H   0  0  0  0  0  0  0  0  0  0  0  0
    3.5797  -14.8592  -26.3692 H   0  0  0  0  0  0  0  0  0  0  0  0
    3.6260  -15.4393  -29.3009 H   0  0  0  0  0  0  0  0  0  0  0  0
    4.9622  -15.4253  -28.2402 H   0  0  0  0  0  0  0  0  0  0  0  0
    4.8301  -11.0640  -34.6187 H   0  0  0  0  0  0  0  0  0  0  0  0
  1  2  1  0  0  0  0
  2  3  2  0  0  0  0
  2  4  1  0  0  0  0
  4  5  2  0  0  0  0
  4 23  1  0  0  0  0
  5  6  1  0  0  0  0
  5 24  1  0  0  0  0
  6  7  2  0  0  0  0
  6 25  1  0  0  0  0
  7  8  1  0  0  0  0
  7 26  1  0  0  0  0
  8  9  1  0  0  0  0
  8 23  2  0  0  0  0
  9 10  1  0  0  0  0
  9 27  1  0  0  0  0
  9 28  1  0  0  0  0
 10 11  1  0  0  0  0
 10 29  1  0  0  0  0
 11 12  2  0  0  0  0
 11 13  1  0  0  0  0
 13 14  1  0  0  0  0
 13 17  2  0  0  0  0
 14 15  2  0  0  0  0
 15 16  1  0  0  0  0
 15 30  1  0  0  0  0
 16 17  1  0  0  0  0
 17 18  1  0  0  0  0
 18 19  1  0  0  0  0
 18 22  1  0  0  0  0
 18 31  1  6  0  0  0
 19 20  1  0  0  0  0
 19 32  1  0  0  0  0
 19 33  1  0  0  0  0
 20 21  1  0  0  0  0
 20 34  1  0  0  0  0
 20 35  1  0  0  0  0
 21 22  1  0  0  0  0
 21 36  1  0  0  0  0
 21 37  1  0  0  0  0
 23 38  1  0  0  0  0
M  CHG  1   1  -1
M  END
$$$$
