HTS1710-00384852-01
 OpenBabel03232612353D

 49 51  0  0  1  0  0  0  0  0999 V2000
    6.9011  -16.6958  -26.3002 C   0  0  0  0  0  0  0  0  0  0  0  0
    6.7143  -15.3000  -26.5927 O   0  0  0  0  0  0  0  0  0  0  0  0
    5.8442  -14.8492  -27.5670 C   0  0  0  0  0  0  0  0  0  0  0  0
    6.0007  -13.5384  -28.0418 C   0  0  0  0  0  0  0  0  0  0  0  0
    5.1353  -13.0298  -29.0225 C   0  0  0  0  0  0  0  0  0  0  0  0
    4.0993  -13.8279  -29.5455 C   0  0  0  0  0  0  0  0  0  0  0  0
    3.9373  -15.1404  -29.0593 C   0  0  0  0  0  0  0  0  0  0  0  0
    4.8052  -15.6528  -28.0823 C   0  0  0  0  0  0  0  0  0  0  0  0
    3.2163  -13.2912  -30.5302 N   0  0  0  0  0  0  0  0  0  0  0  0
    3.0508  -13.9551  -31.8250 C   0  0  0  0  0  0  0  0  0  0  0  0
    2.5447  -12.8638  -32.8009 C   0  0  1  0  0  0  0  0  0  0  0  0
    1.8886  -11.8248  -31.8533 C   0  0  0  0  0  0  0  0  0  0  0  0
    2.5838  -12.0583  -30.5178 C   0  0  0  0  0  0  0  0  0  0  0  0
    2.5858  -11.2699  -29.5890 O   0  0  0  0  0  0  0  0  0  0  0  0
    3.7315  -12.2903  -33.6167 C   0  0  0  0  0  0  0  0  0  0  0  0
    4.8560  -12.7600  -33.5405 O   0  0  0  0  0  0  0  0  0  0  0  0
    3.4165  -11.3022  -34.5514 N   0  0  0  0  0  0  0  0  0  0  0  0
    2.0312  -10.8934  -34.8631 C   0  0  0  0  0  0  0  0  0  0  0  0
    4.4761  -10.6929  -35.3780 C   0  0  0  0  0  0  0  0  0  0  0  0
    5.0676   -9.4833  -34.6991 C   0  0  0  0  0  0  0  0  0  0  0  0
    5.0036   -9.2466  -33.3516 C   0  0  0  0  0  0  0  0  0  0  0  0
    5.6928   -8.0189  -33.1640 C   0  0  0  0  0  0  0  0  0  0  0  0
    5.8882   -7.3133  -31.8748 C   0  0  0  0  0  0  0  0  0  0  0  0
    5.9366   -7.9991  -30.8689 O   0  5  0  0  0  0  0  0  0  0  0  0
    5.9873   -6.0981  -31.8851 O   0  0  0  0  0  0  0  0  0  0  0  0
    6.1020   -7.6733  -34.4369 C   0  0  0  0  0  0  0  0  0  0  0  0
    6.8826   -6.4370  -34.8031 C   0  0  0  0  0  0  0  0  0  0  0  0
    5.7439   -8.5484  -35.4312 O   0  0  0  0  0  0  0  0  0  0  0  0
    7.6186  -16.8024  -25.5137 H   0  0  0  0  0  0  0  0  0  0  0  0
    7.2540  -17.1996  -27.1757 H   0  0  0  0  0  0  0  0  0  0  0  0
    5.9695  -17.1237  -25.9935 H   0  0  0  0  0  0  0  0  0  0  0  0
    6.7571  -12.9444  -27.6676 H   0  0  0  0  0  0  0  0  0  0  0  0
    5.2588  -12.0635  -29.3630 H   0  0  0  0  0  0  0  0  0  0  0  0
    3.1735  -15.7304  -29.4249 H   0  0  0  0  0  0  0  0  0  0  0  0
    4.6831  -16.6188  -27.7404 H   0  0  0  0  0  0  0  0  0  0  0  0
    2.3350  -14.7467  -31.7484 H   0  0  0  0  0  0  0  0  0  0  0  0
    3.9682  -14.3895  -32.1634 H   0  0  0  0  0  0  0  0  0  0  0  0
    1.8523  -13.2101  -33.5395 H   0  0  0  0  0  0  0  0  0  0  0  0
    0.8359  -11.9968  -31.7698 H   0  0  0  0  0  0  0  0  0  0  0  0
    1.9958  -10.8198  -32.2045 H   0  0  0  0  0  0  0  0  0  0  0  0
    1.3542  -11.3958  -34.2043 H   0  0  0  0  0  0  0  0  0  0  0  0
    1.8020  -11.1528  -35.8756 H   0  0  0  0  0  0  0  0  0  0  0  0
    1.9341   -9.8355  -34.7353 H   0  0  0  0  0  0  0  0  0  0  0  0
    4.0591  -10.3969  -36.3179 H   0  0  0  0  0  0  0  0  0  0  0  0
    5.2524  -11.4152  -35.5213 H   0  0  0  0  0  0  0  0  0  0  0  0
    4.5533   -9.8320  -32.6307 H   0  0  0  0  0  0  0  0  0  0  0  0
    7.0802   -5.8655  -33.9203 H   0  0  0  0  0  0  0  0  0  0  0  0
    6.3135   -5.8465  -35.4903 H   0  0  0  0  0  0  0  0  0  0  0  0
    7.8081   -6.7215  -35.2586 H   0  0  0  0  0  0  0  0  0  0  0  0
  1  2  1  0  0  0  0
  1 29  1  0  0  0  0
  1 30  1  0  0  0  0
  1 31  1  0  0  0  0
  2  3  1  0  0  0  0
  3  4  2  0  0  0  0
  3  8  1  0  0  0  0
  4  5  1  0  0  0  0
  4 32  1  0  0  0  0
  5  6  2  0  0  0  0
  5 33  1  0  0  0  0
  6  7  1  0  0  0  0
  6  9  1  0  0  0  0
  7  8  2  0  0  0  0
  7 34  1  0  0  0  0
  8 35  1  0  0  0  0
  9 10  1  0  0  0  0
  9 13  1  0  0  0  0
 10 11  1  0  0  0  0
 10 36  1  0  0  0  0
 10 37  1  0  0  0  0
 11 12  1  0  0  0  0
 11 15  1  0  0  0  0
 11 38  1  6  0  0  0
 12 13  1  0  0  0  0
 12 39  1  0  0  0  0
 12 40  1  0  0  0  0
 13 14  2  0  0  0  0
 15 16  2  0  0  0  0
 15 17  1  0  0  0  0
 17 18  1  0  0  0  0
 17 19  1  0  0  0  0
 18 41  1  0  0  0  0
 18 42  1  0  0  0  0
 18 43  1  0  0  0  0
 19 20  1  0  0  0  0
 19 44  1  0  0  0  0
 19 45  1  0  0  0  0
 20 21  2  0  0  0  0
 20 28  1  0  0  0  0
 21 22  1  0  0  0  0
 21 46  1  0  0  0  0
 22 23  1  0  0  0  0
 22 26  2  0  0  0  0
 23 24  1  0  0  0  0
 23 25  2  0  0  0  0
 26 27  1  0  0  0  0
 26 28  1  0  0  0  0
 27 47  1  0  0  0  0
 27 48  1  0  0  0  0
 27 49  1  0  0  0  0
M  CHG  1  24  -1
M  END
$$$$
