##########                                Name: HTS1710-00277863-01
##########                    Molecular_Weight:             291.284
##########                DOCK_Rotatable_Bonds:                   5
##########                       Formal_Charge:                  -3
##########                     HBond_Acceptors:                   7
##########                        HBond_Donors:                   1
##########                         Heavy_Atoms:                  21
##########                          Grid_Score:          -79.644135
##########                     Grid_vdw_energy:          -29.496674
##########                      Grid_es_energy:          -50.147461
##########           Internal_energy_repulsive:           11.876166

@<TRIPOS>MOLECULE
HTS1710-00277863-01
 36 37 1 0 0
SMALL
USER_CHARGES


@<TRIPOS>ATOM
      1 C           3.5894  -11.4036  -34.2883 C.3     1  UNL1       -0.0435
      2 C           3.8879  -10.2624  -33.2898 C.3     1  UNL1        0.0345
      3 N           4.3327  -10.8199  -32.0037 N.am    1  UNL1       -0.3059
      4 C           3.4949  -11.4933  -31.1251 C.2     1  UNL1        0.2436
      5 O           2.3197  -11.6393  -31.4146 O.2     1  UNL1       -0.2702
      6 C           4.0456  -12.0167  -29.8524 C.2     1  UNL1        0.0250
      7 C           3.6653  -11.7863  -28.5439 C.2     1  UNL1       -0.1088
      8 C           2.5474  -10.8796  -28.0917 C.3     1  UNL1       -0.0523
      9 O           4.4102  -12.4345  -27.5913 O.co2   1  UNL1       -0.7855
     10 C           5.2971  -13.1032  -28.3884 C.2     1  UNL1       -0.1204
     11 C           6.3547  -13.9827  -27.7794 C.3     1  UNL1       -0.0530
     12 C           5.1473  -12.9047  -29.7348 C.2     1  UNL1       -0.0615
     13 C           4.8477   -9.2314  -33.8601 C.2     1  UNL1       -0.0755
     14 C           5.5436   -8.2365  -33.2203 C.2     1  UNL1        0.0094
     15 C           5.5963   -7.8716  -31.7692 C.2     1  UNL1        0.0726
     16 O           5.4914   -6.7009  -31.4549 O.co2   1  UNL1       -0.5446
     17 O           5.7392   -8.7701  -30.9596 O.co2   1  UNL1       -0.5446
     18 C           6.2358   -7.6103  -34.3129 C.2     1  UNL1        0.0367
     19 C           7.1663   -6.4328  -34.1475 C.3     1  UNL1       -0.0225
     20 N           5.9714   -8.1917  -35.4794 N.2     1  UNL1       -0.3078
     21 O           5.0631   -9.2574  -35.1990 O.co2   1  UNL1       -0.7130
     22 H           2.9117  -12.1005  -33.8413 H       1  UNL1        0.0250
     23 H           4.5007  -11.9042  -34.5407 H       1  UNL1        0.0250
     24 H           3.1490  -10.9962  -35.1743 H       1  UNL1        0.0250
     25 H           2.9804   -9.7246  -33.1100 H       1  UNL1        0.0535
     26 H           5.2779  -10.7093  -31.7517 H       1  UNL1        0.1496
     27 H           2.0665  -10.4527  -28.9470 H       1  UNL1        0.0266
     28 H           2.9473  -10.0979  -27.4802 H       1  UNL1        0.0266
     29 H           1.8355  -11.4451  -27.5275 H       1  UNL1        0.0266
     30 H           6.2595  -13.9693  -26.7138 H       1  UNL1        0.0266
     31 H           7.3227  -13.6199  -28.0557 H       1  UNL1        0.0266
     32 H           6.2341  -14.9844  -28.1358 H       1  UNL1        0.0266
     33 H           5.7116  -13.3114  -30.4972 H       1  UNL1        0.0616
     34 H           7.2084   -6.1537  -33.1153 H       1  UNL1        0.0292
     35 H           6.8044   -5.6084  -34.7255 H       1  UNL1        0.0292
     36 H           8.1455   -6.7020  -34.4844 H       1  UNL1        0.0292
@<TRIPOS>BOND
     1     1     2    1
     2     2     3    1
     3     3     4   am
     4     4     5    2
     5     4     6    1
     6     6     7    2
     7     7     8    1
     8     7     9    1
     9     9    10    1
    10    10    11    1
    11    10    12    2
    12     6    12    1
    13     2    13    1
    14    13    14    2
    15    14    15    1
    16    15    16   ar
    17    15    17   ar
    18    14    18    1
    19    18    19    1
    20    18    20    2
    21    20    21    1
    22    13    21    1
    23     1    22    1
    24     1    23    1
    25     1    24    1
    26     2    25    1
    27     3    26    1
    28     8    27    1
    29     8    28    1
    30     8    29    1
    31    11    30    1
    32    11    31    1
    33    11    32    1
    34    12    33    1
    35    19    34    1
    36    19    35    1
    37    19    36    1
@<TRIPOS>SUBSTRUCTURE
     1 UNL1        1 TEMP              0 ****  ****    0 ROOT


