##########                                Name: HTS1710-05321516-01
##########                    Molecular_Weight:              288.28
##########                DOCK_Rotatable_Bonds:                   7
##########                       Formal_Charge:                  -2
##########                     HBond_Acceptors:                   6
##########                        HBond_Donors:                   0
##########                         Heavy_Atoms:                  21
##########                          Grid_Score:          -74.818428
##########                     Grid_vdw_energy:          -36.527702
##########                      Grid_es_energy:          -38.290726
##########           Internal_energy_repulsive:           18.001150

@<TRIPOS>MOLECULE
HTS1710-05321516-01
 35 36 1 0 0
SMALL
USER_CHARGES


@<TRIPOS>ATOM
      1 C           3.3499   -9.4454  -37.5974 C.3     1  UNL1        0.0038
      2 N           3.3822  -10.2698  -36.3719 N.am    1  UNL1       -0.2978
      3 C           4.7386  -10.5428  -35.8465 C.3     1  UNL1        0.0268
      4 C           5.2094   -9.4643  -34.9069 C.2     1  UNL1       -0.0998
      5 C           5.1094   -9.5325  -33.5426 C.2     1  UNL1       -0.0630
      6 C           5.6717   -8.3162  -33.0742 C.2     1  UNL1       -0.0144
      7 C           5.7973   -7.9043  -31.6553 C.2     1  UNL1        0.0708
      8 O           5.4356   -8.6816  -30.7891 O.co2   1  UNL1       -0.5447
      9 O           6.2623   -6.7990  -31.4392 O.co2   1  UNL1       -0.5447
     10 C           6.0478   -7.6600  -34.2296 C.2     1  UNL1       -0.1120
     11 C           6.7101   -6.3074  -34.2959 C.3     1  UNL1       -0.0524
     12 O           5.7844   -8.3254  -35.3999 O.co2   1  UNL1       -0.7845
     13 C           2.2383  -10.7439  -35.7102 C.2     1  UNL1        0.2396
     14 O           1.1152  -10.5248  -36.1333 O.2     1  UNL1       -0.2706
     15 C           2.4336  -11.5374  -34.4516 C.2     1  UNL1        0.0038
     16 C           1.4732  -12.2663  -33.8317 C.2     1  UNL1       -0.0145
     17 C           1.6301  -13.0473  -32.6096 C.ar    1  UNL1        0.1278
     18 C           2.7989  -13.3818  -31.9743 C.ar    1  UNL1       -0.0165
     19 C           2.4106  -14.1412  -30.8465 C.ar    1  UNL1       -0.0233
     20 C           1.0448  -14.1912  -30.9080 C.ar    1  UNL1        0.0925
     21 O           0.5076  -13.5304  -31.9804 O.2     1  UNL1       -0.4635
     22 H           4.3505   -9.2168  -37.8999 H       1  UNL1        0.0429
     23 H           2.8198   -8.5367  -37.4022 H       1  UNL1        0.0429
     24 H           2.8561   -9.9858  -38.3779 H       1  UNL1        0.0429
     25 H           5.4207  -10.6063  -36.6685 H       1  UNL1        0.0502
     26 H           4.7018  -11.4625  -35.3009 H       1  UNL1        0.0502
     27 H           4.7122  -10.3002  -32.9786 H       1  UNL1        0.0615
     28 H           6.8441   -5.9269  -33.3048 H       1  UNL1        0.0266
     29 H           6.0936   -5.6354  -34.8556 H       1  UNL1        0.0266
     30 H           7.6627   -6.3998  -34.7743 H       1  UNL1        0.0266
     31 H           3.3729  -11.5275  -34.0242 H       1  UNL1        0.0670
     32 H           0.5378  -12.2689  -34.2679 H       1  UNL1        0.0656
     33 H           3.7588  -13.1320  -32.2593 H       1  UNL1        0.0655
     34 H           3.0237  -14.5651  -30.1327 H       1  UNL1        0.0649
     35 H           0.4693  -14.6839  -30.2071 H       1  UNL1        0.1029
@<TRIPOS>BOND
     1     1     2    1
     2     2     3    1
     3     3     4    1
     4     4     5    2
     5     5     6    1
     6     6     7    1
     7     7     8   ar
     8     7     9   ar
     9     6    10    2
    10    10    11    1
    11    10    12    1
    12     4    12    1
    13     2    13   am
    14    13    14    2
    15    13    15    1
    16    15    16    2
    17    16    17    1
    18    17    18   ar
    19    18    19   ar
    20    19    20   ar
    21    20    21   ar
    22    17    21   ar
    23     1    22    1
    24     1    23    1
    25     1    24    1
    26     3    25    1
    27     3    26    1
    28     5    27    1
    29    11    28    1
    30    11    29    1
    31    11    30    1
    32    15    31    1
    33    16    32    1
    34    18    33    1
    35    19    34    1
    36    20    35    1
@<TRIPOS>SUBSTRUCTURE
     1 UNL1        1 TEMP              0 ****  ****    0 ROOT


