##########                                Name: HTS1710-00309945-01
##########                    Molecular_Weight:             308.271
##########                DOCK_Rotatable_Bonds:                   7
##########                       Formal_Charge:                  -2
##########                     HBond_Acceptors:                   9
##########                        HBond_Donors:                   1
##########                         Heavy_Atoms:                  22
##########                          Grid_Score:          -76.942047
##########                     Grid_vdw_energy:          -38.201618
##########                      Grid_es_energy:          -38.740429
##########           Internal_energy_repulsive:            8.041591

@<TRIPOS>MOLECULE
HTS1710-00309945-01
 36 37 1 0 0
SMALL
USER_CHARGES


@<TRIPOS>ATOM
      1 C           5.1408  -18.3254  -25.0264 C.3     1  UNL1        0.0365
      2 O           6.3133  -17.4905  -25.0429 O.3     1  UNL1       -0.3814
      3 C           6.8716  -17.2061  -26.3450 C.3     1  UNL1        0.0628
      4 C           6.7487  -15.6937  -26.6737 C.3     1  UNL1        0.0351
      5 N           5.5480  -15.4405  -27.4751 N.am    1  UNL1       -0.3116
      6 C           5.1957  -14.1691  -27.9010 C.2     1  UNL1        0.2330
      7 O           5.9111  -13.2128  -27.6504 O.2     1  UNL1       -0.2739
      8 C           3.9205  -14.0289  -28.7316 C.3     1  UNL1        0.1037
      9 N           3.6985  -12.5932  -29.0075 N.ar    1  UNL1       -0.2899
     10 C           3.1473  -11.8105  -27.9848 C.ar    1  UNL1        0.0983
     11 N           2.9966  -10.4972  -28.0767 N.ar    1  UNL1       -0.2514
     12 C           3.4159   -9.8823  -29.2285 C.ar    1  UNL1        0.0167
     13 O           3.3258   -8.5334  -29.4122 O.co2   1  UNL1       -0.7695
     14 C           3.8758   -8.4051  -30.6586 C.2     1  UNL1       -0.1102
     15 C           3.9785   -7.0194  -31.2477 C.3     1  UNL1       -0.0524
     16 C           4.2969   -9.5790  -31.2579 C.2     1  UNL1       -0.0003
     17 C           4.9486   -9.7381  -32.5937 C.2     1  UNL1        0.0716
     18 O           5.4586   -8.7621  -33.1102 O.co2   1  UNL1       -0.5446
     19 O           4.9376  -10.8409  -33.1100 O.co2   1  UNL1       -0.5446
     20 C           3.9653  -10.5726  -30.2750 C.ar    1  UNL1        0.0592
     21 C           4.1245  -12.0482  -30.2300 C.ar    1  UNL1        0.2615
     22 O           4.5816  -12.7283  -31.1308 O.2     1  UNL1       -0.2670
     23 H           4.8182  -18.4672  -24.0161 H       1  UNL1        0.0523
     24 H           5.3724  -19.2742  -25.4634 H       1  UNL1        0.0523
     25 H           4.3603  -17.8554  -25.5873 H       1  UNL1        0.0523
     26 H           6.3438  -17.7707  -27.0849 H       1  UNL1        0.0575
     27 H           7.9071  -17.4757  -26.3428 H       1  UNL1        0.0575
     28 H           7.6118  -15.3812  -27.2235 H       1  UNL1        0.0484
     29 H           6.6769  -15.1445  -25.7582 H       1  UNL1        0.0484
     30 H           4.9713  -16.2000  -27.7195 H       1  UNL1        0.1488
     31 H           3.0890  -14.4249  -28.1868 H       1  UNL1        0.0589
     32 H           4.0188  -14.5688  -29.6502 H       1  UNL1        0.0589
     33 H           2.8435  -12.2798  -27.1173 H       1  UNL1        0.1029
     34 H           3.5728   -6.3081  -30.5589 H       1  UNL1        0.0266
     35 H           3.4296   -6.9804  -32.1653 H       1  UNL1        0.0266
     36 H           5.0058   -6.7872  -31.4364 H       1  UNL1        0.0266
@<TRIPOS>BOND
     1     1     2    1
     2     2     3    1
     3     3     4    1
     4     4     5    1
     5     5     6   am
     6     6     7    2
     7     6     8    1
     8     8     9    1
     9     9    10   ar
    10    10    11   ar
    11    11    12   ar
    12    12    13    1
    13    13    14    1
    14    14    15    1
    15    14    16    2
    16    16    17    1
    17    17    18   ar
    18    17    19   ar
    19    16    20    1
    20    12    20   ar
    21    20    21   ar
    22     9    21   ar
    23    21    22    2
    24     1    23    1
    25     1    24    1
    26     1    25    1
    27     3    26    1
    28     3    27    1
    29     4    28    1
    30     4    29    1
    31     5    30    1
    32     8    31    1
    33     8    32    1
    34    10    33    1
    35    15    34    1
    36    15    35    1
    37    15    36    1
@<TRIPOS>SUBSTRUCTURE
     1 UNL1        1 TEMP              0 ****  ****    0 ROOT


