HTS1710-00366470-01
 OpenBabel03232612353D

 38 39  0  0  0  0  0  0  0  0999 V2000
    4.7123  -11.7578  -28.4055 O   0  5  0  0  0  0  0  0  0  0  0  0
    3.5335  -11.8511  -28.1088 C   0  0  0  0  0  0  0  0  0  0  0  0
    2.7823  -10.9153  -27.8949 O   0  0  0  0  0  0  0  0  0  0  0  0
    2.9497  -13.2651  -27.9936 C   0  0  0  0  0  0  0  0  0  0  0  0
    3.3923  -14.1890  -29.1537 C   0  0  0  0  0  0  0  0  0  0  0  0
    2.9668  -13.6647  -30.5215 C   0  0  0  0  0  0  0  0  0  0  0  0
    3.9316  -13.2429  -31.4546 C   0  0  0  0  0  0  0  0  0  0  0  0
    3.5391  -12.7490  -32.7084 C   0  0  0  0  0  0  0  0  0  0  0  0
    2.1753  -12.6748  -33.0431 C   0  0  0  0  0  0  0  0  0  0  0  0
    1.2073  -13.0982  -32.1136 C   0  0  0  0  0  0  0  0  0  0  0  0
    1.6026  -13.5920  -30.8605 C   0  0  0  0  0  0  0  0  0  0  0  0
    1.6747  -12.0109  -34.6411 S   0  0  0  0  0  0  0  0  0  0  0  0
    0.5249  -12.7731  -35.1390 O   0  0  0  0  0  0  0  0  0  0  0  0
    2.8765  -11.7251  -35.4313 O   0  0  0  0  0  0  0  0  0  0  0  0
    1.0566  -10.4848  -34.2190 N   0  0  0  0  0  0  0  0  0  0  0  0
    1.4488   -9.6032  -33.2322 C   0  0  0  0  0  0  0  0  0  0  0  0
    0.4831   -8.7596  -32.6581 C   0  0  0  0  0  0  0  0  0  0  0  0
    0.8476   -7.8505  -31.6550 C   0  0  0  0  0  0  0  0  0  0  0  0
    2.1789   -7.7757  -31.2134 C   0  0  0  0  0  0  0  0  0  0  0  0
    2.5058   -6.8670  -30.2476 O   0  0  0  0  0  0  0  0  0  0  0  0
    3.1620   -8.6211  -31.7799 C   0  0  0  0  0  0  0  0  0  0  0  0
    2.7852   -9.5288  -32.7911 C   0  0  0  0  0  0  0  0  0  0  0  0
    4.6041   -8.5673  -31.3409 C   0  0  0  0  0  0  0  0  0  0  0  0
    5.1617   -9.6230  -31.0949 O   0  5  0  0  0  0  0  0  0  0  0  0
    5.1192   -7.4648  -31.2705 O   0  0  0  0  0  0  0  0  0  0  0  0
    1.8819  -13.1963  -27.9989 H   0  0  0  0  0  0  0  0  0  0  0  0
    3.3138  -13.6923  -27.0827 H   0  0  0  0  0  0  0  0  0  0  0  0
    2.9563  -15.1550  -29.0070 H   0  0  0  0  0  0  0  0  0  0  0  0
    4.4615  -14.2307  -29.1428 H   0  0  0  0  0  0  0  0  0  0  0  0
    4.9341  -13.2969  -31.2156 H   0  0  0  0  0  0  0  0  0  0  0  0
    4.2532  -12.4396  -33.3863 H   0  0  0  0  0  0  0  0  0  0  0  0
    0.2050  -13.0457  -32.3537 H   0  0  0  0  0  0  0  0  0  0  0  0
    0.8886  -13.9035  -30.1836 H   0  0  0  0  0  0  0  0  0  0  0  0
    0.2968  -10.1810  -34.7664 H   0  0  0  0  0  0  0  0  0  0  0  0
   -0.4975   -8.8092  -32.9757 H   0  0  0  0  0  0  0  0  0  0  0  0
    0.1336   -7.2326  -31.2386 H   0  0  0  0  0  0  0  0  0  0  0  0
    1.8521   -6.2872  -29.9093 H   0  0  0  0  0  0  0  0  0  0  0  0
    3.4966  -10.1459  -33.2132 H   0  0  0  0  0  0  0  0  0  0  0  0
  1  2  1  0  0  0  0
  2  3  2  0  0  0  0
  2  4  1  0  0  0  0
  4  5  1  0  0  0  0
  4 26  1  0  0  0  0
  4 27  1  0  0  0  0
  5  6  1  0  0  0  0
  5 28  1  0  0  0  0
  5 29  1  0  0  0  0
  6  7  2  0  0  0  0
  6 11  1  0  0  0  0
  7  8  1  0  0  0  0
  7 30  1  0  0  0  0
  8  9  2  0  0  0  0
  8 31  1  0  0  0  0
  9 10  1  0  0  0  0
  9 12  1  0  0  0  0
 10 11  2  0  0  0  0
 10 32  1  0  0  0  0
 11 33  1  0  0  0  0
 12 13  2  0  0  0  0
 12 14  2  0  0  0  0
 12 15  1  0  0  0  0
 15 16  1  0  0  0  0
 15 34  1  0  0  0  0
 16 17  2  0  0  0  0
 16 22  1  0  0  0  0
 17 18  1  0  0  0  0
 17 35  1  0  0  0  0
 18 19  2  0  0  0  0
 18 36  1  0  0  0  0
 19 20  1  0  0  0  0
 19 21  1  0  0  0  0
 20 37  1  0  0  0  0
 21 22  2  0  0  0  0
 21 23  1  0  0  0  0
 22 38  1  0  0  0  0
 23 24  1  0  0  0  0
 23 25  2  0  0  0  0
M  CHG  2   1  -1  24  -1
M  END
$$$$
