##########                                Name: HTS1710-01161280-01
##########                    Molecular_Weight:             353.376
##########                DOCK_Rotatable_Bonds:                   7
##########                       Formal_Charge:                  -2
##########                     HBond_Acceptors:                   9
##########                        HBond_Donors:                   0
##########                         Heavy_Atoms:                  23
##########                          Grid_Score:          -76.059189
##########                     Grid_vdw_energy:          -34.592575
##########                      Grid_es_energy:          -41.466614
##########           Internal_energy_repulsive:           12.061805

@<TRIPOS>MOLECULE
HTS1710-01161280-01
 34 35 1 0 0
SMALL
USER_CHARGES


@<TRIPOS>ATOM
      1 N           2.6716  -10.3550  -31.7844 N.am    1  UNL1       -0.2466
      2 C           1.9434  -10.7556  -32.8969 C.2     1  UNL1        0.1211
      3 C           2.8876  -11.3680  -30.8469 C.2     1  UNL1        0.2590
      4 C           2.3092  -12.6450  -31.3434 C.2     1  UNL1        0.0801
      5 S           1.4274  -12.4619  -32.8448 S.3     1  UNL1       -0.0609
      6 C           2.3330  -13.8850  -30.7358 C.2     1  UNL1       -0.0005
      7 C           3.1947   -8.9698  -31.6236 C.3     1  UNL1        0.0718
      8 C           2.9991  -14.2763  -29.4856 C.ar    1  UNL1        0.1293
      9 O           4.3052  -13.8643  -29.3489 O.2     1  UNL1       -0.4605
     10 C           4.7140   -8.9922  -31.3330 C.2     1  UNL1        0.0626
     11 S           1.5504   -9.7829  -34.2049 S.2     1  UNL1       -0.0272
     12 C           2.5182  -14.9140  -28.3605 C.ar    1  UNL1       -0.0162
     13 C           4.6174  -14.3313  -28.1039 C.ar    1  UNL1        0.1027
     14 C           2.3526   -8.1462  -30.6032 C.3     1  UNL1       -0.0235
     15 C           3.6001  -14.9632  -27.4486 C.ar    1  UNL1       -0.0204
     16 O           3.4069  -11.1868  -29.7613 O.2     1  UNL1       -0.2690
     17 C           2.6954   -5.7108  -31.4626 C.2     1  UNL1        0.0418
     18 O           5.1022   -8.6110  -30.2417 O.co2   1  UNL1       -0.5479
     19 O           3.8425   -5.8268  -31.0641 O.co2   1  UNL1       -0.5498
     20 C           1.7151   -6.8744  -31.2300 C.3     1  UNL1       -0.0112
     21 O           5.4362   -9.3886  -32.2319 O.co2   1  UNL1       -0.5479
     22 O           2.2492   -4.7338  -32.0373 O.co2   1  UNL1       -0.5498
     23 C           5.9899  -14.1063  -27.5319 C.3     1  UNL1       -0.0063
     24 H           1.8161  -14.6338  -31.2228 H       1  UNL1        0.0667
     25 H           3.0807   -8.4456  -32.5494 H       1  UNL1        0.0566
     26 H           1.5646  -15.2803  -28.2137 H       1  UNL1        0.0655
     27 H           2.9901   -7.8467  -29.7977 H       1  UNL1        0.0290
     28 H           1.5533   -8.7732  -30.2672 H       1  UNL1        0.0290
     29 H           3.6160  -15.3810  -26.5051 H       1  UNL1        0.0652
     30 H           1.2898   -7.1454  -32.1736 H       1  UNL1        0.0325
     31 H           0.9899   -6.5222  -30.5265 H       1  UNL1        0.0325
     32 H           6.5944  -13.5899  -28.2480 H       1  UNL1        0.0308
     33 H           6.4387  -15.0495  -27.3001 H       1  UNL1        0.0308
     34 H           5.9130  -13.5193  -26.6405 H       1  UNL1        0.0308
@<TRIPOS>BOND
     1     1     2    1
     2     1     3   am
     3     3     4    1
     4     2     5    1
     5     4     6    2
     6     1     7    1
     7     6     8    1
     8     8     9   ar
     9     7    10    1
    10     2    11    2
    11     8    12   ar
    12     9    13   ar
    13     7    14    1
    14    12    15   ar
    15     3    16    2
    16    17    20    1
    17    10    18   ar
    18    17    19   ar
    19    14    20    1
    20    10    21   ar
    21    17    22   ar
    22    13    23    1
    23     4     5    1
    24    13    15   ar
    25     6    24    1
    26     7    25    1
    27    12    26    1
    28    14    27    1
    29    14    28    1
    30    15    29    1
    31    20    30    1
    32    20    31    1
    33    23    32    1
    34    23    33    1
    35    23    34    1
@<TRIPOS>SUBSTRUCTURE
     1 UNL1        1 TEMP              0 ****  ****    0 ROOT


