##########                                Name: HTS1710-05328678-01
##########                    Molecular_Weight:             332.333
##########                DOCK_Rotatable_Bonds:                   9
##########                       Formal_Charge:                  -2
##########                     HBond_Acceptors:                   7
##########                        HBond_Donors:                   1
##########                         Heavy_Atoms:                  24
##########                          Grid_Score:          -78.760941
##########                     Grid_vdw_energy:          -37.535473
##########                      Grid_es_energy:          -41.225471
##########           Internal_energy_repulsive:           13.852092

@<TRIPOS>MOLECULE
HTS1710-05328678-01
 42 43 1 0 0
SMALL
USER_CHARGES


@<TRIPOS>ATOM
      1 C          -0.8469   -7.4511  -32.0237 C.3     1  UNL1        0.0790
      2 O          -0.0738   -8.2441  -32.9411 O.3     1  UNL1       -0.4915
      3 C           0.0872   -7.9169  -34.2753 C.ar    1  UNL1        0.1615
      4 C          -0.5006   -6.7581  -34.8308 C.ar    1  UNL1       -0.0163
      5 C          -0.3567   -6.4788  -36.1988 C.ar    1  UNL1       -0.0581
      6 C           0.3551   -7.3583  -37.0274 C.ar    1  UNL1       -0.0581
      7 C           0.9429   -8.5103  -36.4827 C.ar    1  UNL1       -0.0163
      8 C           0.8406   -8.7756  -35.1054 C.ar    1  UNL1        0.1624
      9 O           1.4451   -9.9109  -34.5994 O.3     1  UNL1       -0.4839
     10 C           2.0599  -10.9392  -35.4259 C.3     1  UNL1        0.1130
     11 C           0.9807  -11.9055  -35.9759 C.3     1  UNL1       -0.0263
     12 C           3.2160  -11.6636  -34.6743 C.3     1  UNL1        0.0487
     13 N           3.7909  -10.8172  -33.6170 N.am    1  UNL1       -0.3079
     14 C           4.6374   -9.7503  -33.8840 C.2     1  UNL1        0.2433
     15 O           4.9061   -9.4756  -35.0405 O.2     1  UNL1       -0.2702
     16 C           5.1451   -8.9808  -32.7266 C.2     1  UNL1        0.0253
     17 C           6.1087   -7.9394  -32.7629 C.2     1  UNL1       -0.0644
     18 C           6.2893   -7.5592  -31.4578 C.2     1  UNL1       -0.1333
     19 O           5.5299   -8.2568  -30.5560 O.co2   1  UNL1       -0.7872
     20 C           4.8493   -9.1082  -31.3885 C.2     1  UNL1       -0.1002
     21 C           3.8969  -10.1187  -30.7877 C.3     1  UNL1       -0.0004
     22 C           3.8144  -10.1139  -29.2530 C.2     1  UNL1        0.0449
     23 O           4.4470  -10.9581  -28.6425 O.co2   1  UNL1       -0.5495
     24 O           3.1127   -9.2553  -28.7467 O.co2   1  UNL1       -0.5495
     25 H          -0.8242   -7.9035  -31.0544 H       1  UNL1        0.0660
     26 H          -1.8587   -7.3937  -32.3669 H       1  UNL1        0.0660
     27 H          -0.4331   -6.4659  -31.9673 H       1  UNL1        0.0660
     28 H          -1.0377   -6.1149  -34.2285 H       1  UNL1        0.0655
     29 H          -0.7759   -5.6235  -36.5960 H       1  UNL1        0.0619
     30 H           0.4465   -7.1586  -38.0358 H       1  UNL1        0.0619
     31 H           1.4526   -9.1657  -37.0956 H       1  UNL1        0.0655
     32 H           2.5188  -10.4737  -36.2731 H       1  UNL1        0.0746
     33 H           0.4925  -12.3965  -35.1602 H       1  UNL1        0.0266
     34 H           1.4437  -12.6358  -36.6062 H       1  UNL1        0.0266
     35 H           0.2607  -11.3515  -36.5412 H       1  UNL1        0.0266
     36 H           3.9844  -11.9116  -35.3763 H       1  UNL1        0.0498
     37 H           2.8165  -12.5445  -34.2167 H       1  UNL1        0.0498
     38 H           3.5653  -11.0163  -32.6796 H       1  UNL1        0.1491
     39 H           6.5756   -7.5500  -33.5968 H       1  UNL1        0.0613
     40 H           6.9423   -6.8105  -31.1785 H       1  UNL1        0.0455
     41 H           4.2102  -11.0934  -31.0986 H       1  UNL1        0.0362
     42 H           2.9219   -9.8495  -31.1367 H       1  UNL1        0.0362
@<TRIPOS>BOND
     1     1     2    1
     2     2     3    1
     3     3     4   ar
     4     4     5   ar
     5     5     6   ar
     6     6     7   ar
     7     7     8   ar
     8     3     8   ar
     9     8     9    1
    10     9    10    1
    11    10    11    1
    12    10    12    1
    13    12    13    1
    14    13    14   am
    15    14    15    2
    16    14    16    1
    17    16    17    1
    18    17    18    2
    19    18    19    1
    20    19    20    1
    21    16    20    2
    22    20    21    1
    23    21    22    1
    24    22    23   ar
    25    22    24   ar
    26     1    25    1
    27     1    26    1
    28     1    27    1
    29     4    28    1
    30     5    29    1
    31     6    30    1
    32     7    31    1
    33    10    32    1
    34    11    33    1
    35    11    34    1
    36    11    35    1
    37    12    36    1
    38    12    37    1
    39    13    38    1
    40    17    39    1
    41    18    40    1
    42    21    41    1
    43    21    42    1
@<TRIPOS>SUBSTRUCTURE
     1 UNL1        1 TEMP              0 ****  ****    0 ROOT


