##########                                Name: HTS1710-00538363-01
##########                    Molecular_Weight:             346.293
##########                DOCK_Rotatable_Bonds:                   6
##########                       Formal_Charge:                  -2
##########                     HBond_Acceptors:                   8
##########                        HBond_Donors:                   0
##########                         Heavy_Atoms:                  25
##########                          Grid_Score:          -75.291122
##########                     Grid_vdw_energy:          -39.827675
##########                      Grid_es_energy:          -35.463451
##########           Internal_energy_repulsive:            7.746868

@<TRIPOS>MOLECULE
HTS1710-00538363-01
 39 41 1 0 0
SMALL
USER_CHARGES


@<TRIPOS>ATOM
      1 C           2.7429  -11.6771  -32.1033 C.ar    1  UNL1        0.0629
      2 C           2.9453  -12.6214  -30.9598 C.ar    1  UNL1       -0.0232
      3 C           1.6941  -11.8972  -33.0248 C.ar    1  UNL1        0.1463
      4 C           3.5621  -10.5251  -32.3059 C.ar    1  UNL1        0.1354
      5 C           1.9732  -13.6289  -30.8693 C.ar    1  UNL1        0.0409
      6 C           4.0674  -12.5435  -29.9230 C.3     1  UNL1       -0.0264
      7 C           1.4743  -11.0418  -34.1131 C.ar    1  UNL1        0.0234
      8 O           0.8475  -12.9595  -32.8828 O.2     1  UNL1       -0.4217
      9 C           3.3327   -9.6698  -33.4101 C.ar    1  UNL1        0.0226
     10 O           4.5791  -10.2316  -31.4143 O.3     1  UNL1       -0.4854
     11 C           0.8833  -13.8396  -31.8561 C.ar    1  UNL1        0.3407
     12 C           1.9809  -14.6381  -29.7233 C.3     1  UNL1       -0.0206
     13 C           4.2052  -13.7656  -28.9984 C.3     1  UNL1       -0.0487
     14 C           2.2930   -9.9303  -34.3184 C.ar    1  UNL1        0.1280
     15 C           4.5547   -9.1412  -30.4664 C.3     1  UNL1        0.1287
     16 O           0.0659  -14.7416  -31.7724 O.2     1  UNL1       -0.2449
     17 C           2.8288  -14.2176  -28.5146 C.3     1  UNL1       -0.0485
     18 O           2.0345   -9.1218  -35.4111 O.3     1  UNL1       -0.4860
     19 C           4.9833   -7.8158  -31.1169 C.2     1  UNL1        0.0789
     20 C           2.2604   -9.5278  -36.7808 C.3     1  UNL1        0.1286
     21 O           6.1441   -7.7019  -31.4723 O.co2   1  UNL1       -0.5463
     22 O           4.1353   -6.9431  -31.1902 O.co2   1  UNL1       -0.5463
     23 C           3.7591   -9.6555  -37.1066 C.2     1  UNL1        0.0789
     24 O           4.3990  -10.5257  -36.5409 O.co2   1  UNL1       -0.5463
     25 O           4.2171   -8.8405  -37.8881 O.co2   1  UNL1       -0.5463
     26 H           3.8895  -11.6851  -29.3094 H       1  UNL1        0.0313
     27 H           4.9788  -12.4953  -30.4815 H       1  UNL1        0.0313
     28 H           0.7006  -11.2354  -34.7680 H       1  UNL1        0.0691
     29 H           3.9367   -8.8447  -33.5498 H       1  UNL1        0.0691
     30 H           2.3652  -15.5646  -30.0957 H       1  UNL1        0.0315
     31 H           0.9715  -14.7148  -29.3767 H       1  UNL1        0.0315
     32 H           4.8085  -13.5040  -28.1543 H       1  UNL1        0.0268
     33 H           4.6646  -14.5648  -29.5416 H       1  UNL1        0.0268
     34 H           5.2237   -9.3654  -29.6620 H       1  UNL1        0.0760
     35 H           3.5520   -9.0301  -30.1100 H       1  UNL1        0.0760
     36 H           2.9386  -15.0478  -27.8484 H       1  UNL1        0.0269
     37 H           2.3466  -13.4127  -28.0002 H       1  UNL1        0.0269
     38 H           1.8263   -8.7989  -37.4329 H       1  UNL1        0.0760
     39 H           1.8100  -10.4886  -36.9184 H       1  UNL1        0.0760
@<TRIPOS>BOND
     1     1     2   ar
     2     1     3   ar
     3     1     4   ar
     4     2     5   ar
     5     2     6    1
     6     3     7   ar
     7     3     8   ar
     8     4     9   ar
     9     4    10    1
    10     5    11   ar
    11     5    12    1
    12     6    13    1
    13     7    14   ar
    14    10    15    1
    15    11    16    2
    16    12    17    1
    17    14    18    1
    18    15    19    1
    19    18    20    1
    20    19    21   ar
    21    19    22   ar
    22    20    23    1
    23    23    24   ar
    24    23    25   ar
    25     8    11   ar
    26     9    14   ar
    27    13    17    1
    28     6    26    1
    29     6    27    1
    30     7    28    1
    31     9    29    1
    32    12    30    1
    33    12    31    1
    34    13    32    1
    35    13    33    1
    36    15    34    1
    37    15    35    1
    38    17    36    1
    39    17    37    1
    40    20    38    1
    41    20    39    1
@<TRIPOS>SUBSTRUCTURE
     1 UNL1        1 TEMP              0 ****  ****    0 ROOT


