HTS1710-01263606-01
 OpenBabel03232612343D

 51 53  0  0  1  0  0  0  0  0999 V2000
    4.2204   -7.4193  -31.9247 C   0  0  0  0  0  0  0  0  0  0  0  0
    3.2257   -9.2034  -33.4058 C   0  0  0  0  0  0  0  0  0  0  0  0
    4.1676   -8.9062  -32.2522 C   0  0  2  0  0  0  0  0  0  0  0  0
    5.4383   -6.7563  -31.8949 C   0  0  0  0  0  0  0  0  0  0  0  0
    1.8540   -9.1721  -33.2103 C   0  0  0  0  0  0  0  0  0  0  0  0
    0.9134   -9.4496  -34.3063 C   0  0  0  0  0  0  0  0  0  0  0  0
    5.5296   -5.3193  -31.5954 C   0  0  0  0  0  0  0  0  0  0  0  0
    3.8160   -9.4761  -34.6265 O   0  0  0  0  0  0  0  0  0  0  0  0
    3.0116   -6.7951  -31.6748 O   0  0  0  0  0  0  0  0  0  0  0  0
    3.8224   -9.7782  -31.0312 C   0  0  0  0  0  0  0  0  0  0  0  0
    1.5894   -9.7426  -35.5687 C   0  0  0  0  0  0  0  0  0  0  0  0
    4.2240   -4.7115  -31.3435 C   0  0  0  0  0  0  0  0  0  0  0  0
    3.0590   -5.4462  -31.3917 C   0  0  0  0  0  0  0  0  0  0  0  0
    2.9648   -9.7479  -35.6754 C   0  0  0  0  0  0  0  0  0  0  0  0
    3.7356  -11.1870  -31.1272 C   0  0  0  0  0  0  0  0  0  0  0  0
    3.4065  -11.9485  -29.9835 C   0  0  0  0  0  0  0  0  0  0  0  0
    3.5666   -9.1595  -29.7896 C   0  0  0  0  0  0  0  0  0  0  0  0
   -0.3011   -9.4398  -34.1914 O   0  0  0  0  0  0  0  0  0  0  0  0
    6.5745   -4.6904  -31.5580 O   0  0  0  0  0  0  0  0  0  0  0  0
    1.2587   -8.8862  -32.0290 O   0  0  0  0  0  0  0  0  0  0  0  0
    6.6319   -7.3427  -32.1378 O   0  0  0  0  0  0  0  0  0  0  0  0
    3.1642  -11.3226  -28.7507 C   0  0  0  0  0  0  0  0  0  0  0  0
    3.2440   -9.9194  -28.6564 C   0  0  0  0  0  0  0  0  0  0  0  0
    3.9701  -11.7946  -32.3484 O   0  0  0  0  0  0  0  0  0  0  0  0
    1.7397   -4.7716  -31.1209 C   0  0  0  0  0  0  0  0  0  0  0  0
    3.6157  -10.0444  -37.0033 C   0  0  0  0  0  0  0  0  0  0  0  0
    2.8512  -12.1185  -27.6662 O   0  0  0  0  0  0  0  0  0  0  0  0
    1.0890   -4.4177  -32.3369 O   0  0  0  0  0  0  0  0  0  0  0  0
    3.7836   -8.8591  -37.7769 O   0  0  0  0  0  0  0  0  0  0  0  0
    3.9678  -13.2192  -32.5407 C   0  0  0  0  0  0  0  0  0  0  0  0
    3.1898  -13.5151  -27.5944 C   0  0  0  0  0  0  0  0  0  0  0  0
    5.1594   -9.1681  -32.5564 H   0  0  0  0  0  0  0  0  0  0  0  0
    1.0212   -9.9516  -36.4045 H   0  0  0  0  0  0  0  0  0  0  0  0
    4.1734   -3.7045  -31.1234 H   0  0  0  0  0  0  0  0  0  0  0  0
    3.3436  -12.9761  -30.0552 H   0  0  0  0  0  0  0  0  0  0  0  0
    3.6176   -8.1316  -29.7142 H   0  0  0  0  0  0  0  0  0  0  0  0
    0.3246   -8.9060  -31.9581 H   0  0  0  0  0  0  0  0  0  0  0  0
    7.3886   -6.8148  -32.3013 H   0  0  0  0  0  0  0  0  0  0  0  0
    3.0653   -9.4514  -27.7542 H   0  0  0  0  0  0  0  0  0  0  0  0
    1.9111   -3.8861  -30.5451 H   0  0  0  0  0  0  0  0  0  0  0  0
    1.1125   -5.4521  -30.5839 H   0  0  0  0  0  0  0  0  0  0  0  0
    3.0004  -10.7305  -37.5469 H   0  0  0  0  0  0  0  0  0  0  0  0
    4.5819  -10.4650  -36.8180 H   0  0  0  0  0  0  0  0  0  0  0  0
    0.2257   -4.0224  -32.1385 H   0  0  0  0  0  0  0  0  0  0  0  0
    4.2107   -9.0807  -38.6191 H   0  0  0  0  0  0  0  0  0  0  0  0
    4.1734  -13.4409  -33.5671 H   0  0  0  0  0  0  0  0  0  0  0  0
    3.0088  -13.6133  -32.2758 H   0  0  0  0  0  0  0  0  0  0  0  0
    4.7193  -13.6639  -31.9223 H   0  0  0  0  0  0  0  0  0  0  0  0
    2.8466  -13.9180  -26.6643 H   0  0  0  0  0  0  0  0  0  0  0  0
    4.2515  -13.6286  -27.6621 H   0  0  0  0  0  0  0  0  0  0  0  0
    2.7230  -14.0374  -28.4032 H   0  0  0  0  0  0  0  0  0  0  0  0
  1  3  1  0  0  0  0
  1  4  2  0  0  0  0
  1  9  1  0  0  0  0
  2  3  1  0  0  0  0
  2  5  2  0  0  0  0
  2  8  1  0  0  0  0
  3 10  1  0  0  0  0
  3 32  1  6  0  0  0
  4  7  1  0  0  0  0
  4 21  1  0  0  0  0
  5  6  1  0  0  0  0
  5 20  1  0  0  0  0
  6 18  2  0  0  0  0
  6 11  1  0  0  0  0
  7 19  2  0  0  0  0
  7 12  1  0  0  0  0
  8 14  1  0  0  0  0
  9 13  1  0  0  0  0
 10 15  2  0  0  0  0
 10 17  1  0  0  0  0
 11 14  2  0  0  0  0
 11 33  1  0  0  0  0
 12 13  2  0  0  0  0
 12 34  1  0  0  0  0
 13 25  1  0  0  0  0
 14 26  1  0  0  0  0
 15 16  1  0  0  0  0
 15 24  1  0  0  0  0
 16 22  2  0  0  0  0
 16 35  1  0  0  0  0
 17 23  2  0  0  0  0
 17 36  1  0  0  0  0
 20 37  1  0  0  0  0
 21 38  1  0  0  0  0
 22 23  1  0  0  0  0
 22 27  1  0  0  0  0
 23 39  1  0  0  0  0
 24 30  1  0  0  0  0
 25 28  1  0  0  0  0
 25 40  1  0  0  0  0
 25 41  1  0  0  0  0
 26 29  1  0  0  0  0
 26 42  1  0  0  0  0
 26 43  1  0  0  0  0
 27 31  1  0  0  0  0
 28 44  1  0  0  0  0
 29 45  1  0  0  0  0
 30 46  1  0  0  0  0
 30 47  1  0  0  0  0
 30 48  1  0  0  0  0
 31 49  1  0  0  0  0
 31 50  1  0  0  0  0
 31 51  1  0  0  0  0
M  END
$$$$
