##########                                Name: HTS1710-00574514-01
##########                    Molecular_Weight:             381.387
##########                DOCK_Rotatable_Bonds:                   8
##########                       Formal_Charge:                  -2
##########                     HBond_Acceptors:                  10
##########                        HBond_Donors:                   1
##########                         Heavy_Atoms:                  25
##########                          Grid_Score:          -77.360413
##########                     Grid_vdw_energy:          -39.063999
##########                      Grid_es_energy:          -38.296417
##########           Internal_energy_repulsive:           13.532014

@<TRIPOS>MOLECULE
HTS1710-00574514-01
 36 37 1 0 0
SMALL
USER_CHARGES


@<TRIPOS>ATOM
      1 N           3.0827  -10.3399  -32.0020 N.am    1  UNL1       -0.2463
      2 C           2.2274   -9.5973  -32.8146 C.2     1  UNL1        0.2589
      3 C           3.9357   -9.6972  -30.9657 C.3     1  UNL1        0.0765
      4 C           3.0944  -11.7018  -32.2881 C.2     1  UNL1        0.1211
      5 C           1.5371  -10.4841  -33.7790 C.2     1  UNL1        0.0772
      6 O           2.0766   -8.3885  -32.7342 O.2     1  UNL1       -0.2690
      7 C           3.1618   -9.4598  -29.6355 C.3     1  UNL1        0.0111
      8 C           4.6283   -8.4384  -31.5381 C.2     1  UNL1        0.0629
      9 S           1.9911  -12.1679  -33.6142 S.3     1  UNL1       -0.0610
     10 S           4.0769  -12.8496  -31.5602 S.2     1  UNL1       -0.0272
     11 C           0.6368   -9.9810  -34.6975 C.2     1  UNL1       -0.0356
     12 C           3.3958  -10.5865  -28.6177 C.2     1  UNL1        0.0439
     13 O           5.5945   -8.6224  -32.2592 O.co2   1  UNL1       -0.5479
     14 O           4.1801   -7.3438  -31.2383 O.co2   1  UNL1       -0.5479
     15 C           0.0855   -8.6345  -35.0432 C.ar    1  UNL1       -0.0201
     16 O           4.5170  -11.0604  -28.5600 O.co2   1  UNL1       -0.5497
     17 O           2.4500  -10.9179  -27.9232 O.co2   1  UNL1       -0.5497
     18 C          -0.7580   -8.0023  -34.1050 C.ar    1  UNL1       -0.0091
     19 C           0.3626   -7.9688  -36.2557 C.ar    1  UNL1       -0.0509
     20 C          -1.3172   -6.7326  -34.3667 C.ar    1  UNL1        0.1618
     21 C          -0.1910   -6.7069  -36.5211 C.ar    1  UNL1       -0.0160
     22 C          -1.0284   -6.0879  -35.5833 C.ar    1  UNL1        0.1585
     23 O          -2.1467   -6.0936  -33.4614 O.3     1  UNL1       -0.4914
     24 O          -1.5616   -4.8600  -35.8564 O.3     1  UNL1       -0.5033
     25 C          -2.3882   -6.5853  -32.1315 C.3     1  UNL1        0.0790
     26 H           4.7214  -10.3721  -30.6977 H       1  UNL1        0.0570
     27 H           2.1154   -9.4025  -29.8513 H       1  UNL1        0.0347
     28 H           3.5217   -8.5487  -29.2048 H       1  UNL1        0.0347
     29 H           0.2446  -10.7230  -35.2980 H       1  UNL1        0.0636
     30 H          -0.9696   -8.4759  -33.2128 H       1  UNL1        0.0661
     31 H           0.9782   -8.4140  -36.9540 H       1  UNL1        0.0625
     32 H           0.0199   -6.2317  -37.4126 H       1  UNL1        0.0655
     33 H          -2.0365   -4.3976  -35.1941 H       1  UNL1        0.2923
     34 H          -3.0597   -5.9250  -31.6236 H       1  UNL1        0.0660
     35 H          -1.4632   -6.6345  -31.5960 H       1  UNL1        0.0660
     36 H          -2.8214   -7.5623  -32.1856 H       1  UNL1        0.0660
@<TRIPOS>BOND
     1     1     2   am
     2     1     3    1
     3     1     4    1
     4     2     5    1
     5     2     6    2
     6     3     7    1
     7     3     8    1
     8     4     9    1
     9     4    10    2
    10     5    11    2
    11     7    12    1
    12     8    13   ar
    13     8    14   ar
    14    11    15    1
    15    12    16   ar
    16    12    17   ar
    17    15    18   ar
    18    15    19   ar
    19    18    20   ar
    20    19    21   ar
    21    20    22   ar
    22    20    23    1
    23    22    24    1
    24    23    25    1
    25     5     9    1
    26    21    22   ar
    27     3    26    1
    28     7    27    1
    29     7    28    1
    30    11    29    1
    31    18    30    1
    32    19    31    1
    33    21    32    1
    34    24    33    1
    35    25    34    1
    36    25    35    1
    37    25    36    1
@<TRIPOS>SUBSTRUCTURE
     1 UNL1        1 TEMP              0 ****  ****    0 ROOT


