##########                                Name: HTS1710-00097882-01
##########                    Molecular_Weight:             376.389
##########                DOCK_Rotatable_Bonds:                   4
##########                       Formal_Charge:                  -2
##########                     HBond_Acceptors:                  11
##########                        HBond_Donors:                   0
##########                         Heavy_Atoms:                  23
##########                          Grid_Score:          -75.497910
##########                     Grid_vdw_energy:          -37.597855
##########                      Grid_es_energy:          -37.900059
##########           Internal_energy_repulsive:            6.144082

@<TRIPOS>MOLECULE
HTS1710-00097882-01
 31 32 1 0 0
SMALL
USER_CHARGES


@<TRIPOS>ATOM
      1 O           5.8553   -8.1422  -30.6961 O.co2   1  UNL1       -0.7202
      2 S           5.1203   -7.4700  -31.7717 S.3     1  UNL1       -0.0511
      3 O           5.9296   -6.5825  -32.6125 O.2     1  UNL1       -0.1803
      4 O           3.8054   -6.9486  -31.3862 O.2     1  UNL1       -0.1803
      5 C           4.7216   -8.8483  -32.8682 C.ar    1  UNL1        0.0784
      6 C           5.6077   -9.2044  -33.9018 C.ar    1  UNL1       -0.0377
      7 C           5.2878  -10.2565  -34.7743 C.ar    1  UNL1       -0.0582
      8 C           4.0818  -10.9565  -34.6212 C.ar    1  UNL1       -0.0364
      9 C           3.1900  -10.6070  -33.5902 C.ar    1  UNL1        0.0953
     10 C           3.5072   -9.5473  -32.7209 C.ar    1  UNL1       -0.0126
     11 S           1.6295  -11.4910  -33.4159 S.O2    1  UNL1        0.0252
     12 O           1.4094  -12.2766  -34.6342 O.2     1  UNL1       -0.1643
     13 O           0.6269  -10.5368  -32.9304 O.2     1  UNL1       -0.1643
     14 C           2.0011  -12.6309  -32.0711 C.ar    1  UNL1        0.0953
     15 C           1.5858  -13.9722  -32.1528 C.ar    1  UNL1       -0.0364
     16 C           1.8541  -14.8565  -31.0980 C.ar    1  UNL1       -0.0582
     17 C           2.5342  -14.4060  -29.9555 C.ar    1  UNL1       -0.0377
     18 C           2.9524  -13.0652  -29.8653 C.ar    1  UNL1        0.0784
     19 C           2.6766  -12.1775  -30.9230 C.ar    1  UNL1       -0.0126
     20 S           3.7945  -12.4741  -28.3814 S.3     1  UNL1       -0.0511
     21 O           4.3973  -13.6878  -27.8219 O.2     1  UNL1       -0.1803
     22 O           2.7153  -11.8806  -27.5857 O.2     1  UNL1       -0.1803
     23 O           4.7499  -11.5125  -28.9392 O.co2   1  UNL1       -0.7202
     24 H           6.4952   -8.6909  -34.0186 H       1  UNL1        0.0636
     25 H           5.9411  -10.5155  -35.5300 H       1  UNL1        0.0619
     26 H           3.8483  -11.7284  -35.2651 H       1  UNL1        0.0637
     27 H           2.8481   -9.2810  -31.9729 H       1  UNL1        0.0655
     28 H           1.0831  -14.3059  -32.9899 H       1  UNL1        0.0637
     29 H           1.5507  -15.8408  -31.1617 H       1  UNL1        0.0619
     30 H           2.7279  -15.0592  -29.1804 H       1  UNL1        0.0636
     31 H           2.9710  -11.1907  -30.8559 H       1  UNL1        0.0655
@<TRIPOS>BOND
     1     1     2    1
     2     2     3    2
     3     2     4    2
     4     2     5    1
     5     5     6   ar
     6     6     7   ar
     7     7     8   ar
     8     8     9   ar
     9     9    10   ar
    10     5    10   ar
    11     9    11    1
    12    11    12    2
    13    11    13    2
    14    11    14    1
    15    14    15   ar
    16    15    16   ar
    17    16    17   ar
    18    17    18   ar
    19    18    19   ar
    20    14    19   ar
    21    18    20    1
    22    20    21    2
    23    20    22    2
    24    20    23    1
    25     6    24    1
    26     7    25    1
    27     8    26    1
    28    10    27    1
    29    15    28    1
    30    16    29    1
    31    17    30    1
    32    19    31    1
@<TRIPOS>SUBSTRUCTURE
     1 UNL1        1 TEMP              0 ****  ****    0 ROOT


