##########                                Name: HTS1710-01267065-01
##########                    Molecular_Weight:              427.39
##########                DOCK_Rotatable_Bonds:                   9
##########                       Formal_Charge:                  -1
##########                     HBond_Acceptors:                  10
##########                        HBond_Donors:                   1
##########                         Heavy_Atoms:                  31
##########                          Grid_Score:          -76.407486
##########                     Grid_vdw_energy:          -47.404091
##########                      Grid_es_energy:          -29.003399
##########           Internal_energy_repulsive:           17.678442

@<TRIPOS>MOLECULE
HTS1710-01267065-01
 50 52 1 0 0
SMALL
USER_CHARGES


@<TRIPOS>ATOM
      1 C           3.8040  -11.1547  -31.7990 C.ar    1  UNL1        0.0844
      2 C           4.2178  -11.1130  -30.4666 C.ar    1  UNL1       -0.0115
      3 N           3.9468  -12.2854  -29.7190 N.ar    1  UNL1       -0.2774
      4 C           3.1293  -12.3280  -32.4048 C.ar    1  UNL1        0.4192
      5 N           2.9358  -13.3833  -31.5367 N.ar    1  UNL1       -0.1546
      6 C           3.3052  -13.3979  -30.2704 C.ar    1  UNL1        0.2903
      7 C           4.0549   -9.9355  -32.6976 C.3     1  UNL1        0.0299
      8 C           2.7493   -9.3435  -33.2614 C.ar    1  UNL1       -0.0354
      9 C           1.8816   -8.5403  -32.4923 C.ar    1  UNL1       -0.0125
     10 C           4.3484  -12.3085  -28.3652 C.ar    1  UNL1        0.0144
     11 C           0.6848   -8.0227  -33.0386 C.ar    1  UNL1        0.1618
     12 C           5.1670  -10.2186  -33.7514 C.3     1  UNL1        0.0561
     13 O           2.7663  -12.3950  -33.5656 O.2     1  UNL1       -0.2137
     14 C           5.5818   -8.9507  -34.5090 C.2     1  UNL1        0.3077
     15 C           3.0156  -14.5886  -29.5466 C.ar    1  UNL1        0.0294
     16 C           0.3444   -8.3333  -34.3808 C.ar    1  UNL1        0.1624
     17 C          -2.9545   -6.7436  -35.4169 C.2     1  UNL1        0.0789
     18 O           4.8425  -10.0688  -29.8713 O.co2   1  UNL1       -0.8607
     19 O          -0.8064   -7.8840  -35.0112 O.3     1  UNL1       -0.4826
     20 C           2.4130   -9.6097  -34.5993 C.ar    1  UNL1       -0.0543
     21 C           4.0649  -13.4745  -27.6607 C.ar    1  UNL1       -0.0448
     22 C           3.4019  -14.6171  -28.2317 C.ar    1  UNL1       -0.0525
     23 O           5.3577   -8.7703  -35.6950 O.2     1  UNL1       -0.2508
     24 O          -2.8129   -5.7951  -36.1688 O.co2   1  UNL1       -0.5463
     25 C           1.2261   -9.1086  -35.1505 C.ar    1  UNL1       -0.0160
     26 C          -1.8128   -7.0228  -34.4271 C.3     1  UNL1        0.1288
     27 O          -3.9426   -7.4552  -35.3576 O.co2   1  UNL1       -0.5463
     28 O          -0.1274   -7.1922  -32.2882 O.3     1  UNL1       -0.4914
     29 O           6.2102   -8.0536  -33.6911 O.3     1  UNL1       -0.4679
     30 C           0.3006   -6.5329  -31.0848 C.3     1  UNL1        0.0790
     31 C           6.7407   -6.8380  -34.2483 C.3     1  UNL1        0.0817
     32 H           2.4883  -14.1861  -31.8893 H       1  UNL1        0.4584
     33 H           4.4502   -9.1486  -32.0897 H       1  UNL1        0.0406
     34 H           2.1249   -8.3264  -31.5124 H       1  UNL1        0.0658
     35 H           4.8248  -11.5064  -27.9237 H       1  UNL1        0.0814
     36 H           4.8005  -10.9365  -34.4552 H       1  UNL1        0.0387
     37 H           6.0265  -10.5875  -33.2317 H       1  UNL1        0.0387
     38 H           2.5391  -15.3898  -29.9893 H       1  UNL1        0.0700
     39 H           3.0461  -10.1797  -35.1817 H       1  UNL1        0.0622
     40 H           4.3471  -13.5228  -26.6692 H       1  UNL1        0.0632
     41 H           3.2184  -15.4528  -27.6547 H       1  UNL1        0.0621
     42 H           0.9970   -9.3123  -36.1358 H       1  UNL1        0.0655
     43 H          -2.2149   -7.4978  -33.5567 H       1  UNL1        0.0760
     44 H          -1.3523   -6.0912  -34.1725 H       1  UNL1        0.0760
     45 H          -0.5056   -5.9497  -30.6915 H       1  UNL1        0.0660
     46 H           1.1297   -5.8931  -31.3043 H       1  UNL1        0.0660
     47 H           0.5965   -7.2651  -30.3629 H       1  UNL1        0.0660
     48 H           7.1947   -6.2581  -33.4720 H       1  UNL1        0.0661
     49 H           5.9484   -6.2756  -34.6966 H       1  UNL1        0.0661
     50 H           7.4736   -7.0760  -34.9908 H       1  UNL1        0.0661
@<TRIPOS>BOND
     1     1     2   ar
     2     2     3   ar
     3     1     4   ar
     4     4     5   ar
     5     5     6   ar
     6     1     7    1
     7     7     8    1
     8     8     9   ar
     9     3    10   ar
    10     9    11   ar
    11     7    12    1
    12     4    13    2
    13    12    14    1
    14     6    15   ar
    15    16    25   ar
    16    17    26    1
    17     2    18    1
    18    16    19    1
    19     8    20   ar
    20    10    21   ar
    21    15    22   ar
    22    14    23    2
    23    17    24   ar
    24    20    25   ar
    25    19    26    1
    26    17    27   ar
    27    11    28    1
    28    14    29    1
    29    28    30    1
    30    29    31    1
    31     3     6   ar
    32    11    16   ar
    33    21    22   ar
    34     5    32    1
    35     7    33    1
    36     9    34    1
    37    10    35    1
    38    12    36    1
    39    12    37    1
    40    15    38    1
    41    20    39    1
    42    21    40    1
    43    22    41    1
    44    25    42    1
    45    26    43    1
    46    26    44    1
    47    30    45    1
    48    30    46    1
    49    30    47    1
    50    31    48    1
    51    31    49    1
    52    31    50    1
@<TRIPOS>SUBSTRUCTURE
     1 UNL1        1 TEMP              0 ****  ****    0 ROOT


