##########                                Name: HTS1710-04411503-01
##########                    Molecular_Weight:             315.304
##########                DOCK_Rotatable_Bonds:                   8
##########                       Formal_Charge:                  -2
##########                     HBond_Acceptors:                   9
##########                        HBond_Donors:                   1
##########                         Heavy_Atoms:                  21
##########                          Grid_Score:          -74.867012
##########                     Grid_vdw_energy:          -36.253780
##########                      Grid_es_energy:          -38.613232
##########           Internal_energy_repulsive:            9.687657

@<TRIPOS>MOLECULE
HTS1710-04411503-01
 34 34 1 0 0
SMALL
USER_CHARGES


@<TRIPOS>ATOM
      1 S           3.5931  -11.9893  -35.0137 S.O2    1  UNL1        0.0590
      2 C           4.6806   -9.8329  -33.6891 C.3     1  UNL1        0.0730
      3 N           3.6964  -10.3214  -34.6804 N.3     1  UNL1       -0.1811
      4 C           3.9860   -9.3106  -32.3953 C.3     1  UNL1        0.0090
      5 C           5.5454   -8.7490  -34.3590 C.2     1  UNL1        0.0606
      6 C           2.9551  -12.6667  -33.4727 C.ar    1  UNL1        0.1055
      7 C           4.8811   -9.4153  -31.1520 C.2     1  UNL1        0.0436
      8 O           2.5737  -12.1325  -36.0599 O.2     1  UNL1       -0.1530
      9 O           4.9862  -12.4161  -35.1812 O.2     1  UNL1       -0.1530
     10 O           5.4935   -8.6528  -35.5746 O.co2   1  UNL1       -0.5481
     11 O           4.7621  -10.4139  -30.4612 O.co2   1  UNL1       -0.5498
     12 C           1.5773  -12.6121  -33.1968 C.ar    1  UNL1       -0.0319
     13 C           3.8280  -13.2590  -32.5412 C.ar    1  UNL1       -0.0319
     14 O           6.2496   -8.0740  -33.6296 O.co2   1  UNL1       -0.5481
     15 O           5.6377   -8.4871  -30.9283 O.co2   1  UNL1       -0.5498
     16 C           1.9468  -13.7168  -31.0567 C.ar    1  UNL1        0.1206
     17 C           1.0771  -13.1341  -31.9938 C.ar    1  UNL1       -0.0181
     18 C           3.3294  -13.7801  -31.3360 C.ar    1  UNL1       -0.0181
     19 O           1.4086  -14.2105  -29.8844 O.3     1  UNL1       -0.4922
     20 C           2.1116  -15.1259  -29.0252 C.3     1  UNL1        0.0868
     21 C           1.7249  -14.8128  -27.5677 C.3     1  UNL1       -0.0307
     22 H           5.3071  -10.6416  -33.3756 H       1  UNL1        0.0542
     23 H           3.9088   -9.8558  -35.5627 H       1  UNL1        0.1487
     24 H           3.0998   -9.8864  -32.2274 H       1  UNL1        0.0344
     25 H           3.7654   -8.2745  -32.5455 H       1  UNL1        0.0344
     26 H           0.9320  -12.1870  -33.8809 H       1  UNL1        0.0638
     27 H           4.8386  -13.3107  -32.7444 H       1  UNL1        0.0638
     28 H           0.0650  -13.0898  -31.7965 H       1  UNL1        0.0655
     29 H           3.9740  -14.2097  -30.6541 H       1  UNL1        0.0655
     30 H           3.1670  -15.0051  -29.1537 H       1  UNL1        0.0694
     31 H           1.8503  -16.1347  -29.2679 H       1  UNL1        0.0694
     32 H           1.9909  -13.8023  -27.3373 H       1  UNL1        0.0262
     33 H           2.2451  -15.4773  -26.9100 H       1  UNL1        0.0262
     34 H           0.6700  -14.9411  -27.4432 H       1  UNL1        0.0262
@<TRIPOS>BOND
     1     2     3    1
     2     1     3    1
     3     2     4    1
     4     2     5    1
     5     1     6    1
     6     4     7    1
     7     1     8    2
     8     1     9    2
     9     5    10   ar
    10     7    11   ar
    11     6    12   ar
    12     6    13   ar
    13     5    14   ar
    14     7    15   ar
    15    16    18   ar
    16    12    17   ar
    17    13    18   ar
    18    16    19    1
    19    19    20    1
    20    20    21    1
    21    16    17   ar
    22     2    22    1
    23     3    23    1
    24     4    24    1
    25     4    25    1
    26    12    26    1
    27    13    27    1
    28    17    28    1
    29    18    29    1
    30    20    30    1
    31    20    31    1
    32    21    32    1
    33    21    33    1
    34    21    34    1
@<TRIPOS>SUBSTRUCTURE
     1 UNL1        1 TEMP              0 ****  ****    0 ROOT


