##########                                Name: HTS1710-00617361-01
##########                    Molecular_Weight:             381.341
##########                DOCK_Rotatable_Bonds:                   6
##########                       Formal_Charge:                  -2
##########                     HBond_Acceptors:                   8
##########                        HBond_Donors:                   1
##########                         Heavy_Atoms:                  28
##########                          Grid_Score:          -75.998390
##########                     Grid_vdw_energy:          -41.306446
##########                      Grid_es_energy:          -34.691944
##########           Internal_energy_repulsive:            8.697977

@<TRIPOS>MOLECULE
HTS1710-00617361-01
 43 45 1 0 0
SMALL
USER_CHARGES


@<TRIPOS>ATOM
      1 C           2.5568   -9.3490  -33.4652 C.3     1  UNL1        0.0844
      2 N           1.6867   -8.2926  -32.8790 N.am    1  UNL1       -0.2568
      3 C           1.8037  -10.6542  -33.7048 C.ar    1  UNL1       -0.0185
      4 C           3.6801   -9.4822  -32.4354 C.2     1  UNL1        0.0170
      5 C           0.4386   -7.9372  -33.4734 C.ar    1  UNL1        0.0376
      6 C           2.1762   -7.8813  -31.6449 C.2     1  UNL1        0.2372
      7 C           1.5349  -11.5206  -32.6292 C.ar    1  UNL1       -0.0110
      8 C           1.3879  -11.0066  -35.0023 C.ar    1  UNL1       -0.0528
      9 C           3.3978   -8.6608  -31.4111 C.2     1  UNL1       -0.0354
     10 C           4.7279  -10.5417  -32.5440 C.2     1  UNL1        0.1579
     11 C          -0.6917   -7.7122  -32.6665 C.ar    1  UNL1       -0.0396
     12 C           0.3251   -7.7694  -34.8663 C.ar    1  UNL1       -0.0396
     13 O           1.6834   -7.0435  -30.9078 O.2     1  UNL1       -0.2709
     14 C           0.8446  -12.7332  -32.8463 C.ar    1  UNL1        0.1616
     15 C           0.7052  -12.2115  -35.2227 C.ar    1  UNL1       -0.0162
     16 O           4.0906   -8.5408  -30.2556 O.co2   1  UNL1       -0.8701
     17 C           5.4940  -10.6086  -33.8689 C.3     1  UNL1       -0.0017
     18 O           5.0571  -11.2235  -31.5889 O.2     1  UNL1       -0.2926
     19 C          -1.9171   -7.3417  -33.2421 C.ar    1  UNL1       -0.0511
     20 C          -0.8998   -7.3974  -35.4435 C.ar    1  UNL1       -0.0511
     21 C           0.4317  -13.0725  -34.1483 C.ar    1  UNL1        0.1585
     22 O           0.5565  -13.6068  -31.8116 O.3     1  UNL1       -0.4914
     23 C          -2.0379   -7.1818  -34.6383 C.ar    1  UNL1       -0.0026
     24 O          -0.2364  -14.2426  -34.3751 O.3     1  UNL1       -0.5033
     25 C           1.4859  -13.9113  -30.7570 C.3     1  UNL1        0.0790
     26 C          -3.3592   -6.7835  -35.2590 C.2     1  UNL1        0.0717
     27 O          -4.2160   -7.6457  -35.3628 O.co2   1  UNL1       -0.5446
     28 O          -3.4885   -5.6255  -35.6186 O.co2   1  UNL1       -0.5446
     29 H           2.9244   -9.0997  -34.4386 H       1  UNL1        0.0605
     30 H           1.8437  -11.2687  -31.6773 H       1  UNL1        0.0659
     31 H           1.5862  -10.3758  -35.7947 H       1  UNL1        0.0622
     32 H          -0.6193   -7.8204  -31.6428 H       1  UNL1        0.0636
     33 H           1.1494   -7.9209  -35.4687 H       1  UNL1        0.0636
     34 H           0.4033  -12.4656  -36.1763 H       1  UNL1        0.0655
     35 H           5.0480   -9.9376  -34.5731 H       1  UNL1        0.0309
     36 H           5.4553  -11.6065  -34.2533 H       1  UNL1        0.0309
     37 H           6.5137  -10.3285  -33.7057 H       1  UNL1        0.0309
     38 H          -2.7384   -7.1847  -32.6373 H       1  UNL1        0.0625
     39 H          -0.9681   -7.2807  -36.4666 H       1  UNL1        0.0625
     40 H          -0.2593  -14.9049  -33.7127 H       1  UNL1        0.2923
     41 H           1.0396  -14.6077  -30.0782 H       1  UNL1        0.0660
     42 H           1.7371  -13.0131  -30.2326 H       1  UNL1        0.0660
     43 H           2.3726  -14.3397  -31.1757 H       1  UNL1        0.0660
@<TRIPOS>BOND
     1     1     2    1
     2     1     3    1
     3     1     4    1
     4     2     5    1
     5     2     6   am
     6     3     7   ar
     7     3     8   ar
     8     4     9    2
     9     4    10    1
    10     5    11   ar
    11     5    12   ar
    12     6    13    2
    13     7    14   ar
    14     8    15   ar
    15     9    16    1
    16    10    17    1
    17    10    18    2
    18    11    19   ar
    19    12    20   ar
    20    14    21   ar
    21    14    22    1
    22    19    23   ar
    23    21    24    1
    24    22    25    1
    25    23    26    1
    26    26    27   ar
    27    26    28   ar
    28     6     9    1
    29    15    21   ar
    30    20    23   ar
    31     1    29    1
    32     7    30    1
    33     8    31    1
    34    11    32    1
    35    12    33    1
    36    15    34    1
    37    17    35    1
    38    17    36    1
    39    17    37    1
    40    19    38    1
    41    20    39    1
    42    24    40    1
    43    25    41    1
    44    25    42    1
    45    25    43    1
@<TRIPOS>SUBSTRUCTURE
     1 UNL1        1 TEMP              0 ****  ****    0 ROOT


