##########                                Name: HTS1710-01164316-01
##########                    Molecular_Weight:             344.324
##########                DOCK_Rotatable_Bonds:                   7
##########                       Formal_Charge:                  -2
##########                     HBond_Acceptors:                   8
##########                        HBond_Donors:                   3
##########                         Heavy_Atoms:                  25
##########                          Grid_Score:          -78.156448
##########                     Grid_vdw_energy:          -38.832829
##########                      Grid_es_energy:          -39.323616
##########           Internal_energy_repulsive:            8.815475

@<TRIPOS>MOLECULE
HTS1710-01164316-01
 41 43 1 0 0
SMALL
USER_CHARGES


@<TRIPOS>ATOM
      1 C           4.5131   -7.3752  -31.4899 C.2     1  UNL1       -0.0555
      2 C           5.0054   -8.3209  -32.3734 C.2     1  UNL1       -0.1090
      3 C           3.7679  -10.0434  -31.0253 C.2     1  UNL1        0.0539
      4 C           3.3661   -9.0148  -30.2226 C.2     1  UNL1       -0.0306
      5 O           3.6205   -7.6962  -30.4949 O.co2   1  UNL1       -0.7688
      6 C           4.5176   -9.7430  -32.3282 C.3     1  UNL1        0.0297
      7 C           4.9292   -5.9696  -31.5892 C.2     1  UNL1        0.1708
      8 O           5.9082   -8.0440  -33.3811 O.co2   1  UNL1       -0.7839
      9 C           5.8805   -5.7223  -32.6699 C.2     1  UNL1       -0.0241
     10 C           3.4926  -11.5081  -30.7210 C.2     1  UNL1        0.3367
     11 C           6.3169   -6.7333  -33.4979 C.2     1  UNL1       -0.0886
     12 C           3.6396  -10.0340  -33.5447 C.ar    1  UNL1       -0.0184
     13 N           2.6584   -9.2378  -29.0654 N.pl3   1  UNL1       -0.3685
     14 O           4.5262   -5.0913  -30.8460 O.2     1  UNL1       -0.2886
     15 O           2.3830  -12.0153  -30.6623 O.2     1  UNL1       -0.2453
     16 N           3.4632  -10.3356  -35.9452 N.ar    1  UNL1       -0.2630
     17 O           4.6449  -12.2184  -30.5164 O.3     1  UNL1       -0.4616
     18 C           7.2989   -6.4334  -34.6021 C.3     1  UNL1        0.0566
     19 C           4.1931  -10.0859  -34.8392 C.ar    1  UNL1        0.0316
     20 O           6.7808   -6.8124  -35.8744 O.3     1  UNL1       -0.3915
     21 C           2.1390  -10.5455  -35.7997 C.ar    1  UNL1        0.0276
     22 C           2.2584  -10.2599  -33.4027 C.ar    1  UNL1       -0.0548
     23 C           4.5788  -13.6246  -30.2197 C.3     1  UNL1        0.0900
     24 C           1.4954  -10.5180  -34.5512 C.ar    1  UNL1       -0.0433
     25 C           4.5179  -13.7860  -28.6899 C.3     1  UNL1       -0.0306
     26 H           5.3707  -10.3882  -32.3557 H       1  UNL1        0.0437
     27 H           6.2352   -4.7644  -32.8172 H       1  UNL1        0.0647
     28 H           2.2454  -10.1166  -28.9025 H       1  UNL1        0.1413
     29 H           2.5644   -8.5188  -28.3995 H       1  UNL1        0.1413
     30 H           8.2041   -6.9739  -34.4196 H       1  UNL1        0.0596
     31 H           7.4825   -5.3793  -34.6131 H       1  UNL1        0.0596
     32 H           5.2069   -9.9250  -34.9462 H       1  UNL1        0.0832
     33 H           6.5946   -7.7644  -35.8770 H       1  UNL1        0.2098
     34 H           1.5738  -10.7347  -36.6422 H       1  UNL1        0.0829
     35 H           1.8148  -10.2361  -32.4712 H       1  UNL1        0.0621
     36 H           5.4479  -14.1178  -30.6025 H       1  UNL1        0.0695
     37 H           3.7133  -14.0600  -30.6740 H       1  UNL1        0.0695
     38 H           0.4795  -10.6847  -34.4803 H       1  UNL1        0.0633
     39 H           5.3887  -13.3465  -28.2500 H       1  UNL1        0.0262
     40 H           4.4795  -14.8262  -28.4422 H       1  UNL1        0.0262
     41 H           3.6432  -13.2973  -28.3143 H       1  UNL1        0.0262
@<TRIPOS>BOND
     1     1     2    2
     2     3     4    2
     3     4     5    1
     4     1     5    1
     5     2     6    1
     6     1     7    1
     7     2     8    1
     8     7     9    1
     9     3    10    1
    10     9    11    2
    11     6    12    1
    12     4    13    1
    13     7    14    2
    14    10    15    2
    15    16    19   ar
    16    10    17    1
    17    11    18    1
    18    12    19   ar
    19    18    20    1
    20    21    24   ar
    21    12    22   ar
    22    17    23    1
    23    22    24   ar
    24    23    25    1
    25     3     6    1
    26     8    11    1
    27    16    21   ar
    28     6    26    1
    29     9    27    1
    30    13    28    1
    31    13    29    1
    32    18    30    1
    33    18    31    1
    34    19    32    1
    35    20    33    1
    36    21    34    1
    37    22    35    1
    38    23    36    1
    39    23    37    1
    40    24    38    1
    41    25    39    1
    42    25    40    1
    43    25    41    1
@<TRIPOS>SUBSTRUCTURE
     1 UNL1        1 TEMP              0 ****  ****    0 ROOT


