##########                                Name: HTS1710-00277847-01
##########                    Molecular_Weight:             341.303
##########                DOCK_Rotatable_Bonds:                   6
##########                       Formal_Charge:                  -2
##########                     HBond_Acceptors:                   9
##########                        HBond_Donors:                   1
##########                         Heavy_Atoms:                  25
##########                          Grid_Score:          -77.819809
##########                     Grid_vdw_energy:          -40.169239
##########                      Grid_es_energy:          -37.650570
##########           Internal_energy_repulsive:            9.242896

@<TRIPOS>MOLECULE
HTS1710-00277847-01
 38 40 1 0 0
SMALL
USER_CHARGES


@<TRIPOS>ATOM
      1 C           2.9276  -11.8014  -32.4177 C.3     1  UNL1       -0.0435
      2 C           3.6755  -10.9950  -31.3318 C.3     1  UNL1        0.0345
      3 N           4.4709  -11.8898  -30.4817 N.am    1  UNL1       -0.3045
      4 C           3.9487  -12.5553  -29.3815 C.2     1  UNL1        0.2662
      5 O           2.7740  -12.4086  -29.0879 O.2     1  UNL1       -0.2684
      6 C           4.8488  -13.4287  -28.6035 C.ar    1  UNL1        0.1678
      7 N           5.9727  -13.0140  -28.0117 N.ar    1  UNL1       -0.0734
      8 O           6.5609  -14.1677  -27.3752 O.2     1  UNL1       -0.3592
      9 C           5.7191  -15.1916  -27.6486 C.ar    1  UNL1        0.1350
     10 C           5.9996  -16.5834  -27.1535 C.3     1  UNL1       -0.0037
     11 C           4.6532  -14.8203  -28.3905 C.ar    1  UNL1        0.0125
     12 C           4.5060   -9.8638  -31.9128 C.2     1  UNL1       -0.0752
     13 C           4.3573   -8.5085  -31.7559 C.2     1  UNL1        0.0144
     14 C           3.2994   -7.7623  -31.0050 C.2     1  UNL1        0.0729
     15 O           2.6759   -6.9022  -31.5993 O.co2   1  UNL1       -0.5446
     16 O           3.0819   -8.0662  -29.8470 O.co2   1  UNL1       -0.5446
     17 C           5.4154   -8.0008  -32.5979 C.2     1  UNL1        0.0709
     18 N           6.0353   -8.9719  -33.2624 N.2     1  UNL1       -0.3024
     19 O           5.4703  -10.1982  -32.8064 O.co2   1  UNL1       -0.7128
     20 C           5.8120   -6.5791  -32.6256 C.ar    1  UNL1        0.0183
     21 C           5.4581   -5.6583  -31.6157 C.ar    1  UNL1       -0.0497
     22 C           5.9337   -4.3409  -31.6920 C.ar    1  UNL1       -0.0430
     23 C           6.7737   -3.9857  -32.7589 C.ar    1  UNL1        0.0276
     24 N           7.1619   -4.8638  -33.7031 N.ar    1  UNL1       -0.2626
     25 C           6.7024   -6.1293  -33.6246 C.ar    1  UNL1        0.0367
     26 H           2.3607  -12.5821  -31.9552 H       1  UNL1        0.0250
     27 H           3.6361  -12.2289  -33.0961 H       1  UNL1        0.0250
     28 H           2.2680  -11.1513  -32.9538 H       1  UNL1        0.0250
     29 H           2.9386  -10.5242  -30.7151 H       1  UNL1        0.0535
     30 H           5.4208  -12.0241  -30.7029 H       1  UNL1        0.1496
     31 H           6.9107  -16.5855  -26.5925 H       1  UNL1        0.0309
     32 H           6.0930  -17.2467  -27.9879 H       1  UNL1        0.0309
     33 H           5.1947  -16.9085  -26.5279 H       1  UNL1        0.0309
     34 H           3.8760  -15.4108  -28.7255 H       1  UNL1        0.0676
     35 H           4.8562   -5.9511  -30.8303 H       1  UNL1        0.0625
     36 H           5.6708   -3.6453  -30.9764 H       1  UNL1        0.0633
     37 H           7.1076   -3.0113  -32.8225 H       1  UNL1        0.0829
     38 H           7.0196   -6.8073  -34.3351 H       1  UNL1        0.0836
@<TRIPOS>BOND
     1     1     2    1
     2     2     3    1
     3     3     4   am
     4     4     5    2
     5     4     6    1
     6     6     7   ar
     7     7     8   ar
     8     8     9   ar
     9     9    10    1
    10     9    11   ar
    11     6    11   ar
    12     2    12    1
    13    12    13    2
    14    13    14    1
    15    14    15   ar
    16    14    16   ar
    17    13    17    1
    18    17    18    2
    19    18    19    1
    20    12    19    1
    21    17    20    1
    22    20    21   ar
    23    21    22   ar
    24    22    23   ar
    25    23    24   ar
    26    24    25   ar
    27    20    25   ar
    28     1    26    1
    29     1    27    1
    30     1    28    1
    31     2    29    1
    32     3    30    1
    33    10    31    1
    34    10    32    1
    35    10    33    1
    36    11    34    1
    37    21    35    1
    38    22    36    1
    39    23    37    1
    40    25    38    1
@<TRIPOS>SUBSTRUCTURE
     1 UNL1        1 TEMP              0 ****  ****    0 ROOT


