##########                                Name: HTS1710-02659608-01
##########                    Molecular_Weight:              252.31
##########                DOCK_Rotatable_Bonds:                   9
##########                       Formal_Charge:                  -2
##########                     HBond_Acceptors:                   4
##########                        HBond_Donors:                   0
##########                         Heavy_Atoms:                  18
##########                          Grid_Score:          -79.444351
##########                     Grid_vdw_energy:          -36.012154
##########                      Grid_es_energy:          -43.432198
##########           Internal_energy_repulsive:           12.010309

@<TRIPOS>MOLECULE
HTS1710-02659608-01
 38 37 1 0 0
SMALL
USER_CHARGES


@<TRIPOS>ATOM
      1 C           4.2330  -11.3947  -29.7958 C.2     1  UNL1       -0.0275
      2 C           4.7730   -9.9626  -32.4546 C.2     1  UNL1       -0.0275
      3 C           4.3570  -10.0487  -29.9827 C.2     1  UNL1       -0.1130
      4 C           4.9200   -9.4249  -31.2049 C.2     1  UNL1       -0.1130
      5 C           5.2543   -9.5017  -33.8025 C.2     1  UNL1        0.1558
      6 C           3.6786  -12.1087  -28.5991 C.2     1  UNL1        0.1558
      7 O           6.0739   -8.6007  -33.8714 O.2     1  UNL1       -0.2927
      8 O           3.0448  -11.5449  -27.7230 O.2     1  UNL1       -0.2927
      9 O           3.9514   -9.1923  -29.0144 O.co2   1  UNL1       -0.8739
     10 O           5.5934   -8.2681  -31.0048 O.co2   1  UNL1       -0.8739
     11 C           4.7051  -10.1883  -35.0722 C.3     1  UNL1        0.0122
     12 C           3.9690  -13.6135  -28.5258 C.3     1  UNL1        0.0122
     13 C           2.7448  -14.4846  -28.9226 C.3     1  UNL1       -0.0397
     14 C           3.2469  -10.7249  -34.9448 C.3     1  UNL1       -0.0397
     15 C           2.0715  -13.9671  -30.2185 C.3     1  UNL1       -0.0623
     16 C           2.7744  -11.4267  -36.2453 C.3     1  UNL1       -0.0623
     17 C           2.2742   -9.5785  -34.5742 C.3     1  UNL1       -0.0623
     18 C           1.7214  -14.5462  -27.7639 C.3     1  UNL1       -0.0623
     19 H           4.5597  -11.9929  -30.5707 H       1  UNL1        0.0646
     20 H           4.2350  -10.8431  -32.4758 H       1  UNL1        0.0646
     21 H           5.3443  -11.0135  -35.3077 H       1  UNL1        0.0347
     22 H           4.6854   -9.4391  -35.8359 H       1  UNL1        0.0347
     23 H           4.2519  -13.8584  -27.5233 H       1  UNL1        0.0347
     24 H           4.7530  -13.8240  -29.2229 H       1  UNL1        0.0347
     25 H           3.1018  -15.4744  -29.1170 H       1  UNL1        0.0300
     26 H           3.2439  -11.4531  -34.1608 H       1  UNL1        0.0300
     27 H           1.7023  -12.9759  -30.0572 H       1  UNL1        0.0232
     28 H           1.2589  -14.6122  -30.4803 H       1  UNL1        0.0232
     29 H           2.7883  -13.9560  -31.0129 H       1  UNL1        0.0232
     30 H           2.7673  -10.7207  -37.0492 H       1  UNL1        0.0232
     31 H           1.7875  -11.8148  -36.1027 H       1  UNL1        0.0232
     32 H           3.4425  -12.2287  -36.4809 H       1  UNL1        0.0232
     33 H           2.2722   -8.8462  -35.3543 H       1  UNL1        0.0232
     34 H           2.5911   -9.1236  -33.6590 H       1  UNL1        0.0232
     35 H           1.2871   -9.9733  -34.4531 H       1  UNL1        0.0232
     36 H           1.3556  -13.5619  -27.5585 H       1  UNL1        0.0232
     37 H           2.1960  -14.9400  -26.8895 H       1  UNL1        0.0232
     38 H           0.9049  -15.1793  -28.0424 H       1  UNL1        0.0232
@<TRIPOS>BOND
     1     1     3    2
     2     1     6    1
     3     2     4    2
     4     2     5    1
     5     3     4    1
     6     3     9    1
     7     4    10    1
     8     5     7    2
     9     5    11    1
    10     6     8    2
    11     6    12    1
    12    11    14    1
    13    12    13    1
    14    13    15    1
    15    13    18    1
    16    14    16    1
    17    14    17    1
    18     1    19    1
    19     2    20    1
    20    11    21    1
    21    11    22    1
    22    12    23    1
    23    12    24    1
    24    13    25    1
    25    14    26    1
    26    15    27    1
    27    15    28    1
    28    15    29    1
    29    16    30    1
    30    16    31    1
    31    16    32    1
    32    17    33    1
    33    17    34    1
    34    17    35    1
    35    18    36    1
    36    18    37    1
    37    18    38    1
@<TRIPOS>SUBSTRUCTURE
     1 UNL1        1 TEMP              0 ****  ****    0 ROOT


