##########                                Name: HTS1710-00523553-01
##########                    Molecular_Weight:             368.299
##########                DOCK_Rotatable_Bonds:                   7
##########                       Formal_Charge:                  -2
##########                     HBond_Acceptors:                   8
##########                        HBond_Donors:                   0
##########                         Heavy_Atoms:                  27
##########                          Grid_Score:          -80.203827
##########                     Grid_vdw_energy:          -45.696491
##########                      Grid_es_energy:          -34.507332
##########           Internal_energy_repulsive:            6.667568

@<TRIPOS>MOLECULE
HTS1710-00523553-01
 39 41 1 0 0
SMALL
USER_CHARGES


@<TRIPOS>ATOM
      1 C           1.8104  -12.8369  -32.1302 C.ar    1  UNL1        0.0671
      2 C           1.2280  -12.6179  -33.4812 C.ar    1  UNL1        0.0031
      3 C           1.6061  -14.0804  -31.4886 C.ar    1  UNL1        0.1466
      4 C           2.4950  -11.8209  -31.4077 C.ar    1  UNL1        0.1357
      5 C           1.4919  -11.5494  -34.4734 C.ar    1  UNL1       -0.0169
      6 C           0.4148  -13.6370  -33.9527 C.ar    1  UNL1        0.0314
      7 C           2.1565  -14.3500  -30.2278 C.ar    1  UNL1        0.0234
      8 O           0.8303  -15.0525  -32.0699 O.2     1  UNL1       -0.4219
      9 C           3.0584  -12.1057  -30.1412 C.ar    1  UNL1        0.0227
     10 O           2.5370  -10.5343  -31.9157 O.3     1  UNL1       -0.4854
     11 C           2.4828  -11.7215  -35.4648 C.ar    1  UNL1       -0.0540
     12 C           0.7225  -10.3641  -34.4963 C.ar    1  UNL1       -0.0540
     13 C           0.1706  -14.9070  -33.2495 C.ar    1  UNL1        0.3378
     14 C           2.9051  -13.3780  -29.5589 C.ar    1  UNL1        0.1280
     15 C           2.9530   -9.3680  -31.1719 C.3     1  UNL1        0.1287
     16 C           2.7242  -10.7262  -36.4240 C.ar    1  UNL1       -0.0612
     17 C           0.9642   -9.3682  -35.4563 C.ar    1  UNL1       -0.0612
     18 O          -0.5502  -15.7803  -33.6990 O.2     1  UNL1       -0.2452
     19 O           3.4317  -13.6975  -28.3197 O.3     1  UNL1       -0.4860
     20 C           4.4742   -9.1541  -31.2457 C.2     1  UNL1        0.0789
     21 C           1.9678   -9.5455  -36.4185 C.ar    1  UNL1       -0.0617
     22 C           4.4954  -14.6559  -28.1261 C.3     1  UNL1        0.1286
     23 O           5.1407   -9.4296  -30.2616 O.co2   1  UNL1       -0.5463
     24 O           4.9197   -8.7634  -32.3098 O.co2   1  UNL1       -0.5463
     25 C           5.8409  -13.9693  -27.8307 C.2     1  UNL1        0.0789
     26 O           5.8823  -12.7511  -27.8627 O.co2   1  UNL1       -0.5463
     27 O           6.7718  -14.6980  -27.5374 O.co2   1  UNL1       -0.5463
     28 H          -0.0528  -13.4952  -34.8617 H       1  UNL1        0.0695
     29 H           2.0077  -15.2729  -29.7905 H       1  UNL1        0.0691
     30 H           3.5864  -11.3742  -29.6401 H       1  UNL1        0.0691
     31 H           3.0373  -12.5917  -35.4840 H       1  UNL1        0.0624
     32 H          -0.0261  -10.2288  -33.7989 H       1  UNL1        0.0624
     33 H           2.6703   -9.4920  -30.1473 H       1  UNL1        0.0760
     34 H           2.4762   -8.5123  -31.6024 H       1  UNL1        0.0760
     35 H           3.4598  -10.8634  -37.1349 H       1  UNL1        0.0618
     36 H           0.4012   -8.5033  -35.4535 H       1  UNL1        0.0618
     37 H           2.1493   -8.8104  -37.1197 H       1  UNL1        0.0618
     38 H           4.5955  -15.2454  -29.0134 H       1  UNL1        0.0760
     39 H           4.2428  -15.2656  -27.2838 H       1  UNL1        0.0760
@<TRIPOS>BOND
     1     1     2   ar
     2     1     3   ar
     3     1     4   ar
     4     2     5    1
     5     2     6   ar
     6     3     7   ar
     7     3     8   ar
     8     4     9   ar
     9     4    10    1
    10     5    11   ar
    11     5    12   ar
    12     6    13   ar
    13     7    14   ar
    14    10    15    1
    15    11    16   ar
    16    12    17   ar
    17    13    18    2
    18    14    19    1
    19    15    20    1
    20    16    21   ar
    21    19    22    1
    22    20    23   ar
    23    20    24   ar
    24    22    25    1
    25    25    26   ar
    26    25    27   ar
    27     8    13   ar
    28     9    14   ar
    29    17    21   ar
    30     6    28    1
    31     7    29    1
    32     9    30    1
    33    11    31    1
    34    12    32    1
    35    15    33    1
    36    15    34    1
    37    16    35    1
    38    17    36    1
    39    21    37    1
    40    22    38    1
    41    22    39    1
@<TRIPOS>SUBSTRUCTURE
     1 UNL1        1 TEMP              0 ****  ****    0 ROOT


