##########                                Name: HTS1710-00256367-01
##########                    Molecular_Weight:             371.303
##########                DOCK_Rotatable_Bonds:                   6
##########                       Formal_Charge:                  -2
##########                     HBond_Acceptors:                   9
##########                        HBond_Donors:                   1
##########                         Heavy_Atoms:                  27
##########                          Grid_Score:          -75.081314
##########                     Grid_vdw_energy:          -38.667660
##########                      Grid_es_energy:          -36.413651
##########           Internal_energy_repulsive:           15.226283

@<TRIPOS>MOLECULE
HTS1710-00256367-01
 40 42 1 0 0
SMALL
USER_CHARGES


@<TRIPOS>ATOM
      1 C           1.2555   -9.8775  -34.8150 C.ar    1  UNL1        0.1125
      2 C           1.4631  -10.8999  -33.7582 C.2     1  UNL1        0.3452
      3 O           2.3569  -11.8232  -34.2437 O.3     1  UNL1       -0.4349
      4 C           2.8312  -11.4660  -35.5736 C.3     1  UNL1        0.1957
      5 C           2.0373  -10.2183  -35.8906 C.ar    1  UNL1        0.0290
      6 C           0.4359   -8.7364  -34.8153 C.ar    1  UNL1        0.1759
      7 N           4.2764  -11.1674  -35.5778 N.pl3   1  UNL1       -0.3056
      8 C           5.1450   -9.3032  -32.4882 C.ar    1  UNL1       -0.0003
      9 C           5.9672   -8.0777  -34.4568 C.ar    1  UNL1       -0.0003
     10 C           6.6637   -6.8776  -35.0618 C.2     1  UNL1        0.0717
     11 C           4.9844   -9.4207  -30.9877 C.2     1  UNL1        0.0717
     12 C           4.7875  -10.2005  -34.7354 C.ar    1  UNL1        0.0312
     13 C           5.8050   -8.1915  -33.0589 C.ar    1  UNL1       -0.0439
     14 C           2.0537   -9.4444  -37.0526 C.ar    1  UNL1       -0.0490
     15 O           0.9378  -10.9320  -32.6592 O.2     1  UNL1       -0.2447
     16 C           5.4618   -9.0989  -35.2856 C.ar    1  UNL1       -0.0319
     17 C           4.6365  -10.3037  -33.3418 C.ar    1  UNL1       -0.0319
     18 C           0.4356   -7.9213  -35.9897 C.ar    1  UNL1        0.1623
     19 O           7.4010   -6.2289  -34.3395 O.co2   1  UNL1       -0.5446
     20 O           5.5103   -8.5655  -30.2952 O.co2   1  UNL1       -0.5446
     21 C           1.2478   -8.2916  -37.0974 C.ar    1  UNL1       -0.0158
     22 O          -0.3126   -8.4837  -33.6741 O.3     1  UNL1       -0.4906
     23 O           6.4438   -6.6321  -36.2358 O.co2   1  UNL1       -0.5446
     24 O           4.3380  -10.3626  -30.5611 O.co2   1  UNL1       -0.5446
     25 O          -0.3468   -6.7805  -36.0511 O.3     1  UNL1       -0.4914
     26 C          -1.5488   -7.7515  -33.6140 C.3     1  UNL1        0.0790
     27 C          -0.4687   -5.9543  -37.2228 C.3     1  UNL1        0.0790
     28 H           2.7009  -12.2570  -36.2824 H       1  UNL1        0.1006
     29 H           4.8775  -11.6589  -36.1829 H       1  UNL1        0.1498
     30 H           6.1748   -7.4502  -32.4434 H       1  UNL1        0.0630
     31 H           2.6416   -9.7108  -37.8578 H       1  UNL1        0.0623
     32 H           5.5887   -9.0365  -36.3078 H       1  UNL1        0.0642
     33 H           4.1490  -11.1195  -32.9394 H       1  UNL1        0.0642
     34 H           1.2460   -7.7058  -37.9470 H       1  UNL1        0.0655
     35 H          -1.8948   -7.7182  -32.6020 H       1  UNL1        0.0660
     36 H          -2.2807   -8.2366  -34.2254 H       1  UNL1        0.0660
     37 H          -1.3907   -6.7548  -33.9698 H       1  UNL1        0.0660
     38 H          -1.1279   -5.1372  -37.0160 H       1  UNL1        0.0660
     39 H          -0.8634   -6.5357  -38.0297 H       1  UNL1        0.0660
     40 H           0.4946   -5.5756  -37.4939 H       1  UNL1        0.0660
@<TRIPOS>BOND
     1     1     2    1
     2     2     3    1
     3     4     5    1
     4     1     5   ar
     5     1     6   ar
     6     4     7    1
     7     8    17   ar
     8     9    16   ar
     9     9    10    1
    10     8    11    1
    11     7    12    1
    12     8    13   ar
    13     5    14   ar
    14     2    15    2
    15    12    16   ar
    16    12    17   ar
    17     6    18   ar
    18    10    19   ar
    19    11    20   ar
    20    18    21   ar
    21     6    22    1
    22    10    23   ar
    23    11    24   ar
    24    18    25    1
    25    22    26    1
    26    25    27    1
    27     3     4    1
    28    14    21   ar
    29     9    13   ar
    30     4    28    1
    31     7    29    1
    32    13    30    1
    33    14    31    1
    34    16    32    1
    35    17    33    1
    36    21    34    1
    37    26    35    1
    38    26    36    1
    39    26    37    1
    40    27    38    1
    41    27    39    1
    42    27    40    1
@<TRIPOS>SUBSTRUCTURE
     1 UNL1        1 TEMP              0 ****  ****    0 ROOT


