##########                                Name: HTS1710-04723694-01
##########                    Molecular_Weight:             364.314
##########                DOCK_Rotatable_Bonds:                   9
##########                       Formal_Charge:                  -2
##########                     HBond_Acceptors:                   8
##########                        HBond_Donors:                   1
##########                         Heavy_Atoms:                  27
##########                          Grid_Score:          -76.693970
##########                     Grid_vdw_energy:          -41.897575
##########                      Grid_es_energy:          -34.796394
##########           Internal_energy_repulsive:            5.285203

@<TRIPOS>MOLECULE
HTS1710-04723694-01
 39 40 1 0 0
SMALL
USER_CHARGES


@<TRIPOS>ATOM
      1 O           5.9682   -8.2549  -31.1771 O.co2   1  UNL1       -0.5463
      2 C           4.7842   -8.5347  -31.2327 C.2     1  UNL1        0.0789
      3 O           4.0039   -8.1272  -32.0770 O.co2   1  UNL1       -0.5463
      4 C           4.2579   -9.4953  -30.1515 C.3     1  UNL1        0.1287
      5 O           4.2421  -10.8726  -30.5907 O.3     1  UNL1       -0.4856
      6 C           3.6270  -11.9078  -29.9038 C.ar    1  UNL1        0.1282
      7 C           3.1432  -11.7288  -28.5883 C.ar    1  UNL1       -0.0193
      8 C           2.5112  -12.7834  -27.9160 C.ar    1  UNL1       -0.0583
      9 C           2.3723  -14.0263  -28.5441 C.ar    1  UNL1       -0.0610
     10 C           2.8482  -14.2126  -29.8498 C.ar    1  UNL1       -0.0511
     11 C           3.4520  -13.1528  -30.5605 C.ar    1  UNL1        0.0181
     12 C           3.9913  -13.3499  -31.9446 C.2     1  UNL1       -0.0286
     13 C           3.5587  -12.9066  -33.1649 C.2     1  UNL1        0.1143
     14 C           4.4503  -13.2668  -34.2315 C.1     1  UNL1        0.1044
     15 N           5.1482  -13.5331  -35.1158 N.1     1  UNL1       -0.1907
     16 C           2.3692  -12.0544  -33.5233 C.2     1  UNL1        0.2586
     17 O           1.2270  -12.4636  -33.4164 O.2     1  UNL1       -0.2691
     18 N           2.6054  -10.7582  -33.9854 N.am    1  UNL1       -0.2804
     19 C           1.6566   -9.8090  -34.3694 C.ar    1  UNL1        0.0426
     20 C           0.7497   -9.2209  -33.4561 C.ar    1  UNL1       -0.0398
     21 C          -0.1908   -8.2747  -33.8892 C.ar    1  UNL1       -0.0600
     22 C          -0.2325   -7.8897  -35.2343 C.ar    1  UNL1       -0.0610
     23 C           0.6805   -8.4385  -36.1441 C.ar    1  UNL1       -0.0511
     24 C           1.6370   -9.3843  -35.7233 C.ar    1  UNL1        0.0185
     25 C           2.5989   -9.9339  -36.7476 C.2     1  UNL1        0.0734
     26 O           2.5764  -11.1336  -36.9611 O.co2   1  UNL1       -0.5446
     27 O           3.3475   -9.1358  -37.2838 O.co2   1  UNL1       -0.5446
     28 H           3.2604   -9.2067  -29.8930 H       1  UNL1        0.0760
     29 H           4.9179   -9.4307  -29.3118 H       1  UNL1        0.0760
     30 H           3.2561  -10.8162  -28.1200 H       1  UNL1        0.0654
     31 H           2.1489  -12.6439  -26.9599 H       1  UNL1        0.0619
     32 H           1.9186  -14.8075  -28.0451 H       1  UNL1        0.0618
     33 H           2.7557  -15.1377  -30.2977 H       1  UNL1        0.0625
     34 H           4.8465  -13.9262  -31.9851 H       1  UNL1        0.0639
     35 H           3.5484  -10.4823  -34.0475 H       1  UNL1        0.1552
     36 H           0.7806   -9.4910  -32.4605 H       1  UNL1        0.0636
     37 H          -0.8535   -7.8615  -33.2147 H       1  UNL1        0.0618
     38 H          -0.9338   -7.2037  -35.5548 H       1  UNL1        0.0618
     39 H           0.6525   -8.1468  -37.1336 H       1  UNL1        0.0625
@<TRIPOS>BOND
     1     1     2   ar
     2     2     3   ar
     3     2     4    1
     4     4     5    1
     5     5     6    1
     6     6     7   ar
     7     7     8   ar
     8     8     9   ar
     9     9    10   ar
    10    10    11   ar
    11     6    11   ar
    12    11    12    1
    13    12    13    2
    14    13    14    1
    15    14    15    3
    16    13    16    1
    17    16    17    2
    18    16    18   am
    19    18    19    1
    20    19    20   ar
    21    20    21   ar
    22    21    22   ar
    23    22    23   ar
    24    23    24   ar
    25    19    24   ar
    26    24    25    1
    27    25    26   ar
    28    25    27   ar
    29     4    28    1
    30     4    29    1
    31     7    30    1
    32     8    31    1
    33     9    32    1
    34    10    33    1
    35    12    34    1
    36    18    35    1
    37    20    36    1
    38    21    37    1
    39    22    38    1
    40    23    39    1
@<TRIPOS>SUBSTRUCTURE
     1 UNL1        1 TEMP              0 ****  ****    0 ROOT


