##########                                Name: HTS1710-01225757-01
##########                    Molecular_Weight:             314.338
##########                DOCK_Rotatable_Bonds:                  15
##########                       Formal_Charge:                  -2
##########                     HBond_Acceptors:                   8
##########                        HBond_Donors:                   2
##########                         Heavy_Atoms:                  22
##########                          Grid_Score:          -82.314545
##########                     Grid_vdw_energy:          -43.692989
##########                      Grid_es_energy:          -38.621552
##########           Internal_energy_repulsive:            8.569951

@<TRIPOS>MOLECULE
HTS1710-01225757-01
 44 43 1 0 0
SMALL
USER_CHARGES


@<TRIPOS>ATOM
      1 C           2.0882  -11.3000  -35.4818 C.2     1  UNL1        0.2130
      2 C           1.9337  -14.3853  -30.4539 C.2     1  UNL1        0.2130
      3 C           6.0766   -8.1316  -33.7274 C.2     1  UNL1        0.0418
      4 C           3.6511   -9.3686  -29.2820 C.2     1  UNL1        0.0418
      5 O           1.7236  -10.4547  -36.2830 O.2     1  UNL1       -0.2758
      6 O           1.1957  -14.5532  -29.4973 O.2     1  UNL1       -0.2758
      7 O           6.3307   -7.3398  -34.6181 O.co2   1  UNL1       -0.5498
      8 O           4.6391   -9.0827  -29.9366 O.co2   1  UNL1       -0.5498
      9 N           3.1832  -13.8045  -30.2795 N.am    1  UNL1       -0.3153
     10 N           3.4383  -11.5799  -35.3264 N.am    1  UNL1       -0.3153
     11 O           6.2317   -7.9285  -32.5359 O.co2   1  UNL1       -0.5498
     12 O           3.0524   -8.6099  -28.5403 O.co2   1  UNL1       -0.5498
     13 C           1.5291  -14.8441  -31.8615 C.3     1  UNL1        0.0240
     14 C           1.0860  -12.0835  -34.6263 C.3     1  UNL1        0.0240
     15 C           3.1395  -10.8116  -29.3758 C.3     1  UNL1       -0.0118
     16 C           5.5188   -9.5039  -34.1389 C.3     1  UNL1       -0.0118
     17 C           4.4944  -10.8997  -36.0855 C.3     1  UNL1        0.0119
     18 C           3.6804  -13.3272  -28.9812 C.3     1  UNL1        0.0119
     19 C           4.7724   -9.4918  -35.5009 C.3     1  UNL1       -0.0323
     20 C           4.2252  -11.8809  -29.0759 C.3     1  UNL1       -0.0323
     21 C           1.7409  -12.7667  -33.4014 C.3     1  UNL1       -0.0444
     22 C           0.7879  -13.7566  -32.6810 C.3     1  UNL1       -0.0444
     23 H           3.7665  -13.7075  -31.0667 H       1  UNL1        0.1487
     24 H           3.7010  -12.2693  -34.6744 H       1  UNL1        0.1487
     25 H           0.8859  -15.6941  -31.7682 H       1  UNL1        0.0358
     26 H           2.4321  -15.0722  -32.3883 H       1  UNL1        0.0358
     27 H           0.6335  -12.8375  -35.2359 H       1  UNL1        0.0358
     28 H           0.3660  -11.3842  -34.2558 H       1  UNL1        0.0358
     29 H           2.7694  -10.9749  -30.3665 H       1  UNL1        0.0325
     30 H           2.3785  -10.9221  -28.6318 H       1  UNL1        0.0325
     31 H           4.8364   -9.8317  -33.3827 H       1  UNL1        0.0325
     32 H           6.3557  -10.1619  -34.2468 H       1  UNL1        0.0325
     33 H           4.1857  -10.8014  -37.1053 H       1  UNL1        0.0462
     34 H           5.3908  -11.4805  -36.0221 H       1  UNL1        0.0462
     35 H           4.4668  -13.9736  -28.6516 H       1  UNL1        0.0462
     36 H           2.8651  -13.3329  -28.2882 H       1  UNL1        0.0462
     37 H           5.3671   -8.9477  -36.2046 H       1  UNL1        0.0284
     38 H           3.8194   -9.0382  -35.3252 H       1  UNL1        0.0284
     39 H           4.6899  -11.6353  -28.1438 H       1  UNL1        0.0284
     40 H           4.9107  -11.8629  -29.8973 H       1  UNL1        0.0284
     41 H           2.0362  -12.0095  -32.7054 H       1  UNL1        0.0270
     42 H           2.5788  -13.3291  -33.7572 H       1  UNL1        0.0270
     43 H           0.1612  -13.2000  -32.0159 H       1  UNL1        0.0270
     44 H           0.2275  -14.2619  -33.4396 H       1  UNL1        0.0270
@<TRIPOS>BOND
     1     2    13    1
     2     3    16    1
     3     4    15    1
     4     1     5    2
     5     2     6    2
     6     3     7   ar
     7     4     8   ar
     8     2     9   am
     9     1    10   am
    10     3    11   ar
    11     4    12   ar
    12    13    22    1
    13     1    14    1
    14    15    20    1
    15    16    19    1
    16    10    17    1
    17     9    18    1
    18    17    19    1
    19    18    20    1
    20    14    21    1
    21    21    22    1
    22     9    23    1
    23    10    24    1
    24    13    25    1
    25    13    26    1
    26    14    27    1
    27    14    28    1
    28    15    29    1
    29    15    30    1
    30    16    31    1
    31    16    32    1
    32    17    33    1
    33    17    34    1
    34    18    35    1
    35    18    36    1
    36    19    37    1
    37    19    38    1
    38    20    39    1
    39    20    40    1
    40    21    41    1
    41    21    42    1
    42    22    43    1
    43    22    44    1
@<TRIPOS>SUBSTRUCTURE
     1 UNL1        1 TEMP              0 ****  ****    0 ROOT


