HTS1710-00779282-01
 OpenBabel03232612353D

 40 41  0  0  0  0  0  0  0  0999 V2000
    2.3596  -11.8010  -32.7557 N   0  0  0  0  0  0  0  0  0  0  0  0
    2.1647  -13.0561  -32.1442 C   0  0  0  0  0  0  0  0  0  0  0  0
    1.2997  -13.7725  -32.9364 C   0  0  0  0  0  0  0  0  0  0  0  0
    1.5774  -11.7617  -33.9182 C   0  0  0  0  0  0  0  0  0  0  0  0
    0.9357  -12.9677  -34.0323 C   0  0  0  0  0  0  0  0  0  0  0  0
    3.3044  -10.7307  -32.3710 C   0  0  0  0  0  0  0  0  0  0  0  0
    3.0018  -10.1055  -30.9900 C   0  0  0  0  0  0  0  0  0  0  0  0
    2.6738  -13.6580  -30.8807 C   0  0  0  0  0  0  0  0  0  0  0  0
    4.2504   -9.4557  -30.3874 C   0  0  0  0  0  0  0  0  0  0  0  0
    2.6862   -9.4744  -36.8347 C   0  0  0  0  0  0  0  0  0  0  0  0
    1.4689  -10.6114  -34.9026 C   0  0  0  0  0  0  0  0  0  0  0  0
    5.1467   -9.1508  -31.1548 O   0  5  0  0  0  0  0  0  0  0  0  0
    1.8143   -8.7825  -37.3309 O   0  5  0  0  0  0  0  0  0  0  0  0
    4.0522  -13.6725  -30.5680 C   0  0  0  0  0  0  0  0  0  0  0  0
    1.7869  -14.2315  -29.9364 C   0  0  0  0  0  0  0  0  0  0  0  0
    2.2572  -10.8122  -36.2212 C   0  0  0  0  0  0  0  0  0  0  0  0
    3.6329  -14.7980  -28.4491 C   0  0  0  0  0  0  0  0  0  0  0  0
    4.2558   -9.2704  -29.1819 O   0  0  0  0  0  0  0  0  0  0  0  0
    3.8738   -9.2034  -36.8041 O   0  0  0  0  0  0  0  0  0  0  0  0
    4.5239  -14.2329  -29.3711 C   0  0  0  0  0  0  0  0  0  0  0  0
    2.2557  -14.7962  -28.7391 C   0  0  0  0  0  0  0  0  0  0  0  0
    4.1444  -15.3345  -27.2832 O   0  0  0  0  0  0  0  0  0  0  0  0
    5.3141  -16.1707  -27.2542 C   0  0  0  0  0  0  0  0  0  0  0  0
    0.9731  -14.7351  -32.7582 H   0  0  0  0  0  0  0  0  0  0  0  0
    0.2941  -13.2397  -34.7934 H   0  0  0  0  0  0  0  0  0  0  0  0
    3.2591   -9.9578  -33.1095 H   0  0  0  0  0  0  0  0  0  0  0  0
    4.2751  -11.1766  -32.3079 H   0  0  0  0  0  0  0  0  0  0  0  0
    2.6543  -10.8719  -30.3291 H   0  0  0  0  0  0  0  0  0  0  0  0
    2.2559   -9.3490  -31.1181 H   0  0  0  0  0  0  0  0  0  0  0  0
    1.8377   -9.7279  -34.4249 H   0  0  0  0  0  0  0  0  0  0  0  0
    0.4364  -10.5426  -35.1748 H   0  0  0  0  0  0  0  0  0  0  0  0
    4.7258  -13.2623  -31.2337 H   0  0  0  0  0  0  0  0  0  0  0  0
    0.7738  -14.2344  -30.1328 H   0  0  0  0  0  0  0  0  0  0  0  0
    3.1304  -11.3962  -36.0176 H   0  0  0  0  0  0  0  0  0  0  0  0
    1.6174  -11.3096  -36.9198 H   0  0  0  0  0  0  0  0  0  0  0  0
    5.5357  -14.2289  -29.1682 H   0  0  0  0  0  0  0  0  0  0  0  0
    1.5885  -15.2110  -28.0700 H   0  0  0  0  0  0  0  0  0  0  0  0
    5.5174  -16.4647  -26.2457 H   0  0  0  0  0  0  0  0  0  0  0  0
    6.1502  -15.6279  -27.6429 H   0  0  0  0  0  0  0  0  0  0  0  0
    5.1449  -17.0416  -27.8524 H   0  0  0  0  0  0  0  0  0  0  0  0
  1  2  1  0  0  0  0
  1  4  1  0  0  0  0
  1  6  1  0  0  0  0
  2  3  2  0  0  0  0
  2  8  1  0  0  0  0
  3  5  1  0  0  0  0
  3 24  1  0  0  0  0
  4  5  2  0  0  0  0
  4 11  1  0  0  0  0
  5 25  1  0  0  0  0
  6  7  1  0  0  0  0
  6 26  1  0  0  0  0
  6 27  1  0  0  0  0
  7  9  1  0  0  0  0
  7 28  1  0  0  0  0
  7 29  1  0  0  0  0
  8 14  2  0  0  0  0
  8 15  1  0  0  0  0
  9 12  1  0  0  0  0
  9 18  2  0  0  0  0
 10 16  1  0  0  0  0
 10 13  1  0  0  0  0
 10 19  2  0  0  0  0
 11 16  1  0  0  0  0
 11 30  1  0  0  0  0
 11 31  1  0  0  0  0
 14 20  1  0  0  0  0
 14 32  1  0  0  0  0
 15 21  2  0  0  0  0
 15 33  1  0  0  0  0
 16 34  1  0  0  0  0
 16 35  1  0  0  0  0
 17 21  1  0  0  0  0
 17 22  1  0  0  0  0
 17 20  2  0  0  0  0
 20 36  1  0  0  0  0
 21 37  1  0  0  0  0
 22 23  1  0  0  0  0
 23 38  1  0  0  0  0
 23 39  1  0  0  0  0
 23 40  1  0  0  0  0
M  CHG  2  12  -1  13  -1
M  END
$$$$
