##########                                Name: HTS1710-02196458-01
##########                    Molecular_Weight:             394.381
##########                DOCK_Rotatable_Bonds:                  16
##########                       Formal_Charge:                  -2
##########                     HBond_Acceptors:                  10
##########                        HBond_Donors:                   2
##########                         Heavy_Atoms:                  28
##########                          Grid_Score:          -81.146408
##########                     Grid_vdw_energy:          -47.855167
##########                      Grid_es_energy:          -33.291241
##########           Internal_energy_repulsive:            6.683527

@<TRIPOS>MOLECULE
HTS1710-02196458-01
 50 50 1 0 0
SMALL
USER_CHARGES


@<TRIPOS>ATOM
      1 C           3.3459  -13.5614  -32.4939 C.2     1  UNL1        0.2507
      2 C           3.4316   -9.1408  -29.9013 C.2     1  UNL1        0.2507
      3 C           4.1039   -9.4713  -36.3135 C.2     1  UNL1        0.0418
      4 C          -1.1259   -7.3256  -32.7185 C.2     1  UNL1        0.0418
      5 O           2.4011  -13.2874  -30.2516 O.3     1  UNL1       -0.4791
      6 O           4.3319  -11.3236  -29.2549 O.3     1  UNL1       -0.4791
      7 C           4.3463  -12.6667  -28.9068 C.ar    1  UNL1        0.1626
      8 C           3.4089  -13.6318  -29.3725 C.ar    1  UNL1        0.1626
      9 O           4.5148   -8.8282  -30.3686 O.2     1  UNL1       -0.2721
     10 O           4.4910  -13.9448  -32.3191 O.2     1  UNL1       -0.2721
     11 O           4.8800   -9.1454  -35.4320 O.co2   1  UNL1       -0.5498
     12 O          -1.7733   -6.5647  -32.0201 O.co2   1  UNL1       -0.5498
     13 C           2.2242  -13.9475  -31.5236 C.3     1  UNL1        0.1653
     14 C           3.2300  -10.4123  -29.0713 C.3     1  UNL1        0.1653
     15 N           3.0373  -12.7665  -33.5895 N.am    1  UNL1       -0.3125
     16 N           2.3201   -8.3421  -30.1270 N.am    1  UNL1       -0.3125
     17 O           4.1553   -9.1034  -37.4734 O.co2   1  UNL1       -0.5498
     18 O          -1.4494   -7.7185  -33.8253 O.co2   1  UNL1       -0.5498
     19 C           0.2247   -7.7997  -32.1697 C.3     1  UNL1       -0.0118
     20 C           2.9502  -10.4071  -35.9260 C.3     1  UNL1       -0.0118
     21 C           3.5248  -14.9718  -28.9460 C.ar    1  UNL1       -0.0163
     22 C           5.3579  -13.0689  -28.0162 C.ar    1  UNL1       -0.0163
     23 C           4.0374  -12.3417  -34.5765 C.3     1  UNL1        0.0120
     24 C           2.3845   -7.0993  -30.9066 C.3     1  UNL1        0.0120
     25 C           3.3497  -11.9067  -35.8951 C.3     1  UNL1       -0.0323
     26 C           0.9718   -6.6874  -31.3881 C.3     1  UNL1       -0.0323
     27 C           5.4594  -14.4029  -27.5964 C.ar    1  UNL1       -0.0581
     28 C           4.5458  -15.3552  -28.0649 C.ar    1  UNL1       -0.0581
     29 H           2.2376  -15.0070  -31.3746 H       1  UNL1        0.0795
     30 H           1.2873  -13.6437  -31.9418 H       1  UNL1        0.0795
     31 H           2.3238  -10.8913  -29.3779 H       1  UNL1        0.0795
     32 H           3.1770  -10.1421  -28.0373 H       1  UNL1        0.0795
     33 H           2.1049  -12.4744  -33.7101 H       1  UNL1        0.1488
     34 H           1.4541   -8.6193  -29.7497 H       1  UNL1        0.1488
     35 H           0.8370   -8.1137  -32.9891 H       1  UNL1        0.0325
     36 H           0.0352   -8.6038  -31.4897 H       1  UNL1        0.0325
     37 H           2.1602  -10.2821  -36.6367 H       1  UNL1        0.0325
     38 H           2.6509  -10.1416  -34.9337 H       1  UNL1        0.0325
     39 H           2.8516  -15.6764  -29.2858 H       1  UNL1        0.0655
     40 H           6.0349  -12.3726  -27.6670 H       1  UNL1        0.0655
     41 H           4.7013  -13.1563  -34.7779 H       1  UNL1        0.0462
     42 H           4.5823  -11.5104  -34.1804 H       1  UNL1        0.0462
     43 H           3.0165   -7.2494  -31.7569 H       1  UNL1        0.0462
     44 H           2.7792   -6.3218  -30.2864 H       1  UNL1        0.0462
     45 H           4.0235  -12.0934  -36.7050 H       1  UNL1        0.0284
     46 H           2.4453  -12.4726  -35.9772 H       1  UNL1        0.0284
     47 H           0.3866   -6.4267  -30.5310 H       1  UNL1        0.0284
     48 H           1.1007   -5.8668  -32.0626 H       1  UNL1        0.0284
     49 H           6.2071  -14.6827  -26.9424 H       1  UNL1        0.0619
     50 H           4.6240  -16.3386  -27.7619 H       1  UNL1        0.0619
@<TRIPOS>BOND
     1     1    10    2
     2     1    13    1
     3     1    15   am
     4     2     9    2
     5     2    14    1
     6     2    16   am
     7     3    11   ar
     8     3    17   ar
     9     3    20    1
    10     4    12   ar
    11     4    18   ar
    12     4    19    1
    13     5     8    1
    14     5    13    1
    15     6     7    1
    16     6    14    1
    17     7     8   ar
    18     7    22   ar
    19     8    21   ar
    20    15    23    1
    21    16    24    1
    22    19    26    1
    23    20    25    1
    24    21    28   ar
    25    22    27   ar
    26    23    25    1
    27    24    26    1
    28    27    28   ar
    29    13    29    1
    30    13    30    1
    31    14    31    1
    32    14    32    1
    33    15    33    1
    34    16    34    1
    35    19    35    1
    36    19    36    1
    37    20    37    1
    38    20    38    1
    39    21    39    1
    40    22    40    1
    41    23    41    1
    42    23    42    1
    43    24    43    1
    44    24    44    1
    45    25    45    1
    46    25    46    1
    47    26    47    1
    48    26    48    1
    49    27    49    1
    50    28    50    1
@<TRIPOS>SUBSTRUCTURE
     1 UNL1        1 TEMP              0 ****  ****    0 ROOT


