##########                                Name: HTS1710-01164318-01
##########                    Molecular_Weight:             330.297
##########                DOCK_Rotatable_Bonds:                   6
##########                       Formal_Charge:                  -2
##########                     HBond_Acceptors:                   8
##########                        HBond_Donors:                   3
##########                         Heavy_Atoms:                  24
##########                          Grid_Score:          -75.769714
##########                     Grid_vdw_energy:          -35.133095
##########                      Grid_es_energy:          -40.636623
##########           Internal_energy_repulsive:            6.505218

@<TRIPOS>MOLECULE
HTS1710-01164318-01
 38 40 1 0 0
SMALL
USER_CHARGES


@<TRIPOS>ATOM
      1 C           4.4642   -7.3874  -31.3274 C.2     1  UNL1       -0.0555
      2 C           4.9945   -8.3720  -32.1427 C.2     1  UNL1       -0.1090
      3 C           3.8222  -10.0450  -30.6799 C.2     1  UNL1        0.0539
      4 C           3.3803   -8.9801  -29.9493 C.2     1  UNL1       -0.0306
      5 O           3.5807   -7.6739  -30.3126 O.co2   1  UNL1       -0.7688
      6 C           4.5613   -9.8046  -32.0019 C.3     1  UNL1        0.0297
      7 C           4.8243   -5.9768  -31.5231 C.2     1  UNL1        0.1708
      8 O           5.8917   -8.1301  -33.1657 O.co2   1  UNL1       -0.7839
      9 C           5.7655   -5.7670  -32.6213 C.2     1  UNL1       -0.0241
     10 C           3.6066  -11.4949  -30.2742 C.2     1  UNL1        0.3364
     11 C           6.2522   -6.8161  -33.3710 C.2     1  UNL1       -0.0886
     12 C           3.7050  -10.2107  -33.2014 C.ar    1  UNL1       -0.0184
     13 N           2.6832   -9.1498  -28.7756 N.pl3   1  UNL1       -0.3685
     14 O           4.3860   -5.0664  -30.8420 O.2     1  UNL1       -0.2886
     15 O           2.6649  -11.9027  -29.6122 O.2     1  UNL1       -0.2453
     16 N           1.5601  -10.1207  -34.3318 N.ar    1  UNL1       -0.2630
     17 O           4.5990  -12.3176  -30.7381 O.3     1  UNL1       -0.4646
     18 C           7.2103   -6.5559  -34.5057 C.3     1  UNL1        0.0566
     19 C           2.3651   -9.7848  -33.3037 C.ar    1  UNL1        0.0316
     20 O           6.7031   -7.0466  -35.7442 O.3     1  UNL1       -0.3915
     21 C           2.0644  -10.9024  -35.3072 C.ar    1  UNL1        0.0276
     22 C           4.2201  -11.0323  -34.2222 C.ar    1  UNL1       -0.0548
     23 C           4.2555  -13.5774  -31.3426 C.3     1  UNL1        0.0820
     24 C           3.3856  -11.3803  -35.2937 C.ar    1  UNL1       -0.0433
     25 H           5.4361  -10.4204  -31.9830 H       1  UNL1        0.0437
     26 H           6.0742   -4.8071  -32.8415 H       1  UNL1        0.0647
     27 H           1.8080   -8.7153  -28.6556 H       1  UNL1        0.1413
     28 H           3.0596   -9.7057  -28.0555 H       1  UNL1        0.1413
     29 H           8.1395   -7.0424  -34.2939 H       1  UNL1        0.0596
     30 H           7.3441   -5.4981  -34.5946 H       1  UNL1        0.0596
     31 H           1.9817   -9.1868  -32.5551 H       1  UNL1        0.0832
     32 H           6.5647   -8.0045  -35.6802 H       1  UNL1        0.2098
     33 H           1.4538  -11.1611  -36.0980 H       1  UNL1        0.0829
     34 H           5.1937  -11.3720  -34.1824 H       1  UNL1        0.0621
     35 H           5.1487  -14.0836  -31.6441 H       1  UNL1        0.0661
     36 H           3.6369  -13.4053  -32.1985 H       1  UNL1        0.0661
     37 H           3.7258  -14.1800  -30.6347 H       1  UNL1        0.0661
     38 H           3.7356  -11.9772  -36.0593 H       1  UNL1        0.0633
@<TRIPOS>BOND
     1     1     2    2
     2     3     4    2
     3     4     5    1
     4     1     5    1
     5     2     6    1
     6     1     7    1
     7     2     8    1
     8     7     9    1
     9     3    10    1
    10     9    11    2
    11     6    12    1
    12     4    13    1
    13     7    14    2
    14    10    15    2
    15    16    19   ar
    16    10    17    1
    17    11    18    1
    18    12    19   ar
    19    18    20    1
    20    21    24   ar
    21    12    22   ar
    22    17    23    1
    23    22    24   ar
    24     3     6    1
    25     8    11    1
    26    16    21   ar
    27     6    25    1
    28     9    26    1
    29    13    27    1
    30    13    28    1
    31    18    29    1
    32    18    30    1
    33    19    31    1
    34    20    32    1
    35    21    33    1
    36    22    34    1
    37    23    35    1
    38    23    36    1
    39    23    37    1
    40    24    38    1
@<TRIPOS>SUBSTRUCTURE
     1 UNL1        1 TEMP              0 ****  ****    0 ROOT


