HTS1710-04760628-01
 OpenBabel03232612363D

 42 43  0  0  1  0  0  0  0  0999 V2000
    1.9296  -14.2158  -30.3304 C   0  0  0  0  0  0  0  0  0  0  0  0
    2.7706  -14.2665  -29.0283 C   0  0  2  0  0  0  0  0  0  0  0  0
    1.9018  -14.4970  -27.8919 O   0  0  0  0  0  0  0  0  0  0  0  0
    2.4927  -15.0998  -26.7192 C   0  0  0  0  0  0  0  0  0  0  0  0
    1.4022  -15.9188  -25.9967 C   0  0  1  0  0  0  0  0  0  0  0  0
    1.9345  -16.8255  -24.8658 C   0  0  0  0  0  0  0  0  0  0  0  0
    0.8405  -16.7616  -23.7829 C   0  0  0  0  0  0  0  0  0  0  0  0
   -0.2208  -15.8085  -24.3628 C   0  0  0  0  0  0  0  0  0  0  0  0
    0.5196  -15.0220  -25.3074 O   0  0  0  0  0  0  0  0  0  0  0  0
    3.6479  -13.0219  -28.8030 C   0  0  0  0  0  0  0  0  0  0  0  0
    4.8011  -13.0989  -28.4110 O   0  0  0  0  0  0  0  0  0  0  0  0
    3.0843  -11.7781  -29.0570 N   0  0  0  0  0  0  0  0  0  0  0  0
    3.8228  -10.5223  -28.8785 C   0  0  0  0  0  0  0  0  0  0  0  0
    4.1927   -9.9387  -30.2172 C   0  0  0  0  0  0  0  0  0  0  0  0
    3.7500  -10.4215  -31.4206 C   0  0  0  0  0  0  0  0  0  0  0  0
    4.3380   -9.5716  -32.3947 C   0  0  0  0  0  0  0  0  0  0  0  0
    4.1705   -9.6781  -33.8646 C   0  0  0  0  0  0  0  0  0  0  0  0
    3.2018  -10.2985  -34.2676 O   0  5  0  0  0  0  0  0  0  0  0  0
    4.9987   -9.1489  -34.5845 O   0  0  0  0  0  0  0  0  0  0  0  0
    5.0663   -8.6683  -31.6453 C   0  0  0  0  0  0  0  0  0  0  0  0
    5.8857   -7.5292  -32.1975 C   0  0  0  0  0  0  0  0  0  0  0  0
    5.0133   -8.8477  -30.2869 O   0  0  0  0  0  0  0  0  0  0  0  0
    1.3499  -15.1112  -30.4157 H   0  0  0  0  0  0  0  0  0  0  0  0
    2.5828  -14.1321  -31.1739 H   0  0  0  0  0  0  0  0  0  0  0  0
    1.2759  -13.3692  -30.3001 H   0  0  0  0  0  0  0  0  0  0  0  0
    3.4545  -15.0822  -29.1371 H   0  0  0  0  0  0  0  0  0  0  0  0
    2.8639  -14.3366  -26.0676 H   0  0  0  0  0  0  0  0  0  0  0  0
    3.3066  -15.7350  -27.0003 H   0  0  0  0  0  0  0  0  0  0  0  0
    0.9506  -16.5074  -26.7677 H   0  0  0  0  0  0  0  0  0  0  0  0
    2.8643  -16.4546  -24.4880 H   0  0  0  0  0  0  0  0  0  0  0  0
    2.1249  -17.8249  -25.1973 H   0  0  0  0  0  0  0  0  0  0  0  0
    1.2367  -16.3745  -22.8674 H   0  0  0  0  0  0  0  0  0  0  0  0
    0.4389  -17.7263  -23.5529 H   0  0  0  0  0  0  0  0  0  0  0  0
   -0.6408  -15.1913  -23.5963 H   0  0  0  0  0  0  0  0  0  0  0  0
   -1.0479  -16.3235  -24.8051 H   0  0  0  0  0  0  0  0  0  0  0  0
    2.1516  -11.7371  -29.3694 H   0  0  0  0  0  0  0  0  0  0  0  0
    4.7142  -10.7135  -28.3183 H   0  0  0  0  0  0  0  0  0  0  0  0
    3.2029   -9.8253  -28.3541 H   0  0  0  0  0  0  0  0  0  0  0  0
    3.1257  -11.2269  -31.5835 H   0  0  0  0  0  0  0  0  0  0  0  0
    5.8220   -7.5290  -33.2656 H   0  0  0  0  0  0  0  0  0  0  0  0
    6.9069   -7.6480  -31.9012 H   0  0  0  0  0  0  0  0  0  0  0  0
    5.5095   -6.6023  -31.8176 H   0  0  0  0  0  0  0  0  0  0  0  0
  1  2  1  0  0  0  0
  1 23  1  0  0  0  0
  1 24  1  0  0  0  0
  1 25  1  0  0  0  0
  2  3  1  0  0  0  0
  2 10  1  0  0  0  0
  2 26  1  6  0  0  0
  3  4  1  0  0  0  0
  4  5  1  0  0  0  0
  4 27  1  0  0  0  0
  4 28  1  0  0  0  0
  5  6  1  0  0  0  0
  5  9  1  0  0  0  0
  5 29  1  6  0  0  0
  6  7  1  0  0  0  0
  6 30  1  0  0  0  0
  6 31  1  0  0  0  0
  7  8  1  0  0  0  0
  7 32  1  0  0  0  0
  7 33  1  0  0  0  0
  8  9  1  0  0  0  0
  8 34  1  0  0  0  0
  8 35  1  0  0  0  0
 10 11  2  0  0  0  0
 10 12  1  0  0  0  0
 12 13  1  0  0  0  0
 12 36  1  0  0  0  0
 13 14  1  0  0  0  0
 13 37  1  0  0  0  0
 13 38  1  0  0  0  0
 14 15  2  0  0  0  0
 14 22  1  0  0  0  0
 15 16  1  0  0  0  0
 15 39  1  0  0  0  0
 16 17  1  0  0  0  0
 16 20  2  0  0  0  0
 17 18  1  0  0  0  0
 17 19  2  0  0  0  0
 20 21  1  0  0  0  0
 20 22  1  0  0  0  0
 21 40  1  0  0  0  0
 21 41  1  0  0  0  0
 21 42  1  0  0  0  0
M  CHG  1  18  -1
M  END
$$$$
