##########                                Name: HTS1710-00816802-01
##########                    Molecular_Weight:             335.294
##########                DOCK_Rotatable_Bonds:                   6
##########                       Formal_Charge:                  -2
##########                     HBond_Acceptors:                   9
##########                        HBond_Donors:                   2
##########                         Heavy_Atoms:                  23
##########                          Grid_Score:          -75.357239
##########                     Grid_vdw_energy:          -36.667206
##########                      Grid_es_energy:          -38.690033
##########           Internal_energy_repulsive:            8.726159

@<TRIPOS>MOLECULE
HTS1710-00816802-01
 32 33 1 0 0
SMALL
USER_CHARGES


@<TRIPOS>ATOM
      1 S           1.2866  -10.9649  -33.8602 S.O2    1  UNL1        0.0724
      2 C           2.5936  -12.6196  -29.7581 C.ar    1  UNL1        0.0405
      3 N           1.4768  -12.5615  -33.3045 N.pl3   1  UNL1       -0.2162
      4 C           2.9460  -10.2636  -33.8860 C.ar    1  UNL1        0.1091
      5 C           3.1629  -11.6503  -28.7510 C.2     1  UNL1        0.0752
      6 C           5.1030   -7.9573  -31.7086 C.2     1  UNL1        0.0717
      7 O           0.7004  -11.0542  -35.2007 O.2     1  UNL1       -0.1500
      8 O           0.5888  -10.3419  -32.7317 O.2     1  UNL1       -0.1500
      9 C           4.6614   -8.8700  -32.8319 C.ar    1  UNL1       -0.0008
     10 C           3.3594   -9.4156  -32.8427 C.ar    1  UNL1       -0.0262
     11 C           2.3264  -13.9737  -29.4427 C.ar    1  UNL1        0.1258
     12 C           2.3150  -12.1538  -31.0588 C.ar    1  UNL1       -0.0270
     13 C           1.7716  -13.0122  -32.0338 C.ar    1  UNL1        0.0489
     14 O           2.4176  -11.2811  -27.8598 O.co2   1  UNL1       -0.5445
     15 O           4.2694   -7.6408  -30.8787 O.co2   1  UNL1       -0.5446
     16 C           1.8066  -14.8341  -30.4253 C.ar    1  UNL1       -0.0177
     17 O           4.3160  -11.2858  -28.9015 O.co2   1  UNL1       -0.5445
     18 O           6.2669   -7.5936  -31.7035 O.co2   1  UNL1       -0.5446
     19 C           1.5353  -14.3579  -31.7157 C.ar    1  UNL1       -0.0358
     20 O           2.5470  -14.4701  -28.1877 O.3     1  UNL1       -0.5061
     21 C           3.8336  -10.5745  -34.9299 C.ar    1  UNL1       -0.0350
     22 C           5.5422   -9.1922  -33.8866 C.ar    1  UNL1       -0.0528
     23 C           5.1297  -10.0395  -34.9270 C.ar    1  UNL1       -0.0593
     24 H           1.3601  -13.2629  -33.9854 H       1  UNL1        0.1737
     25 H           2.7045   -9.1901  -32.0775 H       1  UNL1        0.0643
     26 H           2.5121  -11.1699  -31.3001 H       1  UNL1        0.0644
     27 H           1.6234  -15.8233  -30.1952 H       1  UNL1        0.0655
     28 H           1.1609  -14.9986  -32.4330 H       1  UNL1        0.0638
     29 H           2.9179  -15.3238  -28.0801 H       1  UNL1        0.2922
     30 H           3.5322  -11.1953  -35.6971 H       1  UNL1        0.0637
     31 H           6.4974   -8.8015  -33.8931 H       1  UNL1        0.0624
     32 H           5.7826  -10.2694  -35.6924 H       1  UNL1        0.0618
@<TRIPOS>BOND
     1     2    12   ar
     2     1     3    1
     3     1     4    1
     4     2     5    1
     5     6     9    1
     6     1     7    2
     7     1     8    2
     8     9    10   ar
     9     4    10   ar
    10    11    16   ar
    11    12    13   ar
    12     3    13    1
    13     5    14   ar
    14     6    15   ar
    15    16    19   ar
    16     5    17   ar
    17     6    18   ar
    18    13    19   ar
    19    11    20    1
    20     4    21   ar
    21    22    23   ar
    22    21    23   ar
    23     9    22   ar
    24     2    11   ar
    25     3    24    1
    26    10    25    1
    27    12    26    1
    28    16    27    1
    29    19    28    1
    30    20    29    1
    31    21    30    1
    32    22    31    1
    33    23    32    1
@<TRIPOS>SUBSTRUCTURE
     1 UNL1        1 TEMP              0 ****  ****    0 ROOT


