##########                                Name: HTS1710-01152662-01
##########                    Molecular_Weight:             432.384
##########                DOCK_Rotatable_Bonds:                  11
##########                       Formal_Charge:                  -2
##########                     HBond_Acceptors:                  10
##########                        HBond_Donors:                   4
##########                         Heavy_Atoms:                  31
##########                          Grid_Score:          -78.912018
##########                     Grid_vdw_energy:          -42.733894
##########                      Grid_es_energy:          -36.178127
##########           Internal_energy_repulsive:           13.092156

@<TRIPOS>MOLECULE
HTS1710-01152662-01
 51 53 1 0 0
SMALL
USER_CHARGES


@<TRIPOS>ATOM
      1 C           2.4697   -5.9004  -30.6449 C.2     1  UNL1       -0.0603
      2 C           2.8324   -8.3802  -31.1061 C.2     1  UNL1       -0.0603
      3 C           1.8380   -7.2316  -31.0339 C.3     1  UNL1        0.0154
      4 C           2.9186   -9.3021  -30.0735 C.2     1  UNL1        0.1535
      5 C           1.8979   -5.0267  -29.7239 C.2     1  UNL1        0.1535
      6 C           3.8923  -10.4048  -30.1042 C.2     1  UNL1        0.2184
      7 C           2.5425   -3.7503  -29.3704 C.2     1  UNL1        0.2184
      8 O           3.6613   -5.6363  -31.2935 O.co2   1  UNL1       -0.7814
      9 O           3.6372   -8.4188  -32.2279 O.co2   1  UNL1       -0.7814
     10 C           0.9486   -7.1177  -32.2830 C.ar    1  UNL1       -0.0339
     11 C           4.7266  -10.3864  -31.3051 C.2     1  UNL1       -0.0198
     12 C           3.7947   -3.5292  -30.0877 C.2     1  UNL1       -0.0198
     13 C           4.2855   -4.4456  -30.9909 C.2     1  UNL1       -0.0884
     14 C           4.5780   -9.4245  -32.2804 C.2     1  UNL1       -0.0884
     15 C           0.6854   -8.2322  -33.1034 C.ar    1  UNL1       -0.0123
     16 C          -0.1421   -8.1265  -34.2450 C.ar    1  UNL1        0.1618
     17 C           0.3758   -5.8793  -32.6192 C.ar    1  UNL1       -0.0541
     18 O           4.0073  -11.2485  -29.2304 O.2     1  UNL1       -0.2841
     19 O           2.0932   -2.9504  -28.5661 O.2     1  UNL1       -0.2841
     20 C          -0.7087   -6.8634  -34.5745 C.ar    1  UNL1        0.1615
     21 O           2.1488   -9.2772  -28.9606 O.2     1  UNL1       -0.5038
     22 O           0.7338   -5.2338  -29.0651 O.2     1  UNL1       -0.5038
     23 C          -0.4388   -5.7571  -33.7524 C.ar    1  UNL1       -0.0160
     24 O          -0.3976   -9.2406  -35.0263 O.3     1  UNL1       -0.4914
     25 O          -1.5317   -6.6268  -35.6676 O.3     1  UNL1       -0.4915
     26 C           5.4676   -9.4399  -33.4947 C.3     1  UNL1        0.0566
     27 C           5.5823   -4.1682  -31.7052 C.3     1  UNL1        0.0566
     28 O           6.0150   -8.1489  -33.7378 O.3     1  UNL1       -0.3915
     29 O           5.5995   -4.7869  -32.9877 O.3     1  UNL1       -0.3915
     30 C           0.3982  -10.4392  -35.0028 C.3     1  UNL1        0.0790
     31 C          -2.2961   -5.4328  -35.9151 C.3     1  UNL1        0.0790
     32 H           1.1841   -7.4884  -30.2268 H       1  UNL1        0.0425
     33 H           5.4476  -11.1149  -31.4256 H       1  UNL1        0.0649
     34 H           4.3267   -2.6623  -29.9133 H       1  UNL1        0.0649
     35 H           1.1053   -9.1446  -32.8662 H       1  UNL1        0.0658
     36 H           0.5566   -5.0537  -32.0270 H       1  UNL1        0.0622
     37 H           1.4484   -8.6589  -28.8891 H       1  UNL1        0.2923
     38 H           0.4953   -6.0991  -28.7961 H       1  UNL1        0.2923
     39 H          -0.8474   -4.8389  -33.9871 H       1  UNL1        0.0655
     40 H           4.8943   -9.7435  -34.3456 H       1  UNL1        0.0596
     41 H           6.2708  -10.1255  -33.3221 H       1  UNL1        0.0596
     42 H           6.3927   -4.5510  -31.1208 H       1  UNL1        0.0596
     43 H           5.6812   -3.1106  -31.8349 H       1  UNL1        0.0596
     44 H           6.7054   -8.2130  -34.4162 H       1  UNL1        0.2098
     45 H           6.4688   -4.6566  -33.3979 H       1  UNL1        0.2098
     46 H          -0.0053  -11.1488  -35.6947 H       1  UNL1        0.0660
     47 H           0.3866  -10.8558  -34.0173 H       1  UNL1        0.0660
     48 H           1.4049  -10.2045  -35.2790 H       1  UNL1        0.0660
     49 H          -2.8340   -5.5377  -36.8341 H       1  UNL1        0.0660
     50 H          -1.6355   -4.5939  -35.9822 H       1  UNL1        0.0660
     51 H          -2.9873   -5.2792  -35.1128 H       1  UNL1        0.0660
@<TRIPOS>BOND
     1     2     3    1
     2     1     3    1
     3     2     4    2
     4     1     5    2
     5     4     6    1
     6     5     7    1
     7     1     8    1
     8     2     9    1
     9     3    10    1
    10    11    14    2
    11    12    13    2
    12     8    13    1
    13     9    14    1
    14    10    15   ar
    15    15    16   ar
    16    10    17   ar
    17     6    18    2
    18     7    19    2
    19    20    23   ar
    20     4    21    1
    21     5    22    1
    22    17    23   ar
    23    16    24    1
    24    20    25    1
    25    14    26    1
    26    13    27    1
    27    26    28    1
    28    27    29    1
    29    24    30    1
    30    25    31    1
    31     7    12    1
    32    16    20   ar
    33     6    11    1
    34     3    32    1
    35    11    33    1
    36    12    34    1
    37    15    35    1
    38    17    36    1
    39    21    37    1
    40    22    38    1
    41    23    39    1
    42    26    40    1
    43    26    41    1
    44    27    42    1
    45    27    43    1
    46    28    44    1
    47    29    45    1
    48    30    46    1
    49    30    47    1
    50    30    48    1
    51    31    49    1
    52    31    50    1
    53    31    51    1
@<TRIPOS>SUBSTRUCTURE
     1 UNL1        1 TEMP              0 ****  ****    0 ROOT


