##########                                Name: HTS1710-00507221-01
##########                    Molecular_Weight:             308.331
##########                DOCK_Rotatable_Bonds:                  11
##########                       Formal_Charge:                  -2
##########                     HBond_Acceptors:                   6
##########                        HBond_Donors:                   0
##########                         Heavy_Atoms:                  22
##########                          Grid_Score:          -75.714294
##########                     Grid_vdw_energy:          -41.491589
##########                      Grid_es_energy:          -34.222706
##########           Internal_energy_repulsive:            7.806728

@<TRIPOS>MOLECULE
HTS1710-00507221-01
 42 42 1 0 0
SMALL
USER_CHARGES


@<TRIPOS>ATOM
      1 C           4.6018  -10.7430  -32.1471 C.ar    1  UNL1        0.1277
      2 C           4.1659  -12.0650  -31.9059 C.ar    1  UNL1       -0.0055
      3 C           4.4749  -10.1889  -33.4398 C.ar    1  UNL1        0.0221
      4 O           5.1567  -10.0234  -31.1044 O.3     1  UNL1       -0.4858
      5 C           3.6209  -12.8164  -32.9631 C.ar    1  UNL1       -0.0517
      6 C           4.2725  -12.7044  -30.5190 C.3     1  UNL1       -0.0242
      7 C           3.9274  -10.9443  -34.4890 C.ar    1  UNL1        0.1245
      8 C           4.6882   -8.7229  -30.6950 C.3     1  UNL1        0.1287
      9 C           3.5018  -12.2664  -34.2471 C.ar    1  UNL1       -0.0194
     10 C           2.9193  -13.2486  -30.0008 C.3     1  UNL1       -0.0489
     11 O           3.8259  -10.3548  -35.7347 O.3     1  UNL1       -0.4861
     12 C           3.5887   -8.8417  -29.6298 C.2     1  UNL1        0.0789
     13 C           2.9445  -13.5905  -28.4870 C.3     1  UNL1       -0.0528
     14 C           2.6152  -10.3829  -36.5200 C.3     1  UNL1        0.1286
     15 O           3.7206   -9.6859  -28.7603 O.co2   1  UNL1       -0.5463
     16 O           2.6290   -8.1020  -29.7526 O.co2   1  UNL1       -0.5463
     17 C           3.9221  -14.7398  -28.1316 C.3     1  UNL1       -0.0533
     18 C           2.5162   -9.1583  -37.4407 C.2     1  UNL1        0.0789
     19 C           5.2934  -14.2417  -27.6068 C.3     1  UNL1       -0.0559
     20 O           1.5346   -8.4404  -37.3410 O.co2   1  UNL1       -0.5463
     21 O           3.4555   -8.9637  -38.1909 O.co2   1  UNL1       -0.5463
     22 C           6.2389  -15.4111  -27.2599 C.3     1  UNL1       -0.0653
     23 H           4.7870   -9.2208  -33.6146 H       1  UNL1        0.0691
     24 H           3.3052  -13.7838  -32.7914 H       1  UNL1        0.0623
     25 H           4.6306  -11.9680  -29.8302 H       1  UNL1        0.0314
     26 H           4.9429  -13.5346  -30.5990 H       1  UNL1        0.0314
     27 H           4.2952   -8.2087  -31.5471 H       1  UNL1        0.0760
     28 H           5.5106   -8.1817  -30.2757 H       1  UNL1        0.0760
     29 H           3.1028  -12.8290  -35.0148 H       1  UNL1        0.0654
     30 H           2.6768  -14.1362  -30.5470 H       1  UNL1        0.0268
     31 H           2.1887  -12.4801  -30.1438 H       1  UNL1        0.0268
     32 H           1.9586  -13.8793  -28.1880 H       1  UNL1        0.0265
     33 H           3.2837  -12.7164  -27.9714 H       1  UNL1        0.0265
     34 H           1.7726  -10.3917  -35.8605 H       1  UNL1        0.0760
     35 H           2.6294  -11.2622  -37.1296 H       1  UNL1        0.0760
     36 H           4.0883  -15.3275  -29.0100 H       1  UNL1        0.0265
     37 H           3.4701  -15.3070  -27.3450 H       1  UNL1        0.0265
     38 H           5.1338  -13.6538  -26.7272 H       1  UNL1        0.0263
     39 H           5.7531  -13.6632  -28.3807 H       1  UNL1        0.0263
     40 H           5.8009  -16.0065  -26.4862 H       1  UNL1        0.0230
     41 H           7.1775  -15.0230  -26.9232 H       1  UNL1        0.0230
     42 H           6.3939  -16.0145  -28.1299 H       1  UNL1        0.0230
@<TRIPOS>BOND
     1     1     2   ar
     2     1     3   ar
     3     1     4    1
     4     2     5   ar
     5     2     6    1
     6     3     7   ar
     7     4     8    1
     8     5     9   ar
     9     6    10    1
    10     7    11    1
    11     8    12    1
    12    10    13    1
    13    11    14    1
    14    12    15   ar
    15    12    16   ar
    16    13    17    1
    17    14    18    1
    18    17    19    1
    19    18    20   ar
    20    18    21   ar
    21    19    22    1
    22     7     9   ar
    23     3    23    1
    24     5    24    1
    25     6    25    1
    26     6    26    1
    27     8    27    1
    28     8    28    1
    29     9    29    1
    30    10    30    1
    31    10    31    1
    32    13    32    1
    33    13    33    1
    34    14    34    1
    35    14    35    1
    36    17    36    1
    37    17    37    1
    38    19    38    1
    39    19    39    1
    40    22    40    1
    41    22    41    1
    42    22    42    1
@<TRIPOS>SUBSTRUCTURE
     1 UNL1        1 TEMP              0 ****  ****    0 ROOT


