##########                                Name: HTS1710-02659607-01
##########                    Molecular_Weight:             331.325
##########                DOCK_Rotatable_Bonds:                  10
##########                       Formal_Charge:                  -2
##########                     HBond_Acceptors:                   7
##########                        HBond_Donors:                   2
##########                         Heavy_Atoms:                  24
##########                          Grid_Score:          -78.362083
##########                     Grid_vdw_energy:          -37.916229
##########                      Grid_es_energy:          -40.445854
##########           Internal_energy_repulsive:           10.593619

@<TRIPOS>MOLECULE
HTS1710-02659607-01
 41 41 1 0 0
SMALL
USER_CHARGES


@<TRIPOS>ATOM
      1 C           4.2099   -9.3671  -33.4840 C.2     1  UNL1        0.1120
      2 C           4.5025   -9.0367  -32.1774 C.2     1  UNL1       -0.0970
      3 C           3.2348  -10.0618  -30.2612 C.2     1  UNL1       -0.0226
      4 C           3.5388   -9.0093  -31.0678 C.2     1  UNL1       -0.1119
      5 C           3.7825  -11.4523  -30.3007 C.2     1  UNL1        0.1857
      6 C           5.2643   -9.3411  -34.5889 C.2     1  UNL1        0.2478
      7 C           2.7880   -9.7456  -33.8787 C.2     1  UNL1        0.3436
      8 C           3.1743  -12.4502  -29.3571 C.ar    1  UNL1        0.0246
      9 C           2.3045  -13.4669  -29.8175 C.ar    1  UNL1       -0.0394
     10 C           3.4818  -12.3678  -27.9865 C.ar    1  UNL1       -0.0504
     11 C           1.7687  -14.3873  -28.8966 C.ar    1  UNL1       -0.0552
     12 O           4.6986  -11.7748  -31.0374 O.2     1  UNL1       -0.2873
     13 O           5.7511   -8.3153  -35.0304 O.2     1  UNL1       -0.2702
     14 O           2.0480  -10.4292  -33.1891 O.2     1  UNL1       -0.2448
     15 O           5.7477   -8.6825  -31.7797 O.co2   1  UNL1       -0.8734
     16 N           5.7498  -10.5035  -35.1589 N.am    1  UNL1       -0.3252
     17 O           2.9558   -7.8083  -30.8461 O.co2   1  UNL1       -0.8739
     18 C           2.9420  -13.2897  -27.0780 C.ar    1  UNL1       -0.0581
     19 C           2.0858  -14.3073  -27.5290 C.ar    1  UNL1       -0.0502
     20 O           2.4179   -9.2653  -35.1043 O.3     1  UNL1       -0.4613
     21 C           1.9113  -13.5654  -31.2888 C.3     1  UNL1       -0.0390
     22 C           1.5509  -10.0447  -35.9500 C.3     1  UNL1        0.0900
     23 C           1.4965  -15.3068  -26.5444 C.3     1  UNL1       -0.0397
     24 C           2.2646  -11.3702  -36.2761 C.3     1  UNL1       -0.0306
     25 H           2.5348   -9.8760  -29.5260 H       1  UNL1        0.0650
     26 H           4.1098  -11.6227  -27.6469 H       1  UNL1        0.0625
     27 H           1.1348  -15.1305  -29.2297 H       1  UNL1        0.0623
     28 H           6.4296  -10.4567  -35.8696 H       1  UNL1        0.1453
     29 H           5.4159  -11.3780  -34.8541 H       1  UNL1        0.1453
     30 H           3.1746  -13.2201  -26.0749 H       1  UNL1        0.0620
     31 H           2.4062  -12.7951  -31.8426 H       1  UNL1        0.0278
     32 H           0.8520  -13.4483  -31.3836 H       1  UNL1        0.0278
     33 H           2.2002  -14.5219  -31.6719 H       1  UNL1        0.0278
     34 H           1.3494   -9.5093  -36.8543 H       1  UNL1        0.0695
     35 H           0.6228  -10.2362  -35.4530 H       1  UNL1        0.0695
     36 H           0.8742  -16.0007  -27.0700 H       1  UNL1        0.0278
     37 H           0.9127  -14.7863  -25.8142 H       1  UNL1        0.0278
     38 H           2.2882  -15.8362  -26.0567 H       1  UNL1        0.0278
     39 H           3.1900  -11.1643  -36.7723 H       1  UNL1        0.0262
     40 H           1.6424  -11.9629  -36.9136 H       1  UNL1        0.0262
     41 H           2.4573  -11.9041  -35.3691 H       1  UNL1        0.0262
@<TRIPOS>BOND
     1     1     2    2
     2     1     6    1
     3     1     7    1
     4     2     4    1
     5     2    15    1
     6     3     4    2
     7     3     5    1
     8     4    17    1
     9     5     8    1
    10     5    12    2
    11     6    13    2
    12     6    16   am
    13     7    14    2
    14     7    20    1
    15     8     9   ar
    16     8    10   ar
    17     9    11   ar
    18     9    21    1
    19    10    18   ar
    20    11    19   ar
    21    18    19   ar
    22    19    23    1
    23    20    22    1
    24    22    24    1
    25     3    25    1
    26    10    26    1
    27    11    27    1
    28    16    28    1
    29    16    29    1
    30    18    30    1
    31    21    31    1
    32    21    32    1
    33    21    33    1
    34    22    34    1
    35    22    35    1
    36    23    36    1
    37    23    37    1
    38    23    38    1
    39    24    39    1
    40    24    40    1
    41    24    41    1
@<TRIPOS>SUBSTRUCTURE
     1 UNL1        1 TEMP              0 ****  ****    0 ROOT


