HTS1710-04760620-01
 OpenBabel03232612343D

 38 40  0  0  1  0  0  0  0  0999 V2000
   -2.7824   -6.8700  -34.3102 C   0  0  0  0  0  0  0  0  0  0  0  0
   -1.4943   -7.4256  -34.8617 C   0  0  0  0  0  0  0  0  0  0  0  0
   -0.9431   -8.5311  -34.2664 O   0  0  0  0  0  0  0  0  0  0  0  0
    0.1705   -8.6964  -35.0419 C   0  0  0  0  0  0  0  0  0  0  0  0
    1.1275   -9.8210  -34.7529 C   0  0  0  0  0  0  0  0  0  0  0  0
    2.1508   -9.3780  -33.7986 N   0  0  0  0  0  0  0  0  0  0  0  0
    2.7664  -10.2514  -32.9115 C   0  0  0  0  0  0  0  0  0  0  0  0
    2.4450  -11.4282  -32.9240 O   0  0  0  0  0  0  0  0  0  0  0  0
    3.7880   -9.6973  -31.9897 C   0  0  0  0  0  0  0  0  0  0  0  0
    4.4688   -8.5443  -32.2137 N   0  0  0  0  0  0  0  0  0  0  0  0
    5.2508   -8.4406  -31.1520 C   0  0  0  0  0  0  0  0  0  0  0  0
    5.1598   -9.4431  -30.2092 O   0  0  0  0  0  0  0  0  0  0  0  0
    4.2056  -10.2270  -30.7995 C   0  0  0  0  0  0  0  0  0  0  0  0
    3.7455  -11.5267  -30.1694 C   0  0  2  0  0  0  0  0  0  0  0  0
    3.8743  -11.6205  -28.6314 C   0  0  0  0  0  0  0  0  0  0  0  0
    4.1823  -13.1076  -28.3707 C   0  0  0  0  0  0  0  0  0  0  0  0
    4.2877  -13.7336  -29.7736 C   0  0  0  0  0  0  0  0  0  0  0  0
    4.5720  -12.6105  -30.6198 O   0  0  0  0  0  0  0  0  0  0  0  0
    0.3317   -7.7793  -36.0477 C   0  0  0  0  0  0  0  0  0  0  0  0
   -0.7923   -6.9165  -35.9374 C   0  0  0  0  0  0  0  0  0  0  0  0
   -1.0892   -5.7516  -36.8046 C   0  0  0  0  0  0  0  0  0  0  0  0
   -0.3123   -5.5269  -37.7169 O   0  5  0  0  0  0  0  0  0  0  0  0
   -2.0831   -5.0873  -36.5671 O   0  0  0  0  0  0  0  0  0  0  0  0
   -3.0993   -7.4631  -33.4779 H   0  0  0  0  0  0  0  0  0  0  0  0
   -3.5347   -6.8919  -35.0707 H   0  0  0  0  0  0  0  0  0  0  0  0
   -2.6276   -5.8607  -33.9906 H   0  0  0  0  0  0  0  0  0  0  0  0
    1.6003  -10.1263  -35.6629 H   0  0  0  0  0  0  0  0  0  0  0  0
    0.5866  -10.6423  -34.3312 H   0  0  0  0  0  0  0  0  0  0  0  0
    2.4100   -8.4284  -33.7870 H   0  0  0  0  0  0  0  0  0  0  0  0
    5.8992   -7.6463  -31.0344 H   0  0  0  0  0  0  0  0  0  0  0  0
    2.7149  -11.5715  -30.4535 H   0  0  0  0  0  0  0  0  0  0  0  0
    2.9603  -11.3327  -28.1554 H   0  0  0  0  0  0  0  0  0  0  0  0
    4.6293  -10.9701  -28.2419 H   0  0  0  0  0  0  0  0  0  0  0  0
    3.3929  -13.5645  -27.8113 H   0  0  0  0  0  0  0  0  0  0  0  0
    5.0758  -13.2428  -27.7977 H   0  0  0  0  0  0  0  0  0  0  0  0
    3.3668  -14.2007  -30.0543 H   0  0  0  0  0  0  0  0  0  0  0  0
    5.0317  -14.5001  -29.8337 H   0  0  0  0  0  0  0  0  0  0  0  0
    1.1004   -7.7267  -36.7343 H   0  0  0  0  0  0  0  0  0  0  0  0
  1  2  1  0  0  0  0
  1 24  1  0  0  0  0
  1 25  1  0  0  0  0
  1 26  1  0  0  0  0
  2  3  1  0  0  0  0
  2 20  2  0  0  0  0
  3  4  1  0  0  0  0
  4  5  1  0  0  0  0
  4 19  2  0  0  0  0
  5  6  1  0  0  0  0
  5 27  1  0  0  0  0
  5 28  1  0  0  0  0
  6  7  1  0  0  0  0
  6 29  1  0  0  0  0
  7  8  2  0  0  0  0
  7  9  1  0  0  0  0
  9 10  1  0  0  0  0
  9 13  2  0  0  0  0
 10 11  2  0  0  0  0
 11 12  1  0  0  0  0
 11 30  1  0  0  0  0
 12 13  1  0  0  0  0
 13 14  1  0  0  0  0
 14 15  1  0  0  0  0
 14 18  1  0  0  0  0
 14 31  1  6  0  0  0
 15 16  1  0  0  0  0
 15 32  1  0  0  0  0
 15 33  1  0  0  0  0
 16 17  1  0  0  0  0
 16 34  1  0  0  0  0
 16 35  1  0  0  0  0
 17 18  1  0  0  0  0
 17 36  1  0  0  0  0
 17 37  1  0  0  0  0
 19 20  1  0  0  0  0
 19 38  1  0  0  0  0
 20 21  1  0  0  0  0
 21 22  1  0  0  0  0
 21 23  2  0  0  0  0
M  CHG  1  22  -1
M  END
$$$$
