HTS1710-01959777-01
 OpenBabel03232612343D

 35 36  0  0  0  0  0  0  0  0999 V2000
   -1.1542   -7.3554  -34.5432 C   0  0  0  0  0  0  0  0  0  0  0  0
    3.6821  -10.4859  -30.9823 C   0  0  0  0  0  0  0  0  0  0  0  0
   -0.9409   -6.8164  -35.8381 C   0  0  0  0  0  0  0  0  0  0  0  0
    3.1184  -11.4774  -30.1365 C   0  0  0  0  0  0  0  0  0  0  0  0
   -2.2266   -6.8453  -33.6196 C   0  0  0  0  0  0  0  0  0  0  0  0
    4.3638   -9.2554  -30.4467 C   0  0  0  0  0  0  0  0  0  0  0  0
   -1.8118   -5.7348  -36.4196 C   0  0  0  0  0  0  0  0  0  0  0  0
    3.2181  -11.4168  -28.6352 C   0  0  0  0  0  0  0  0  0  0  0  0
    2.4513  -12.5747  -30.7134 C   0  0  0  0  0  0  0  0  0  0  0  0
    0.1154   -7.3149  -36.6247 C   0  0  0  0  0  0  0  0  0  0  0  0
    3.5860  -10.6358  -32.3796 C   0  0  0  0  0  0  0  0  0  0  0  0
   -0.3199   -8.3916  -34.0801 C   0  0  0  0  0  0  0  0  0  0  0  0
   -2.9503   -7.6773  -33.1008 O   0  5  0  0  0  0  0  0  0  0  0  0
    3.7429   -8.5693  -29.6530 O   0  5  0  0  0  0  0  0  0  0  0  0
   -1.2589   -4.8165  -37.0003 O   0  5  0  0  0  0  0  0  0  0  0  0
    2.2186  -11.0921  -28.0178 O   0  5  0  0  0  0  0  0  0  0  0  0
    2.3031  -10.7945  -35.1645 C   0  0  0  0  0  0  0  0  0  0  0  0
    0.7255   -8.8900  -34.8734 C   0  0  0  0  0  0  0  0  0  0  0  0
    2.9307  -11.7388  -32.9478 C   0  0  0  0  0  0  0  0  0  0  0  0
   -2.2794   -5.6421  -33.4319 O   0  0  0  0  0  0  0  0  0  0  0  0
    5.4819   -9.0139  -30.8700 O   0  0  0  0  0  0  0  0  0  0  0  0
    4.3046  -11.6699  -28.1430 O   0  0  0  0  0  0  0  0  0  0  0  0
   -3.0143   -5.8389  -36.2441 O   0  0  0  0  0  0  0  0  0  0  0  0
    2.3522  -12.7087  -32.1053 C   0  0  0  0  0  0  0  0  0  0  0  0
    0.9466   -8.3410  -36.1515 C   0  0  0  0  0  0  0  0  0  0  0  0
    1.5130   -9.9006  -34.3545 O   0  0  0  0  0  0  0  0  0  0  0  0
    2.8691  -11.8229  -34.3266 O   0  0  0  0  0  0  0  0  0  0  0  0
    2.0288  -13.2911  -30.1024 H   0  0  0  0  0  0  0  0  0  0  0  0
    0.2806   -6.9193  -37.5634 H   0  0  0  0  0  0  0  0  0  0  0  0
    4.0048   -9.9220  -32.9961 H   0  0  0  0  0  0  0  0  0  0  0  0
   -0.4798   -8.7909  -33.1420 H   0  0  0  0  0  0  0  0  0  0  0  0
    3.0904  -10.2460  -35.6381 H   0  0  0  0  0  0  0  0  0  0  0  0
    1.6832  -11.2427  -35.9126 H   0  0  0  0  0  0  0  0  0  0  0  0
    1.8561  -13.5168  -32.5124 H   0  0  0  0  0  0  0  0  0  0  0  0
    1.7187   -8.6930  -36.7388 H   0  0  0  0  0  0  0  0  0  0  0  0
  1  3  2  0  0  0  0
  1  5  1  0  0  0  0
  1 12  1  0  0  0  0
  2  4  2  0  0  0  0
  2  6  1  0  0  0  0
  2 11  1  0  0  0  0
  3  7  1  0  0  0  0
  3 10  1  0  0  0  0
  4  8  1  0  0  0  0
  4  9  1  0  0  0  0
  5 13  1  0  0  0  0
  5 20  2  0  0  0  0
  6 14  1  0  0  0  0
  6 21  2  0  0  0  0
  7 15  1  0  0  0  0
  7 23  2  0  0  0  0
  8 16  1  0  0  0  0
  8 22  2  0  0  0  0
  9 24  2  0  0  0  0
  9 28  1  0  0  0  0
 10 25  2  0  0  0  0
 10 29  1  0  0  0  0
 11 19  2  0  0  0  0
 11 30  1  0  0  0  0
 12 18  2  0  0  0  0
 12 31  1  0  0  0  0
 17 26  1  0  0  0  0
 17 27  1  0  0  0  0
 17 32  1  0  0  0  0
 17 33  1  0  0  0  0
 18 25  1  0  0  0  0
 18 26  1  0  0  0  0
 19 24  1  0  0  0  0
 19 27  1  0  0  0  0
 24 34  1  0  0  0  0
 25 35  1  0  0  0  0
M  CHG  4  13  -1  14  -1  15  -1  16  -1
M  END
$$$$
