##########                                Name: HTS1710-00872988-01
##########                    Molecular_Weight:             359.335
##########                DOCK_Rotatable_Bonds:                   7
##########                       Formal_Charge:                  -2
##########                     HBond_Acceptors:                   8
##########                        HBond_Donors:                   3
##########                         Heavy_Atoms:                  26
##########                          Grid_Score:          -79.615753
##########                     Grid_vdw_energy:          -39.811199
##########                      Grid_es_energy:          -39.804554
##########           Internal_energy_repulsive:            7.723349

@<TRIPOS>MOLECULE
HTS1710-00872988-01
 43 45 1 0 0
SMALL
USER_CHARGES


@<TRIPOS>ATOM
      1 C           4.4627   -7.3892  -31.4573 C.2     1  UNL1       -0.0555
      2 C           5.0103   -8.3167  -32.3271 C.2     1  UNL1       -0.1090
      3 C           3.7690  -10.0829  -31.0218 C.2     1  UNL1        0.0539
      4 C           3.3155   -9.0658  -30.2316 C.2     1  UNL1       -0.0306
      5 C           4.6117   -9.7686  -32.2663 C.3     1  UNL1        0.0317
      6 O           3.5792   -7.7415  -30.4651 O.co2   1  UNL1       -0.7688
      7 C           4.8022   -5.9643  -31.5692 C.2     1  UNL1        0.1708
      8 O           5.9082   -8.0005  -33.3294 O.co2   1  UNL1       -0.7839
      9 C           5.7442   -5.6764  -32.6486 C.2     1  UNL1       -0.0241
     10 C           3.4819  -11.5510  -30.7457 C.2     1  UNL1        0.3364
     11 C           3.9006  -10.1815  -33.5662 C.ar    1  UNL1        0.0051
     12 C           6.2489   -6.6718  -33.4552 C.2     1  UNL1       -0.0886
     13 N           2.5510   -9.3065  -29.1136 N.pl3   1  UNL1       -0.3685
     14 O           4.3467   -5.1008  -30.8386 O.2     1  UNL1       -0.2886
     15 C           2.6349   -9.6544  -33.9188 C.ar    1  UNL1        0.1241
     16 O           2.4393  -12.1240  -31.0232 O.2     1  UNL1       -0.2453
     17 O           4.5322  -12.1823  -30.1361 O.3     1  UNL1       -0.4646
     18 O           2.0310   -8.7403  -33.0742 O.3     1  UNL1       -0.4948
     19 C           7.2141   -6.3297  -34.5612 C.3     1  UNL1        0.0566
     20 C           4.5294  -11.0981  -34.4323 C.ar    1  UNL1       -0.0542
     21 O           6.7623   -6.8273  -35.8185 O.3     1  UNL1       -0.3915
     22 C           2.0162  -10.0616  -35.1223 C.ar    1  UNL1       -0.0197
     23 C           4.4744  -13.6011  -29.9018 C.3     1  UNL1        0.0820
     24 C           0.6722   -8.2982  -33.2204 C.3     1  UNL1        0.0788
     25 C           3.9087  -11.4987  -35.6249 C.ar    1  UNL1       -0.0612
     26 C           2.6523  -10.9815  -35.9679 C.ar    1  UNL1       -0.0583
     27 H           5.5029  -10.3539  -32.1767 H       1  UNL1        0.0438
     28 H           6.0390   -4.7008  -32.8107 H       1  UNL1        0.0647
     29 H           1.9991  -10.1200  -29.0606 H       1  UNL1        0.1413
     30 H           2.5559   -8.6654  -28.3665 H       1  UNL1        0.1413
     31 H           8.1669   -6.7622  -34.3377 H       1  UNL1        0.0596
     32 H           7.2868   -5.2642  -34.6271 H       1  UNL1        0.0596
     33 H           5.4566  -11.4789  -34.1866 H       1  UNL1        0.0622
     34 H           6.7043   -7.7948  -35.7814 H       1  UNL1        0.2098
     35 H           1.0925   -9.6803  -35.3799 H       1  UNL1        0.0654
     36 H           5.3751  -13.9200  -29.4201 H       1  UNL1        0.0661
     37 H           4.3688  -14.1128  -30.8355 H       1  UNL1        0.0661
     38 H           3.6363  -13.8252  -29.2755 H       1  UNL1        0.0661
     39 H           0.4411   -7.5943  -32.4484 H       1  UNL1        0.0660
     40 H           0.0138   -9.1383  -33.1459 H       1  UNL1        0.0660
     41 H           0.5496   -7.8326  -34.1760 H       1  UNL1        0.0660
     42 H           4.3771  -12.1738  -36.2492 H       1  UNL1        0.0618
     43 H           2.1946  -11.2781  -36.8440 H       1  UNL1        0.0619
@<TRIPOS>BOND
     1     1     2    2
     2     3     4    2
     3     4     6    1
     4     2     5    1
     5     1     6    1
     6     1     7    1
     7     2     8    1
     8     7     9    1
     9     3    10    1
    10     5    11    1
    11     9    12    2
    12     4    13    1
    13     7    14    2
    14    11    15   ar
    15    10    16    2
    16    10    17    1
    17    15    18    1
    18    12    19    1
    19    11    20   ar
    20    19    21    1
    21    15    22   ar
    22    17    23    1
    23    18    24    1
    24    20    25   ar
    25    25    26   ar
    26     3     5    1
    27     8    12    1
    28    22    26   ar
    29     5    27    1
    30     9    28    1
    31    13    29    1
    32    13    30    1
    33    19    31    1
    34    19    32    1
    35    20    33    1
    36    21    34    1
    37    22    35    1
    38    23    36    1
    39    23    37    1
    40    23    38    1
    41    24    39    1
    42    24    40    1
    43    24    41    1
    44    25    42    1
    45    26    43    1
@<TRIPOS>SUBSTRUCTURE
     1 UNL1        1 TEMP              0 ****  ****    0 ROOT


