HTS1710-00383337-01
 OpenBabel03232612363D

 34 36  0  0  0  0  0  0  0  0999 V2000
    4.9997   -9.0882  -36.1819 O   0  5  0  0  0  0  0  0  0  0  0  0
    3.9247   -9.4408  -36.6391 C   0  0  0  0  0  0  0  0  0  0  0  0
    3.5777   -9.2876  -37.7981 O   0  0  0  0  0  0  0  0  0  0  0  0
    2.9325  -10.1180  -35.6564 C   0  0  0  0  0  0  0  0  0  0  0  0
    1.4246   -9.8263  -35.9136 C   0  0  0  0  0  0  0  0  0  0  0  0
    0.6538  -11.0298  -35.3358 C   0  0  0  0  0  0  0  0  0  0  0  0
    1.6516  -12.2076  -35.2879 C   0  0  0  0  0  0  0  0  0  0  0  0
    3.0093  -11.6583  -35.7761 C   0  0  0  0  0  0  0  0  0  0  0  0
    3.2666   -9.7730  -34.2572 N   0  0  0  0  0  0  0  0  0  0  0  0
    4.4636  -10.0974  -33.6221 C   0  0  0  0  0  0  0  0  0  0  0  0
    5.2997  -10.7275  -34.2395 O   0  0  0  0  0  0  0  0  0  0  0  0
    4.6096   -9.6594  -32.2049 C   0  0  0  0  0  0  0  0  0  0  0  0
    4.2289  -10.4791  -31.1860 N   0  0  0  0  0  0  0  0  0  0  0  0
    4.5475   -9.8141  -30.0941 C   0  0  0  0  0  0  0  0  0  0  0  0
    5.1286   -8.5833  -30.2713 O   0  0  0  0  0  0  0  0  0  0  0  0
    5.1303   -8.5072  -31.6403 C   0  0  0  0  0  0  0  0  0  0  0  0
    5.5866   -7.2839  -32.2851 C   0  0  0  0  0  0  0  0  0  0  0  0
    6.4788   -7.3982  -33.3289 C   0  0  0  0  0  0  0  0  0  0  0  0
    6.8899   -6.1413  -33.8558 C   0  0  0  0  0  0  0  0  0  0  0  0
    6.3284   -5.0664  -33.2157 C   0  0  0  0  0  0  0  0  0  0  0  0
    5.2636   -5.5896  -31.9180 S   0  0  0  0  0  0  0  0  0  0  0  0
    1.2375   -9.7342  -36.9631 H   0  0  0  0  0  0  0  0  0  0  0  0
    1.1193   -8.9089  -35.4551 H   0  0  0  0  0  0  0  0  0  0  0  0
   -0.1762  -11.2739  -35.9654 H   0  0  0  0  0  0  0  0  0  0  0  0
    0.2672  -10.8104  -34.3625 H   0  0  0  0  0  0  0  0  0  0  0  0
    1.3209  -12.9974  -35.9296 H   0  0  0  0  0  0  0  0  0  0  0  0
    1.7306  -12.6053  -34.2977 H   0  0  0  0  0  0  0  0  0  0  0  0
    3.1774  -11.9414  -36.7941 H   0  0  0  0  0  0  0  0  0  0  0  0
    3.8162  -12.0507  -35.1931 H   0  0  0  0  0  0  0  0  0  0  0  0
    2.5937   -9.2777  -33.7364 H   0  0  0  0  0  0  0  0  0  0  0  0
    4.3692  -10.1992  -29.1534 H   0  0  0  0  0  0  0  0  0  0  0  0
    6.8151   -8.3038  -33.6921 H   0  0  0  0  0  0  0  0  0  0  0  0
    7.5484   -6.0478  -34.6450 H   0  0  0  0  0  0  0  0  0  0  0  0
    6.5072   -4.0805  -33.4629 H   0  0  0  0  0  0  0  0  0  0  0  0
  1  2  1  0  0  0  0
  2  3  2  0  0  0  0
  2  4  1  0  0  0  0
  4  5  1  0  0  0  0
  4  8  1  0  0  0  0
  4  9  1  0  0  0  0
  5  6  1  0  0  0  0
  5 22  1  0  0  0  0
  5 23  1  0  0  0  0
  6  7  1  0  0  0  0
  6 24  1  0  0  0  0
  6 25  1  0  0  0  0
  7  8  1  0  0  0  0
  7 26  1  0  0  0  0
  7 27  1  0  0  0  0
  8 28  1  0  0  0  0
  8 29  1  0  0  0  0
  9 10  1  0  0  0  0
  9 30  1  0  0  0  0
 10 11  2  0  0  0  0
 10 12  1  0  0  0  0
 12 13  1  0  0  0  0
 12 16  2  0  0  0  0
 13 14  2  0  0  0  0
 14 15  1  0  0  0  0
 14 31  1  0  0  0  0
 15 16  1  0  0  0  0
 16 17  1  0  0  0  0
 17 18  2  0  0  0  0
 17 21  1  0  0  0  0
 18 19  1  0  0  0  0
 18 32  1  0  0  0  0
 19 20  2  0  0  0  0
 19 33  1  0  0  0  0
 20 21  1  0  0  0  0
 20 34  1  0  0  0  0
M  CHG  1   1  -1
M  END
$$$$
