##########                                Name: HTS1710-02655468-01
##########                    Molecular_Weight:             395.414
##########                DOCK_Rotatable_Bonds:                   9
##########                       Formal_Charge:                  -2
##########                     HBond_Acceptors:                  10
##########                        HBond_Donors:                   1
##########                         Heavy_Atoms:                  26
##########                          Grid_Score:          -79.379211
##########                     Grid_vdw_energy:          -40.793236
##########                      Grid_es_energy:          -38.585979
##########           Internal_energy_repulsive:           10.953839

@<TRIPOS>MOLECULE
HTS1710-02655468-01
 39 40 1 0 0
SMALL
USER_CHARGES


@<TRIPOS>ATOM
      1 N           3.4102   -9.5443  -33.0882 N.am    1  UNL1       -0.2463
      2 C           3.9742  -10.2776  -34.1269 C.2     1  UNL1        0.1211
      3 C           2.2678   -8.8304  -33.4479 C.2     1  UNL1        0.2589
      4 C           1.9101   -9.1246  -34.8578 C.2     1  UNL1        0.0772
      5 S           3.0757  -10.1506  -35.6659 S.3     1  UNL1       -0.0610
      6 C           3.9904   -9.4557  -31.7197 C.3     1  UNL1        0.0765
      7 C           2.9759   -9.9435  -30.6409 C.3     1  UNL1        0.0111
      8 C           0.8320   -8.6238  -35.5601 C.2     1  UNL1       -0.0356
      9 C           4.5919   -8.0484  -31.4848 C.2     1  UNL1        0.0629
     10 S           5.4391  -11.0925  -34.0720 S.2     1  UNL1       -0.0272
     11 C           3.5324   -9.8659  -29.2106 C.2     1  UNL1        0.0439
     12 C          -1.7480   -5.8576  -35.9841 C.ar    1  UNL1        0.1622
     13 O           1.6996   -8.0454  -32.7100 O.2     1  UNL1       -0.2690
     14 C          -0.3483   -7.7514  -35.2806 C.ar    1  UNL1       -0.0201
     15 C          -2.5804   -6.0624  -34.8697 C.ar    1  UNL1        0.1585
     16 C          -0.6447   -6.7164  -36.1914 C.ar    1  UNL1       -0.0091
     17 O           5.7900   -7.8895  -31.6510 O.co2   1  UNL1       -0.5479
     18 O           4.1094  -10.8481  -28.7769 O.co2   1  UNL1       -0.5497
     19 C          -2.3187   -7.1162  -33.9834 C.ar    1  UNL1       -0.0160
     20 O           3.8148   -7.1737  -31.1424 O.co2   1  UNL1       -0.5479
     21 C          -1.2179   -7.9599  -34.1913 C.ar    1  UNL1       -0.0509
     22 O           3.3841   -8.8134  -28.6131 O.co2   1  UNL1       -0.5497
     23 O          -2.0558   -4.8243  -36.8550 O.3     1  UNL1       -0.4886
     24 O          -3.6587   -5.2509  -34.6565 O.3     1  UNL1       -0.5033
     25 C          -1.1544   -4.2890  -37.8464 C.3     1  UNL1        0.0870
     26 C          -1.8440   -3.1230  -38.5904 C.3     1  UNL1       -0.0307
     27 H           4.8132  -10.1330  -31.6245 H       1  UNL1        0.0570
     28 H           2.7181  -10.9605  -30.8511 H       1  UNL1        0.0347
     29 H           2.1251   -9.2963  -30.6876 H       1  UNL1        0.0347
     30 H           0.8449   -8.9364  -36.5436 H       1  UNL1        0.0636
     31 H          -0.0468   -6.5840  -37.0221 H       1  UNL1        0.0661
     32 H          -2.9392   -7.2721  -33.1736 H       1  UNL1        0.0655
     33 H          -1.0429   -8.7413  -33.5402 H       1  UNL1        0.0625
     34 H          -3.9939   -4.7239  -35.3550 H       1  UNL1        0.2923
     35 H          -0.8969   -5.0564  -38.5462 H       1  UNL1        0.0694
     36 H          -0.2668   -3.9323  -37.3672 H       1  UNL1        0.0694
     37 H          -2.7315   -3.4806  -39.0693 H       1  UNL1        0.0262
     38 H          -1.1769   -2.7254  -39.3266 H       1  UNL1        0.0262
     39 H          -2.1009   -2.3556  -37.8904 H       1  UNL1        0.0262
@<TRIPOS>BOND
     1     1     2    1
     2     1     3   am
     3     1     6    1
     4     2     5    1
     5     2    10    2
     6     3     4    1
     7     3    13    2
     8     4     5    1
     9     4     8    2
    10     6     7    1
    11     6     9    1
    12     7    11    1
    13     8    14    1
    14     9    17   ar
    15     9    20   ar
    16    11    18   ar
    17    11    22   ar
    18    12    15   ar
    19    12    16   ar
    20    12    23    1
    21    14    16   ar
    22    14    21   ar
    23    15    19   ar
    24    15    24    1
    25    19    21   ar
    26    23    25    1
    27    25    26    1
    28     6    27    1
    29     7    28    1
    30     7    29    1
    31     8    30    1
    32    16    31    1
    33    19    32    1
    34    21    33    1
    35    24    34    1
    36    25    35    1
    37    25    36    1
    38    26    37    1
    39    26    38    1
    40    26    39    1
@<TRIPOS>SUBSTRUCTURE
     1 UNL1        1 TEMP              0 ****  ****    0 ROOT


