##########                                Name: HTS1710-03575865-01
##########                    Molecular_Weight:             480.458
##########                DOCK_Rotatable_Bonds:                   4
##########                       Formal_Charge:                  -2
##########                     HBond_Acceptors:                  12
##########                        HBond_Donors:                   2
##########                         Heavy_Atoms:                  34
##########                          Grid_Score:          -80.038620
##########                     Grid_vdw_energy:          -49.035789
##########                      Grid_es_energy:          -31.002827
##########           Internal_energy_repulsive:            9.020757

@<TRIPOS>MOLECULE
HTS1710-03575865-01
 50 53 1 0 0
SMALL
USER_CHARGES


@<TRIPOS>ATOM
      1 C           3.5964  -10.8174  -33.5632 C.ar    1  UNL1        0.1168
      2 C           2.0479  -10.2049  -35.6920 C.ar    1  UNL1        0.1168
      3 N           3.3528  -10.7321  -31.1544 N.ar    1  UNL1       -0.2557
      4 N           0.2179   -8.7301  -35.1069 N.ar    1  UNL1       -0.2557
      5 C           3.0877  -11.4540  -32.3233 C.ar    1  UNL1        0.2725
      6 C           0.8748   -9.9296  -34.8263 C.ar    1  UNL1        0.2725
      7 S           3.1341  -11.5887  -35.1595 S.O     1  UNL1        0.0978
      8 C           4.3143   -9.6327  -33.5362 C.ar    1  UNL1       -0.0129
      9 C           2.3410   -9.4083  -36.7908 C.ar    1  UNL1       -0.0129
     10 C           4.0643   -9.5308  -31.1391 C.ar    1  UNL1        0.3292
     11 C           0.5253   -7.9256  -36.2055 C.ar    1  UNL1        0.3292
     12 N           1.5459   -8.3079  -37.0561 N.ar    1  UNL1       -0.3198
     13 N           4.5445   -9.0102  -32.3250 N.ar    1  UNL1       -0.3198
     14 C          -0.7966   -8.2671  -34.1211 C.3     1  UNL1        0.0560
     15 C           2.8436  -11.2669  -29.8657 C.3     1  UNL1        0.0560
     16 O           2.4752  -12.5096  -32.3344 O.2     1  UNL1       -0.2662
     17 O           0.5362  -10.6773  -33.9235 O.2     1  UNL1       -0.2662
     18 O           4.3981  -11.5872  -35.9916 O.2     1  UNL1       -0.2466
     19 O           4.2937   -8.8998  -30.1217 O.2     1  UNL1       -0.2465
     20 O          -0.0580   -6.8870  -36.4633 O.2     1  UNL1       -0.2465
     21 O           4.8070   -9.0254  -34.6345 O.co2   1  UNL1       -0.8607
     22 O           3.3663   -9.6252  -37.6380 O.co2   1  UNL1       -0.8607
     23 C           3.6946  -12.4124  -29.3306 C.ar    1  UNL1       -0.0275
     24 C          -0.2053   -7.2753  -33.1204 C.ar    1  UNL1       -0.0275
     25 C           4.8572  -12.1460  -28.5840 C.ar    1  UNL1       -0.0569
     26 C           3.3264  -13.7476  -29.5809 C.ar    1  UNL1       -0.0569
     27 C          -0.5895   -5.9216  -33.1502 C.ar    1  UNL1       -0.0569
     28 C           0.6744   -7.7213  -32.1152 C.ar    1  UNL1       -0.0569
     29 C           4.1083  -14.8032  -29.0850 C.ar    1  UNL1       -0.0614
     30 C          -0.1053   -5.0262  -32.1833 C.ar    1  UNL1       -0.0614
     31 C           1.1594   -6.8250  -31.1495 C.ar    1  UNL1       -0.0614
     32 C           5.6392  -13.2021  -28.0890 C.ar    1  UNL1       -0.0614
     33 C           5.2644  -14.5319  -28.3383 C.ar    1  UNL1       -0.0617
     34 C           0.7685   -5.4777  -31.1820 C.ar    1  UNL1       -0.0617
     35 H           1.7113   -7.7829  -37.8724 H       1  UNL1        0.1692
     36 H           5.0641   -8.1742  -32.3063 H       1  UNL1        0.1692
     37 H          -1.1727   -9.1147  -33.5874 H       1  UNL1        0.0544
     38 H          -1.5789   -7.7716  -34.6573 H       1  UNL1        0.0544
     39 H           1.8447  -11.6212  -30.0123 H       1  UNL1        0.0544
     40 H           2.8792  -10.4737  -29.1485 H       1  UNL1        0.0544
     41 H           5.1364  -11.1698  -28.3995 H       1  UNL1        0.0621
     42 H           2.4778  -13.9518  -30.1316 H       1  UNL1        0.0621
     43 H          -1.2300   -5.5856  -33.8863 H       1  UNL1        0.0621
     44 H           0.9638   -8.7115  -32.0883 H       1  UNL1        0.0621
     45 H           3.8319  -15.7802  -29.2701 H       1  UNL1        0.0618
     46 H          -0.3921   -4.0352  -32.2087 H       1  UNL1        0.0618
     47 H           1.8039   -7.1574  -30.4152 H       1  UNL1        0.0618
     48 H           6.4904  -13.0004  -27.5413 H       1  UNL1        0.0618
     49 H           5.8382  -15.3080  -27.9731 H       1  UNL1        0.0618
     50 H           1.1231   -4.8196  -30.4705 H       1  UNL1        0.0618
@<TRIPOS>BOND
     1     2     7    1
     2     3     5   ar
     3     4     6   ar
     4     1     5   ar
     5     2     6   ar
     6     1     7    1
     7     1     8   ar
     8     2     9   ar
     9    10    13   ar
    10    11    12   ar
    11     9    12   ar
    12     8    13   ar
    13     4    14    1
    14     3    15    1
    15     5    16    2
    16     6    17    2
    17     7    18    2
    18    10    19    2
    19    11    20    2
    20     8    21    1
    21     9    22    1
    22    15    23    1
    23    14    24    1
    24    23    25   ar
    25    23    26   ar
    26    24    27   ar
    27    24    28   ar
    28    26    29   ar
    29    27    30   ar
    30    28    31   ar
    31    25    32   ar
    32    29    33   ar
    33    31    34   ar
    34     3    10   ar
    35     4    11   ar
    36    32    33   ar
    37    30    34   ar
    38    12    35    1
    39    13    36    1
    40    14    37    1
    41    14    38    1
    42    15    39    1
    43    15    40    1
    44    25    41    1
    45    26    42    1
    46    27    43    1
    47    28    44    1
    48    29    45    1
    49    30    46    1
    50    31    47    1
    51    32    48    1
    52    33    49    1
    53    34    50    1
@<TRIPOS>SUBSTRUCTURE
     1 UNL1        1 TEMP              0 ****  ****    0 ROOT


