HTS1710-01295413-01
 OpenBabel03232612363D

 39 41  0  0  1  0  0  0  0  0999 V2000
    4.4724   -7.2772  -31.4472 C   0  0  0  0  0  0  0  0  0  0  0  0
    5.0365   -8.2144  -32.2967 C   0  0  0  0  0  0  0  0  0  0  0  0
    3.8417   -9.9684  -30.9587 C   0  0  0  0  0  0  0  0  0  0  0  0
    3.3665   -8.9472  -30.1879 C   0  0  0  0  0  0  0  0  0  0  0  0
    4.5905   -9.6505  -32.2568 C   0  0  1  0  0  0  0  0  0  0  0  0
    3.5499   -7.6219  -30.4878 O   0  0  0  0  0  0  0  0  0  0  0  0
    4.8405   -5.8586  -31.5459 C   0  0  0  0  0  0  0  0  0  0  0  0
    5.9771   -7.9170  -33.2631 O   0  0  0  0  0  0  0  0  0  0  0  0
    5.8356   -5.5899  -32.5825 C   0  0  0  0  0  0  0  0  0  0  0  0
    3.7280   -9.9661  -33.4806 C   0  0  0  0  0  0  0  0  0  0  0  0
    3.6514  -11.4396  -30.6219 C   0  0  0  0  0  0  0  0  0  0  0  0
    6.3513   -6.5958  -33.3701 C   0  0  0  0  0  0  0  0  0  0  0  0
    2.3955   -9.5146  -33.5486 C   0  0  0  0  0  0  0  0  0  0  0  0
    2.6520   -9.1841  -29.0363 N   0  0  0  0  0  0  0  0  0  0  0  0
    4.3709   -4.9868  -30.8349 O   0  0  0  0  0  0  0  0  0  0  0  0
    2.9478  -11.8640  -29.7194 O   0  0  0  0  0  0  0  0  0  0  0  0
    1.6074   -9.8120  -34.6715 C   0  0  0  0  0  0  0  0  0  0  0  0
    4.3688  -12.2605  -31.4514 O   0  0  0  0  0  0  0  0  0  0  0  0
    0.3328   -9.3754  -34.7293 F   0  0  0  0  0  0  0  0  0  0  0  0
    4.2535  -10.7232  -34.5481 C   0  0  0  0  0  0  0  0  0  0  0  0
    7.3798   -6.2703  -34.4211 C   0  0  0  0  0  0  0  0  0  0  0  0
    6.7787   -6.1566  -35.7077 O   0  0  0  0  0  0  0  0  0  0  0  0
    3.4617  -11.0181  -35.6688 C   0  0  0  0  0  0  0  0  0  0  0  0
    2.1355  -10.5617  -35.7330 C   0  0  0  0  0  0  0  0  0  0  0  0
    4.2320  -13.6884  -31.3329 C   0  0  0  0  0  0  0  0  0  0  0  0
    5.4605  -10.2729  -32.2810 H   0  0  0  0  0  0  0  0  0  0  0  0
    6.1605   -4.6213  -32.7281 H   0  0  0  0  0  0  0  0  0  0  0  0
    1.9979   -8.9641  -32.7715 H   0  0  0  0  0  0  0  0  0  0  0  0
    1.8643   -8.6333  -28.8236 H   0  0  0  0  0  0  0  0  0  0  0  0
    2.9284   -9.9045  -28.4249 H   0  0  0  0  0  0  0  0  0  0  0  0
    5.2271  -11.0629  -34.5049 H   0  0  0  0  0  0  0  0  0  0  0  0
    8.1132   -7.0490  -34.4454 H   0  0  0  0  0  0  0  0  0  0  0  0
    7.8342   -5.3338  -34.1738 H   0  0  0  0  0  0  0  0  0  0  0  0
    6.0506   -5.5168  -35.6691 H   0  0  0  0  0  0  0  0  0  0  0  0
    3.8548  -11.5710  -36.4465 H   0  0  0  0  0  0  0  0  0  0  0  0
    1.5524  -10.7766  -36.5569 H   0  0  0  0  0  0  0  0  0  0  0  0
    4.8607  -14.1679  -32.0538 H   0  0  0  0  0  0  0  0  0  0  0  0
    3.2132  -13.9648  -31.5081 H   0  0  0  0  0  0  0  0  0  0  0  0
    4.5203  -13.9939  -30.3489 H   0  0  0  0  0  0  0  0  0  0  0  0
  1  2  2  0  0  0  0
  1  6  1  0  0  0  0
  1  7  1  0  0  0  0
  2  5  1  0  0  0  0
  2  8  1  0  0  0  0
  3  4  2  0  0  0  0
  3 11  1  0  0  0  0
  3  5  1  0  0  0  0
  4  6  1  0  0  0  0
  4 14  1  0  0  0  0
  5 10  1  0  0  0  0
  5 26  1  6  0  0  0
  7  9  1  0  0  0  0
  7 15  2  0  0  0  0
  8 12  1  0  0  0  0
  9 12  2  0  0  0  0
  9 27  1  0  0  0  0
 10 13  2  0  0  0  0
 10 20  1  0  0  0  0
 11 16  2  0  0  0  0
 11 18  1  0  0  0  0
 12 21  1  0  0  0  0
 13 17  1  0  0  0  0
 13 28  1  0  0  0  0
 14 29  1  0  0  0  0
 14 30  1  0  0  0  0
 17 19  1  0  0  0  0
 17 24  2  0  0  0  0
 18 25  1  0  0  0  0
 20 23  2  0  0  0  0
 20 31  1  0  0  0  0
 21 22  1  0  0  0  0
 21 32  1  0  0  0  0
 21 33  1  0  0  0  0
 22 34  1  0  0  0  0
 23 24  1  0  0  0  0
 23 35  1  0  0  0  0
 24 36  1  0  0  0  0
 25 37  1  0  0  0  0
 25 38  1  0  0  0  0
 25 39  1  0  0  0  0
M  END
$$$$
