HTS1710-01433501-01
 OpenBabel03232612353D

 46 47  0  0  1  0  0  0  0  0999 V2000
    3.8020  -10.9380  -31.9719 C   0  0  0  0  0  0  0  0  0  0  0  0
    3.1154  -12.1482  -32.5041 C   0  0  0  0  0  0  0  0  0  0  0  0
    2.9001  -13.1603  -31.5662 N   0  0  0  0  0  0  0  0  0  0  0  0
    4.2347  -10.8191  -30.6577 C   0  0  0  0  0  0  0  0  0  0  0  0
    4.0369   -9.7756  -32.9471 C   0  0  2  0  0  0  0  0  0  0  0  0
    3.9764  -11.9154  -29.7681 C   0  0  0  0  0  0  0  0  0  0  0  0
    3.3176  -13.0360  -30.2340 C   0  0  0  0  0  0  0  0  0  0  0  0
    2.7438   -9.3800  -33.6818 C   0  0  0  0  0  0  0  0  0  0  0  0
    2.2047  -14.3971  -32.0278 C   0  0  0  0  0  0  0  0  0  0  0  0
    2.7683  -12.2524  -33.6701 O   0  0  0  0  0  0  0  0  0  0  0  0
    5.2644  -10.0644  -33.8645 C   0  0  0  0  0  0  0  0  0  0  0  0
    0.7263  -14.1121  -32.3280 C   0  0  0  0  0  0  0  0  0  0  0  0
    5.7354   -8.8134  -34.6146 C   0  0  0  0  0  0  0  0  0  0  0  0
   -1.6060   -7.0870  -33.4647 C   0  0  0  0  0  0  0  0  0  0  0  0
    1.7080   -8.7805  -32.9354 C   0  0  0  0  0  0  0  0  0  0  0  0
   -0.5487   -7.8406  -32.8422 O   0  0  0  0  0  0  0  0  0  0  0  0
    0.4924   -8.4124  -33.5502 C   0  0  0  0  0  0  0  0  0  0  0  0
    0.0604  -13.6207  -31.4348 O   0  5  0  0  0  0  0  0  0  0  0  0
    5.5629   -8.6400  -35.8102 O   0  0  0  0  0  0  0  0  0  0  0  0
    4.8799   -9.7372  -30.1708 O   0  5  0  0  0  0  0  0  0  0  0  0
   -1.1030   -6.0227  -34.1276 F   0  0  0  0  0  0  0  0  0  0  0  0
   -2.4386   -6.5987  -32.5211 F   0  0  0  0  0  0  0  0  0  0  0  0
    0.3137  -14.4030  -33.4381 O   0  0  0  0  0  0  0  0  0  0  0  0
    6.3673   -7.9325  -33.7824 O   0  0  0  0  0  0  0  0  0  0  0  0
    3.0727  -14.1496  -29.2317 C   0  0  0  0  0  0  0  0  0  0  0  0
    2.5547   -9.5811  -35.0678 C   0  0  0  0  0  0  0  0  0  0  0  0
    1.3518   -9.2021  -35.6828 C   0  0  0  0  0  0  0  0  0  0  0  0
    0.3228   -8.6220  -34.9269 C   0  0  0  0  0  0  0  0  0  0  0  0
    6.8670   -6.6957  -34.3216 C   0  0  0  0  0  0  0  0  0  0  0  0
    4.3009   -8.8976  -32.3955 H   0  0  0  0  0  0  0  0  0  0  0  0
    4.2819  -11.8663  -28.7835 H   0  0  0  0  0  0  0  0  0  0  0  0
    2.2699  -15.1424  -31.2628 H   0  0  0  0  0  0  0  0  0  0  0  0
    2.6765  -14.7412  -32.9245 H   0  0  0  0  0  0  0  0  0  0  0  0
    4.9917  -10.8123  -34.5794 H   0  0  0  0  0  0  0  0  0  0  0  0
    6.0688  -10.3953  -33.2414 H   0  0  0  0  0  0  0  0  0  0  0  0
   -2.1193   -7.7432  -34.1362 H   0  0  0  0  0  0  0  0  0  0  0  0
    1.8410   -8.6088  -31.9265 H   0  0  0  0  0  0  0  0  0  0  0  0
    3.4632  -13.8629  -28.2775 H   0  0  0  0  0  0  0  0  0  0  0  0
    3.5610  -15.0419  -29.5635 H   0  0  0  0  0  0  0  0  0  0  0  0
    2.0211  -14.3287  -29.1474 H   0  0  0  0  0  0  0  0  0  0  0  0
    3.3059  -10.0093  -35.6311 H   0  0  0  0  0  0  0  0  0  0  0  0
    1.2236   -9.3509  -36.6960 H   0  0  0  0  0  0  0  0  0  0  0  0
   -0.5609   -8.3487  -35.3844 H   0  0  0  0  0  0  0  0  0  0  0  0
    7.3296   -6.1277  -33.5418 H   0  0  0  0  0  0  0  0  0  0  0  0
    6.0565   -6.1351  -34.7384 H   0  0  0  0  0  0  0  0  0  0  0  0
    7.5863   -6.9046  -35.0857 H   0  0  0  0  0  0  0  0  0  0  0  0
  1  2  1  0  0  0  0
  1  4  2  0  0  0  0
  1  5  1  0  0  0  0
  2  3  1  0  0  0  0
  2 10  2  0  0  0  0
  3  9  1  0  0  0  0
  3  7  1  0  0  0  0
  4  6  1  0  0  0  0
  4 20  1  0  0  0  0
  5  8  1  0  0  0  0
  5 11  1  0  0  0  0
  5 30  1  1  0  0  0
  6  7  2  0  0  0  0
  6 31  1  0  0  0  0
  7 25  1  0  0  0  0
  8 15  2  0  0  0  0
  8 26  1  0  0  0  0
  9 12  1  0  0  0  0
  9 32  1  0  0  0  0
  9 33  1  0  0  0  0
 11 13  1  0  0  0  0
 11 34  1  0  0  0  0
 11 35  1  0  0  0  0
 12 18  1  0  0  0  0
 12 23  2  0  0  0  0
 13 19  2  0  0  0  0
 13 24  1  0  0  0  0
 14 16  1  0  0  0  0
 14 21  1  0  0  0  0
 14 22  1  0  0  0  0
 14 36  1  0  0  0  0
 15 17  1  0  0  0  0
 15 37  1  0  0  0  0
 16 17  1  0  0  0  0
 17 28  2  0  0  0  0
 24 29  1  0  0  0  0
 25 38  1  0  0  0  0
 25 39  1  0  0  0  0
 25 40  1  0  0  0  0
 26 27  2  0  0  0  0
 26 41  1  0  0  0  0
 27 28  1  0  0  0  0
 27 42  1  0  0  0  0
 28 43  1  0  0  0  0
 29 44  1  0  0  0  0
 29 45  1  0  0  0  0
 29 46  1  0  0  0  0
M  CHG  2  18  -1  20  -1
M  END
$$$$
