##########                                Name: HTS1710-04197911-01
##########                    Molecular_Weight:             437.817
##########                DOCK_Rotatable_Bonds:                   6
##########                       Formal_Charge:                  -2
##########                     HBond_Acceptors:                  12
##########                        HBond_Donors:                   1
##########                         Heavy_Atoms:                  29
##########                          Grid_Score:          -77.951462
##########                     Grid_vdw_energy:          -44.170780
##########                      Grid_es_energy:          -33.780685
##########           Internal_energy_repulsive:           12.867658

@<TRIPOS>MOLECULE
HTS1710-04197911-01
 41 43 1 0 0
SMALL
USER_CHARGES


@<TRIPOS>ATOM
      1 S           3.9855  -11.7633  -34.5105 S.O2    1  UNL1        0.0724
      2 N          -0.5317   -7.8153  -33.7355 N.am    1  UNL1       -0.2708
      3 C          -1.0062   -7.3136  -32.5353 C.2     1  UNL1        0.2205
      4 C           3.5318  -11.6567  -29.9073 C.ar    1  UNL1        0.0359
      5 C          -2.6668   -6.8328  -34.2239 C.3     1  UNL1        0.0230
      6 C          -1.3861   -7.4168  -34.8571 C.3     1  UNL1        0.0281
      7 N           3.6975  -12.9846  -33.3622 N.pl3   1  UNL1       -0.2148
      8 C           2.9558  -12.7979  -29.2984 C.ar    1  UNL1        0.1381
      9 C           3.8797  -10.4076  -29.1429 C.2     1  UNL1        0.0746
     10 C          -2.2329   -6.4451  -32.7857 C.3     1  UNL1        0.0338
     11 C          -3.3053   -5.7166  -35.0739 C.2     1  UNL1        0.0468
     12 N           2.6544  -13.9214  -29.9835 N.ar    1  UNL1       -0.2410
     13 C           2.6497  -10.5758  -34.2882 C.ar    1  UNL1        0.1086
     14 C           3.4687  -12.8744  -32.0066 C.ar    1  UNL1        0.0668
     15 C           0.5289   -8.7509  -33.9177 C.ar    1  UNL1        0.0364
     16 O           5.2981  -11.1910  -34.1954 O.2     1  UNL1       -0.1500
     17 O           3.7097  -12.4684  -35.7653 O.2     1  UNL1       -0.1500
     18 C           3.7991  -11.7119  -31.2877 C.ar    1  UNL1       -0.0261
     19 O          -0.5247   -7.5356  -31.4370 O.2     1  UNL1       -0.2752
     20 O           4.8479   -9.7673  -29.5134 O.co2   1  UNL1       -0.5445
     21 O          -3.0010   -4.5597  -34.8373 O.co2   1  UNL1       -0.5495
     22 C           2.9066  -13.9547  -31.3068 C.ar    1  UNL1        0.0516
     23 C           2.8289   -9.4404  -33.4782 C.ar    1  UNL1       -0.0333
     24 C           1.4121  -10.7936  -34.9174 C.ar    1  UNL1       -0.0333
     25 C           1.7738   -8.5323  -33.2969 C.ar    1  UNL1       -0.0384
     26 C           0.3578   -9.8860  -34.7350 C.ar    1  UNL1       -0.0384
     27 CL          2.6356  -12.8715  -27.5732 Cl      1  UNL1       -0.0613
     28 O           3.1766  -10.1344  -28.1849 O.co2   1  UNL1       -0.5445
     29 O          -4.0936   -6.0711  -35.9320 O.co2   1  UNL1       -0.5495
     30 H          -3.4787   -7.5285  -34.1833 H       1  UNL1        0.0380
     31 H          -0.8955   -6.6773  -35.4548 H       1  UNL1        0.0475
     32 H          -1.6062   -8.2450  -35.4979 H       1  UNL1        0.0475
     33 H           3.6934  -13.9031  -33.7166 H       1  UNL1        0.1737
     34 H          -1.9835   -5.4061  -32.7289 H       1  UNL1        0.0365
     35 H          -3.0061   -6.5991  -32.0623 H       1  UNL1        0.0365
     36 H           4.2329  -10.9078  -31.7674 H       1  UNL1        0.0644
     37 H           2.6760  -14.8137  -31.8303 H       1  UNL1        0.0849
     38 H           3.7370   -9.2745  -33.0166 H       1  UNL1        0.0638
     39 H           1.2783  -11.6240  -35.5155 H       1  UNL1        0.0638
     40 H           1.9115   -7.6986  -32.7044 H       1  UNL1        0.0637
     41 H          -0.5478  -10.0505  -35.2019 H       1  UNL1        0.0637
@<TRIPOS>BOND
     1     2    15    1
     2     2     3   am
     3     4    18   ar
     4     5     6    1
     5     2     6    1
     6     1     7    1
     7     4     8   ar
     8     4     9    1
     9     3    10    1
    10     5    11    1
    11    12    22   ar
    12     1    13    1
    13     7    14    1
    14    15    26   ar
    15     1    16    2
    16     1    17    2
    17    14    18   ar
    18     3    19    2
    19     9    20   ar
    20    11    21   ar
    21    14    22   ar
    22    13    23   ar
    23    13    24   ar
    24    23    25   ar
    25    24    26   ar
    26     8    27    1
    27     9    28   ar
    28    11    29   ar
    29    15    25   ar
    30     8    12   ar
    31     5    10    1
    32     5    30    1
    33     6    31    1
    34     6    32    1
    35     7    33    1
    36    10    34    1
    37    10    35    1
    38    18    36    1
    39    22    37    1
    40    23    38    1
    41    24    39    1
    42    25    40    1
    43    26    41    1
@<TRIPOS>SUBSTRUCTURE
     1 UNL1        1 TEMP              0 ****  ****    0 ROOT


