HTS1710-03692078-01
 OpenBabel03232612353D

 42 44  0  0  0  0  0  0  0  0999 V2000
    5.5727   -9.0847  -33.5921 C   0  0  0  0  0  0  0  0  0  0  0  0
    5.6974   -8.9776  -34.9506 C   0  0  0  0  0  0  0  0  0  0  0  0
    5.9449   -7.7994  -33.0702 C   0  0  0  0  0  0  0  0  0  0  0  0
    5.1091  -10.3409  -32.9532 C   0  0  0  0  0  0  0  0  0  0  0  0
    4.8002  -11.3355  -33.8933 N   0  0  0  0  0  0  0  0  0  0  0  0
    5.3972  -10.0088  -35.8026 N   0  0  0  0  0  0  0  0  0  0  0  0
    6.2569   -7.0861  -34.2151 C   0  0  0  0  0  0  0  0  0  0  0  0
    6.1260   -7.7628  -35.3963 O   0  0  0  0  0  0  0  0  0  0  0  0
    4.9618  -11.1427  -35.2727 C   0  0  0  0  0  0  0  0  0  0  0  0
    2.7002  -12.5767  -33.6820 C   0  0  0  0  0  0  0  0  0  0  0  0
    5.9691   -7.3131  -31.6577 C   0  0  0  0  0  0  0  0  0  0  0  0
    4.2181  -12.6197  -33.4482 C   0  0  0  0  0  0  0  0  0  0  0  0
    1.9345  -13.4347  -32.8967 N   0  0  0  0  0  0  0  0  0  0  0  0
    4.9947  -10.5092  -31.7523 O   0  0  0  0  0  0  0  0  0  0  0  0
    2.1969  -11.7062  -34.3714 O   0  0  0  0  0  0  0  0  0  0  0  0
    2.5715  -14.3203  -31.9079 C   0  0  0  0  0  0  0  0  0  0  0  0
    6.2647   -8.1052  -30.7822 O   0  5  0  0  0  0  0  0  0  0  0  0
    5.6972   -6.1484  -31.4418 O   0  0  0  0  0  0  0  0  0  0  0  0
    6.6941   -5.6430  -34.2697 C   0  0  0  0  0  0  0  0  0  0  0  0
    2.6145  -13.6778  -30.5281 C   0  0  0  0  0  0  0  0  0  0  0  0
    0.4738  -13.5786  -33.0419 C   0  0  0  0  0  0  0  0  0  0  0  0
    2.6395  -12.2767  -30.3968 C   0  0  0  0  0  0  0  0  0  0  0  0
    2.6565  -14.4805  -29.3741 C   0  0  0  0  0  0  0  0  0  0  0  0
    2.7044  -13.8892  -28.1010 C   0  0  0  0  0  0  0  0  0  0  0  0
    2.6861  -11.6858  -29.1241 C   0  0  0  0  0  0  0  0  0  0  0  0
    2.7137  -12.4921  -27.9754 C   0  0  0  0  0  0  0  0  0  0  0  0
    4.7301  -11.9230  -35.9072 H   0  0  0  0  0  0  0  0  0  0  0  0
    4.6466  -13.4237  -34.0095 H   0  0  0  0  0  0  0  0  0  0  0  0
    4.4239  -12.7740  -32.4097 H   0  0  0  0  0  0  0  0  0  0  0  0
    3.5716  -14.5319  -32.2241 H   0  0  0  0  0  0  0  0  0  0  0  0
    1.9944  -15.2189  -31.8415 H   0  0  0  0  0  0  0  0  0  0  0  0
    6.7512   -5.2499  -33.2762 H   0  0  0  0  0  0  0  0  0  0  0  0
    5.9853   -5.0768  -34.8371 H   0  0  0  0  0  0  0  0  0  0  0  0
    7.6558   -5.5790  -34.7344 H   0  0  0  0  0  0  0  0  0  0  0  0
    0.1195  -12.8915  -33.7817 H   0  0  0  0  0  0  0  0  0  0  0  0
    0.0001  -13.3701  -32.1055 H   0  0  0  0  0  0  0  0  0  0  0  0
    0.2422  -14.5786  -33.3440 H   0  0  0  0  0  0  0  0  0  0  0  0
    2.6234  -11.6812  -31.2395 H   0  0  0  0  0  0  0  0  0  0  0  0
    2.6521  -15.5087  -29.4631 H   0  0  0  0  0  0  0  0  0  0  0  0
    2.7328  -14.4830  -27.2574 H   0  0  0  0  0  0  0  0  0  0  0  0
    2.7000  -10.6579  -29.0330 H   0  0  0  0  0  0  0  0  0  0  0  0
    2.7410  -12.0577  -27.0397 H   0  0  0  0  0  0  0  0  0  0  0  0
  1  2  2  0  0  0  0
  1  3  1  0  0  0  0
  1  4  1  0  0  0  0
  2  6  1  0  0  0  0
  2  8  1  0  0  0  0
  3  7  2  0  0  0  0
  3 11  1  0  0  0  0
  4  5  1  0  0  0  0
  4 14  2  0  0  0  0
  5  9  1  0  0  0  0
  5 12  1  0  0  0  0
  6  9  2  0  0  0  0
  7 19  1  0  0  0  0
  7  8  1  0  0  0  0
  9 27  1  0  0  0  0
 10 12  1  0  0  0  0
 10 13  1  0  0  0  0
 10 15  2  0  0  0  0
 11 17  1  0  0  0  0
 11 18  2  0  0  0  0
 12 28  1  0  0  0  0
 12 29  1  0  0  0  0
 13 16  1  0  0  0  0
 13 21  1  0  0  0  0
 16 20  1  0  0  0  0
 16 30  1  0  0  0  0
 16 31  1  0  0  0  0
 19 32  1  0  0  0  0
 19 33  1  0  0  0  0
 19 34  1  0  0  0  0
 20 22  2  0  0  0  0
 20 23  1  0  0  0  0
 21 35  1  0  0  0  0
 21 36  1  0  0  0  0
 21 37  1  0  0  0  0
 22 25  1  0  0  0  0
 22 38  1  0  0  0  0
 23 24  2  0  0  0  0
 23 39  1  0  0  0  0
 24 26  1  0  0  0  0
 24 40  1  0  0  0  0
 25 26  2  0  0  0  0
 25 41  1  0  0  0  0
 26 42  1  0  0  0  0
M  CHG  1  17  -1
M  END
$$$$
