HTS1710-04005475-01
 OpenBabel03232612353D

 40 41  0  0  0  0  0  0  0  0999 V2000
    2.5461  -12.5687  -33.1812 S   0  0  0  0  0  0  0  0  0  0  0  0
    3.3275  -11.2436  -32.2403 C   0  0  0  0  0  0  0  0  0  0  0  0
    2.8140  -12.1891  -34.8190 N   0  0  0  0  0  0  0  0  0  0  0  0
    3.6147  -10.0642  -30.1192 C   0  0  0  0  0  0  0  0  0  0  0  0
    4.7745   -9.2778  -32.1412 C   0  0  0  0  0  0  0  0  0  0  0  0
    5.7016   -8.2975  -32.8211 C   0  0  0  0  0  0  0  0  0  0  0  0
    3.2927   -9.9180  -28.6480 C   0  0  0  0  0  0  0  0  0  0  0  0
   -0.0873   -8.1738  -35.2948 C   0  0  0  0  0  0  0  0  0  0  0  0
    3.0482  -11.1132  -30.8713 C   0  0  0  0  0  0  0  0  0  0  0  0
    4.1875  -10.3299  -32.8732 C   0  0  0  0  0  0  0  0  0  0  0  0
    4.4791   -9.1541  -30.7661 C   0  0  0  0  0  0  0  0  0  0  0  0
    3.1838  -13.8664  -32.9373 O   0  0  0  0  0  0  0  0  0  0  0  0
    1.1008  -12.3598  -33.0648 O   0  0  0  0  0  0  0  0  0  0  0  0
    1.0061   -9.0894  -35.7902 C   0  0  0  0  0  0  0  0  0  0  0  0
    2.4269  -11.0687  -35.5243 C   0  0  0  0  0  0  0  0  0  0  0  0
    1.4153  -10.2155  -35.0429 C   0  0  0  0  0  0  0  0  0  0  0  0
    2.7404  -10.8533  -28.0939 O   0  5  0  0  0  0  0  0  0  0  0  0
    5.8178   -8.3805  -34.0320 O   0  5  0  0  0  0  0  0  0  0  0  0
   -0.6258   -7.3440  -36.0098 O   0  0  0  0  0  0  0  0  0  0  0  0
    3.6057   -8.8730  -28.1040 O   0  0  0  0  0  0  0  0  0  0  0  0
    6.2743   -7.4821  -32.1183 O   0  0  0  0  0  0  0  0  0  0  0  0
   -0.4052   -8.3632  -33.9777 O   0  0  0  0  0  0  0  0  0  0  0  0
    1.6422   -8.8210  -37.0195 C   0  0  0  0  0  0  0  0  0  0  0  0
    2.6678   -9.6559  -37.4886 C   0  0  0  0  0  0  0  0  0  0  0  0
    3.0624  -10.7755  -36.7423 C   0  0  0  0  0  0  0  0  0  0  0  0
   -0.9985   -7.2861  -33.2295 C   0  0  0  0  0  0  0  0  0  0  0  0
   -2.5064   -7.2589  -33.5371 C   0  0  0  0  0  0  0  0  0  0  0  0
    3.3145  -12.8626  -35.3341 H   0  0  0  0  0  0  0  0  0  0  0  0
    2.4220  -11.7920  -30.4105 H   0  0  0  0  0  0  0  0  0  0  0  0
    4.3906  -10.4299  -33.8800 H   0  0  0  0  0  0  0  0  0  0  0  0
    4.9025   -8.3848  -30.2240 H   0  0  0  0  0  0  0  0  0  0  0  0
    0.9684  -10.4153  -34.1344 H   0  0  0  0  0  0  0  0  0  0  0  0
    1.3513   -8.0040  -37.5788 H   0  0  0  0  0  0  0  0  0  0  0  0
    3.1329   -9.4453  -38.3853 H   0  0  0  0  0  0  0  0  0  0  0  0
    3.8203  -11.3846  -37.0882 H   0  0  0  0  0  0  0  0  0  0  0  0
   -0.5534   -6.3567  -33.5179 H   0  0  0  0  0  0  0  0  0  0  0  0
   -0.8380   -7.4321  -32.1817 H   0  0  0  0  0  0  0  0  0  0  0  0
   -2.6538   -7.1125  -34.5867 H   0  0  0  0  0  0  0  0  0  0  0  0
   -2.9662   -6.4577  -32.9971 H   0  0  0  0  0  0  0  0  0  0  0  0
   -2.9475   -8.1878  -33.2412 H   0  0  0  0  0  0  0  0  0  0  0  0
  1  2  1  0  0  0  0
  1  3  1  0  0  0  0
  1 12  2  0  0  0  0
  1 13  2  0  0  0  0
  2  9  2  0  0  0  0
  2 10  1  0  0  0  0
  3 15  1  0  0  0  0
  3 28  1  0  0  0  0
  4  9  1  0  0  0  0
  4  7  1  0  0  0  0
  4 11  2  0  0  0  0
  5 10  2  0  0  0  0
  5  6  1  0  0  0  0
  5 11  1  0  0  0  0
  6 18  1  0  0  0  0
  6 21  2  0  0  0  0
  7 17  1  0  0  0  0
  7 20  2  0  0  0  0
  8 14  1  0  0  0  0
  8 19  2  0  0  0  0
  8 22  1  0  0  0  0
  9 29  1  0  0  0  0
 10 30  1  0  0  0  0
 11 31  1  0  0  0  0
 14 16  2  0  0  0  0
 14 23  1  0  0  0  0
 15 16  1  0  0  0  0
 15 25  2  0  0  0  0
 16 32  1  0  0  0  0
 22 26  1  0  0  0  0
 23 24  2  0  0  0  0
 23 33  1  0  0  0  0
 24 25  1  0  0  0  0
 24 34  1  0  0  0  0
 25 35  1  0  0  0  0
 26 27  1  0  0  0  0
 26 36  1  0  0  0  0
 26 37  1  0  0  0  0
 27 38  1  0  0  0  0
 27 39  1  0  0  0  0
 27 40  1  0  0  0  0
M  CHG  2  17  -1  18  -1
M  END
$$$$
