##########                                Name: HTS1710-00964102-01
##########                    Molecular_Weight:             452.465
##########                DOCK_Rotatable_Bonds:                   6
##########                       Formal_Charge:                  -2
##########                     HBond_Acceptors:                  12
##########                        HBond_Donors:                   0
##########                         Heavy_Atoms:                  30
##########                          Grid_Score:          -75.947495
##########                     Grid_vdw_energy:          -45.433376
##########                      Grid_es_energy:          -30.514120
##########           Internal_energy_repulsive:           10.820304

@<TRIPOS>MOLECULE
HTS1710-00964102-01
 46 48 1 0 0
SMALL
USER_CHARGES


@<TRIPOS>ATOM
      1 S          -2.2017   -6.9967  -33.6618 S.O2    1  UNL1        0.0609
      2 S           3.3617   -9.8737  -33.5880 S.O2    1  UNL1        0.0609
      3 N           1.9693   -8.8963  -33.7238 N.3     1  UNL1       -0.1740
      4 N          -0.7685   -7.9172  -33.5575 N.3     1  UNL1       -0.1740
      5 C          -1.6308   -5.4425  -34.3746 C.ar    1  UNL1        0.1061
      6 C           2.9480  -11.0000  -32.2399 C.ar    1  UNL1        0.1061
      7 C           3.0736  -11.0429  -28.4067 C.2     1  UNL1        0.0717
      8 C          -0.5584   -4.1102  -37.8100 C.2     1  UNL1        0.0717
      9 C           1.4467   -8.3128  -32.4652 C.3     1  UNL1        0.0349
     10 C           0.2956   -7.3140  -32.7306 C.3     1  UNL1        0.0349
     11 C           0.9015   -9.4796  -34.5642 C.3     1  UNL1        0.0349
     12 C          -0.2455   -8.4772  -34.8235 C.3     1  UNL1        0.0349
     13 C          -1.3458   -5.3747  -35.7506 C.ar    1  UNL1       -0.0265
     14 C           3.1541  -10.6023  -30.9063 C.ar    1  UNL1       -0.0265
     15 O          -3.0234   -7.6375  -34.6926 O.2     1  UNL1       -0.1528
     16 O          -2.6949   -6.7769  -32.2976 O.2     1  UNL1       -0.1528
     17 O           4.4278   -9.0011  -33.0868 O.2     1  UNL1       -0.1528
     18 O           3.4941  -10.6278  -34.8387 O.2     1  UNL1       -0.1528
     19 C          -0.8748   -4.1769  -36.3314 C.ar    1  UNL1       -0.0008
     20 C           2.8359  -11.4689  -29.8388 C.ar    1  UNL1       -0.0008
     21 O           3.2921   -9.8622  -28.1988 O.co2   1  UNL1       -0.5446
     22 O          -0.3112   -3.0154  -38.2858 O.co2   1  UNL1       -0.5446
     23 O          -0.5689   -5.1565  -38.4355 O.co2   1  UNL1       -0.5446
     24 O           3.0295  -11.9075  -27.5473 O.co2   1  UNL1       -0.5446
     25 C          -1.4484   -4.3091  -33.5640 C.ar    1  UNL1       -0.0353
     26 C           2.4128  -12.2694  -32.5156 C.ar    1  UNL1       -0.0353
     27 C           2.2963  -12.7402  -30.1323 C.ar    1  UNL1       -0.0528
     28 C          -0.7016   -3.0448  -35.5039 C.ar    1  UNL1       -0.0528
     29 C           2.0857  -13.1347  -31.4626 C.ar    1  UNL1       -0.0593
     30 C          -0.9858   -3.1136  -34.1312 C.ar    1  UNL1       -0.0593
     31 H           1.0831   -9.1029  -31.8418 H       1  UNL1        0.0457
     32 H           2.2441   -7.7828  -31.9876 H       1  UNL1        0.0457
     33 H           0.6885   -6.4590  -33.2401 H       1  UNL1        0.0457
     34 H          -0.1298   -7.0360  -31.7890 H       1  UNL1        0.0457
     35 H           0.5027  -10.3397  -34.0680 H       1  UNL1        0.0457
     36 H           1.3309   -9.7412  -35.5087 H       1  UNL1        0.0457
     37 H          -1.0388   -8.9806  -35.3358 H       1  UNL1        0.0457
     38 H           0.1375   -7.6723  -35.4155 H       1  UNL1        0.0457
     39 H          -1.4825   -6.2094  -36.3419 H       1  UNL1        0.0643
     40 H           3.5420   -9.6671  -30.7064 H       1  UNL1        0.0643
     41 H          -1.6545   -4.3569  -32.5539 H       1  UNL1        0.0637
     42 H           2.2607  -12.5645  -33.4926 H       1  UNL1        0.0637
     43 H           2.0549  -13.3842  -29.3628 H       1  UNL1        0.0624
     44 H          -0.3630   -2.1596  -35.9123 H       1  UNL1        0.0624
     45 H           1.6885  -14.0653  -31.6662 H       1  UNL1        0.0618
     46 H          -0.8536   -2.2804  -33.5368 H       1  UNL1        0.0618
@<TRIPOS>BOND
     1     2     3    1
     2     3    11    1
     3     1     4    1
     4     1     5    1
     5     2     6    1
     6     7    20    1
     7     8    19    1
     8     9    10    1
     9     4    10    1
    10    11    12    1
    11     4    12    1
    12     5    13   ar
    13     6    14   ar
    14     1    15    2
    15     1    16    2
    16     2    17    2
    17     2    18    2
    18    13    19   ar
    19    14    20   ar
    20     7    21   ar
    21     8    22   ar
    22     8    23   ar
    23     7    24   ar
    24     5    25   ar
    25     6    26   ar
    26    27    29   ar
    27    28    30   ar
    28    26    29   ar
    29    25    30   ar
    30     3     9    1
    31    19    28   ar
    32    20    27   ar
    33     9    31    1
    34     9    32    1
    35    10    33    1
    36    10    34    1
    37    11    35    1
    38    11    36    1
    39    12    37    1
    40    12    38    1
    41    13    39    1
    42    14    40    1
    43    25    41    1
    44    26    42    1
    45    27    43    1
    46    28    44    1
    47    29    45    1
    48    30    46    1
@<TRIPOS>SUBSTRUCTURE
     1 UNL1        1 TEMP              0 ****  ****    0 ROOT


