##########                                Name: HTS1710-05399061-01
##########                    Molecular_Weight:             343.381
##########                DOCK_Rotatable_Bonds:                   5
##########                       Formal_Charge:                  -2
##########                     HBond_Acceptors:                   9
##########                        HBond_Donors:                   1
##########                         Heavy_Atoms:                  23
##########                          Grid_Score:          -77.027138
##########                     Grid_vdw_energy:          -41.292263
##########                      Grid_es_energy:          -35.734875
##########           Internal_energy_repulsive:           11.521639

@<TRIPOS>MOLECULE
HTS1710-05399061-01
 42 43 1 0 0
SMALL
USER_CHARGES


@<TRIPOS>ATOM
      1 C           2.1856  -14.7938  -29.0084 C.3     1  UNL1        0.0058
      2 N           3.5529  -14.2588  -29.0746 N.3     1  UNL1       -0.1941
      3 S           3.8644  -12.7779  -28.2965 S.O2    1  UNL1        0.0456
      4 O           5.3080  -12.7793  -28.0411 O.2     1  UNL1       -0.1542
      5 O           2.8554  -12.7164  -27.2354 O.2     1  UNL1       -0.1542
      6 C           3.4754  -11.5164  -29.5046 C.2     1  UNL1        0.0444
      7 C           2.7682  -11.7226  -30.6601 C.2     1  UNL1       -0.0379
      8 C           2.6631  -10.4503  -31.2871 C.2     1  UNL1        0.0268
      9 C           1.9313  -10.0927  -32.5342 C.2     1  UNL1        0.2460
     10 O           0.8173   -9.5959  -32.5225 O.2     1  UNL1       -0.2700
     11 N           2.5802  -10.4166  -33.7284 N.am    1  UNL1       -0.2942
     12 C           3.9101  -11.0731  -33.6812 C.3     1  UNL1        0.0232
     13 C           4.8197  -10.6846  -34.8830 C.3     1  UNL1        0.0144
     14 C           4.0835  -10.9123  -36.2260 C.3     1  UNL1       -0.0420
     15 C           2.7038  -10.2132  -36.2379 C.3     1  UNL1       -0.0339
     16 C           1.8332  -10.5916  -35.0088 C.3     1  UNL1        0.0235
     17 C           1.2831  -12.0364  -35.1381 C.3     1  UNL1       -0.0464
     18 C           5.3597   -9.2359  -34.7928 C.2     1  UNL1        0.0463
     19 O           5.4456   -8.5809  -35.8176 O.co2   1  UNL1       -0.5495
     20 O           5.6332   -8.8263  -33.6780 O.co2   1  UNL1       -0.5495
     21 C           3.3117   -9.6113  -30.4084 C.2     1  UNL1       -0.1078
     22 C           3.4726   -8.1227  -30.5819 C.3     1  UNL1       -0.0523
     23 O           3.8482  -10.2139  -29.3014 O.co2   1  UNL1       -0.7696
     24 H           2.1400  -15.7225  -29.5379 H       1  UNL1        0.0405
     25 H           1.5077  -14.0958  -29.4535 H       1  UNL1        0.0405
     26 H           1.9138  -14.9525  -27.9858 H       1  UNL1        0.0405
     27 H           3.7853  -14.1392  -30.0605 H       1  UNL1        0.1476
     28 H           2.3891  -12.6184  -31.0051 H       1  UNL1        0.0632
     29 H           3.7680  -12.1336  -33.6893 H       1  UNL1        0.0471
     30 H           4.3995  -10.7441  -32.7883 H       1  UNL1        0.0471
     31 H           5.6718  -11.3302  -34.8387 H       1  UNL1        0.0376
     32 H           3.9429  -11.9628  -36.3724 H       1  UNL1        0.0272
     33 H           4.6790  -10.4963  -37.0117 H       1  UNL1        0.0272
     34 H           2.1827  -10.4981  -37.1280 H       1  UNL1        0.0283
     35 H           2.8745   -9.1575  -36.2020 H       1  UNL1        0.0283
     36 H           1.0009   -9.9196  -34.9887 H       1  UNL1        0.0498
     37 H           2.0991  -12.7281  -35.1602 H       1  UNL1        0.0248
     38 H           0.7174  -12.1230  -36.0422 H       1  UNL1        0.0248
     39 H           0.6533  -12.2545  -34.3010 H       1  UNL1        0.0248
     40 H           2.9989   -7.8163  -31.4911 H       1  UNL1        0.0266
     41 H           4.5136   -7.8788  -30.6225 H       1  UNL1        0.0266
     42 H           3.0195   -7.6163  -29.7554 H       1  UNL1        0.0266
@<TRIPOS>BOND
     1     1     2    1
     2     2     3    1
     3     3     4    2
     4     3     5    2
     5     3     6    1
     6     6     7    2
     7     7     8    1
     8     8     9    1
     9     9    10    2
    10     9    11   am
    11    11    12    1
    12    12    13    1
    13    13    14    1
    14    14    15    1
    15    15    16    1
    16    11    16    1
    17    16    17    1
    18    13    18    1
    19    18    19   ar
    20    18    20   ar
    21     8    21    2
    22    21    22    1
    23    21    23    1
    24     6    23    1
    25     1    24    1
    26     1    25    1
    27     1    26    1
    28     2    27    1
    29     7    28    1
    30    12    29    1
    31    12    30    1
    32    13    31    1
    33    14    32    1
    34    14    33    1
    35    15    34    1
    36    15    35    1
    37    16    36    1
    38    17    37    1
    39    17    38    1
    40    17    39    1
    41    22    40    1
    42    22    41    1
    43    22    42    1
@<TRIPOS>SUBSTRUCTURE
     1 UNL1        1 TEMP              0 ****  ****    0 ROOT


