HTS1710-01254344-01
 OpenBabel03232612343D

 47 49  0  0  1  0  0  0  0  0999 V2000
    5.2847   -7.8820  -31.8028 C   0  0  0  0  0  0  0  0  0  0  0  0
    5.3369   -8.7822  -32.8533 C   0  0  0  0  0  0  0  0  0  0  0  0
    4.3843  -10.4987  -31.2668 C   0  0  0  0  0  0  0  0  0  0  0  0
    4.4047   -9.5141  -30.3160 C   0  0  0  0  0  0  0  0  0  0  0  0
    4.7821  -10.1733  -32.7108 C   0  0  1  0  0  0  0  0  0  0  0  0
    4.7790   -8.2207  -30.5704 O   0  0  0  0  0  0  0  0  0  0  0  0
    3.6124  -10.3894  -33.6849 C   0  0  0  0  0  0  0  0  0  0  0  0
    5.7621   -6.5029  -31.9715 C   0  0  0  0  0  0  0  0  0  0  0  0
    5.8367   -8.4796  -34.1057 O   0  0  0  0  0  0  0  0  0  0  0  0
    6.2682   -6.2255  -33.3127 C   0  0  0  0  0  0  0  0  0  0  0  0
    3.9958  -11.9557  -31.0503 C   0  0  0  0  0  0  0  0  0  0  0  0
    6.2851   -7.1900  -34.2943 C   0  0  0  0  0  0  0  0  0  0  0  0
    3.7618  -11.1795  -34.8480 C   0  0  0  0  0  0  0  0  0  0  0  0
    2.3641   -9.7955  -33.4061 C   0  0  0  0  0  0  0  0  0  0  0  0
    4.0616   -9.7422  -29.0038 N   0  0  0  0  0  0  0  0  0  0  0  0
    5.7372   -5.6659  -31.0856 O   0  0  0  0  0  0  0  0  0  0  0  0
    4.5479  -12.8777  -31.6305 O   0  0  0  0  0  0  0  0  0  0  0  0
    2.6624  -11.3649  -35.7143 C   0  0  0  0  0  0  0  0  0  0  0  0
    1.2713   -9.9779  -34.2779 C   0  0  0  0  0  0  0  0  0  0  0  0
    2.9728  -12.1541  -30.1636 O   0  0  0  0  0  0  0  0  0  0  0  0
    1.4279  -10.7662  -35.4264 C   0  0  0  0  0  0  0  0  0  0  0  0
    4.9897  -11.7593  -35.1102 O   0  0  0  0  0  0  0  0  0  0  0  0
    6.8095   -6.8555  -35.6662 C   0  0  0  0  0  0  0  0  0  0  0  0
    0.0358   -9.4035  -34.0447 O   0  0  0  0  0  0  0  0  0  0  0  0
    6.5679   -5.4885  -35.9860 O   0  0  0  0  0  0  0  0  0  0  0  0
    2.7338  -13.4717  -29.6356 C   0  0  0  0  0  0  0  0  0  0  0  0
    5.1530  -12.9757  -35.8588 C   0  0  0  0  0  0  0  0  0  0  0  0
   -0.4014   -8.1941  -34.6877 C   0  0  0  0  0  0  0  0  0  0  0  0
    5.5629  -10.8586  -32.9671 H   0  0  0  0  0  0  0  0  0  0  0  0
    6.6228   -5.2810  -33.5304 H   0  0  0  0  0  0  0  0  0  0  0  0
    2.2495   -9.2220  -32.5558 H   0  0  0  0  0  0  0  0  0  0  0  0
    4.0981   -9.0066  -28.3505 H   0  0  0  0  0  0  0  0  0  0  0  0
    3.7794  -10.6410  -28.7179 H   0  0  0  0  0  0  0  0  0  0  0  0
    2.7680  -11.9433  -36.5624 H   0  0  0  0  0  0  0  0  0  0  0  0
    0.6290  -10.9068  -36.0644 H   0  0  0  0  0  0  0  0  0  0  0  0
    6.3206   -7.4754  -36.3884 H   0  0  0  0  0  0  0  0  0  0  0  0
    7.8656   -7.0268  -35.6784 H   0  0  0  0  0  0  0  0  0  0  0  0
    7.1493   -4.9241  -35.4527 H   0  0  0  0  0  0  0  0  0  0  0  0
    1.9021  -13.4410  -28.9630 H   0  0  0  0  0  0  0  0  0  0  0  0
    3.6036  -13.8093  -29.1118 H   0  0  0  0  0  0  0  0  0  0  0  0
    2.5179  -14.1443  -30.4393 H   0  0  0  0  0  0  0  0  0  0  0  0
    6.1933  -13.2171  -35.9245 H   0  0  0  0  0  0  0  0  0  0  0  0
    4.7544  -12.8449  -36.8432 H   0  0  0  0  0  0  0  0  0  0  0  0
    4.6328  -13.7704  -35.3661 H   0  0  0  0  0  0  0  0  0  0  0  0
   -1.3861   -7.9466  -34.3502 H   0  0  0  0  0  0  0  0  0  0  0  0
   -0.4133   -8.3381  -35.7479 H   0  0  0  0  0  0  0  0  0  0  0  0
    0.2700   -7.3976  -34.4436 H   0  0  0  0  0  0  0  0  0  0  0  0
  1  2  2  0  0  0  0
  1  6  1  0  0  0  0
  1  8  1  0  0  0  0
  2  5  1  0  0  0  0
  2  9  1  0  0  0  0
  3  4  2  0  0  0  0
  3 11  1  0  0  0  0
  3  5  1  0  0  0  0
  4  6  1  0  0  0  0
  4 15  1  0  0  0  0
  5  7  1  0  0  0  0
  5 29  1  6  0  0  0
  7 13  2  0  0  0  0
  7 14  1  0  0  0  0
  8 10  1  0  0  0  0
  8 16  2  0  0  0  0
  9 12  1  0  0  0  0
 10 12  2  0  0  0  0
 10 30  1  0  0  0  0
 11 17  2  0  0  0  0
 11 20  1  0  0  0  0
 12 23  1  0  0  0  0
 13 18  1  0  0  0  0
 13 22  1  0  0  0  0
 14 19  2  0  0  0  0
 14 31  1  0  0  0  0
 15 32  1  0  0  0  0
 15 33  1  0  0  0  0
 18 21  2  0  0  0  0
 18 34  1  0  0  0  0
 19 21  1  0  0  0  0
 19 24  1  0  0  0  0
 20 26  1  0  0  0  0
 21 35  1  0  0  0  0
 22 27  1  0  0  0  0
 23 25  1  0  0  0  0
 23 36  1  0  0  0  0
 23 37  1  0  0  0  0
 24 28  1  0  0  0  0
 25 38  1  0  0  0  0
 26 39  1  0  0  0  0
 26 40  1  0  0  0  0
 26 41  1  0  0  0  0
 27 42  1  0  0  0  0
 27 43  1  0  0  0  0
 27 44  1  0  0  0  0
 28 45  1  0  0  0  0
 28 46  1  0  0  0  0
 28 47  1  0  0  0  0
M  END
$$$$
