HTS1710-00179738-01
 OpenBabel03232612353D

 32 33  0  0  0  0  0  0  0  0999 V2000
    1.5909  -11.0777  -33.6391 S   0  0  0  0  0  0  0  0  0  0  0  0
    2.7629  -11.9050  -29.7993 C   0  0  0  0  0  0  0  0  0  0  0  0
    5.3573   -8.3962  -32.9612 C   0  0  0  0  0  0  0  0  0  0  0  0
    1.9843  -11.9558  -32.1151 C   0  0  0  0  0  0  0  0  0  0  0  0
    2.4371  -11.2367  -30.9946 C   0  0  0  0  0  0  0  0  0  0  0  0
    3.0684  -10.9120  -34.4654 N   0  0  0  0  0  0  0  0  0  0  0  0
    3.2355  -11.0970  -28.6237 C   0  0  0  0  0  0  0  0  0  0  0  0
    5.6418   -7.8232  -31.5942 C   0  0  0  0  0  0  0  0  0  0  0  0
    0.7055  -11.8522  -34.5150 O   0  0  0  0  0  0  0  0  0  0  0  0
    1.3096   -9.6899  -33.2587 O   0  0  0  0  0  0  0  0  0  0  0  0
    2.6434  -13.3115  -29.7402 C   0  0  0  0  0  0  0  0  0  0  0  0
    6.0448   -7.9691  -34.1230 C   0  0  0  0  0  0  0  0  0  0  0  0
    4.3654   -9.3898  -33.0809 C   0  0  0  0  0  0  0  0  0  0  0  0
    4.0475   -9.9494  -34.3337 C   0  0  0  0  0  0  0  0  0  0  0  0
    2.7259  -11.3284  -27.5409 O   0  5  0  0  0  0  0  0  0  0  0  0
    5.7383   -8.6159  -30.6737 O   0  5  0  0  0  0  0  0  0  0  0  0
    1.8572  -13.3530  -32.0438 C   0  0  0  0  0  0  0  0  0  0  0  0
    2.1906  -14.0276  -30.8606 C   0  0  0  0  0  0  0  0  0  0  0  0
    5.7428   -8.5464  -35.3683 C   0  0  0  0  0  0  0  0  0  0  0  0
    5.7731   -6.6149  -31.5000 O   0  0  0  0  0  0  0  0  0  0  0  0
    4.0833  -10.2496  -28.8430 O   0  0  0  0  0  0  0  0  0  0  0  0
    4.7525   -9.5332  -35.4741 C   0  0  0  0  0  0  0  0  0  0  0  0
    3.0827  -14.2088  -28.2947 Cl  0  0  0  0  0  0  0  0  0  0  0  0
    6.9946   -6.9885  -34.0677 O   0  0  0  0  0  0  0  0  0  0  0  0
    2.5312  -10.2105  -31.0491 H   0  0  0  0  0  0  0  0  0  0  0  0
    3.2522  -11.6069  -35.1380 H   0  0  0  0  0  0  0  0  0  0  0  0
    3.8644   -9.7123  -32.2382 H   0  0  0  0  0  0  0  0  0  0  0  0
    1.5184  -13.8828  -32.8620 H   0  0  0  0  0  0  0  0  0  0  0  0
    2.1030  -15.0548  -30.8127 H   0  0  0  0  0  0  0  0  0  0  0  0
    6.2539   -8.2415  -36.2114 H   0  0  0  0  0  0  0  0  0  0  0  0
    4.5415   -9.9545  -36.3923 H   0  0  0  0  0  0  0  0  0  0  0  0
    7.2579   -6.5465  -34.8509 H   0  0  0  0  0  0  0  0  0  0  0  0
  1  4  1  0  0  0  0
  1  6  1  0  0  0  0
  1  9  2  0  0  0  0
  1 10  2  0  0  0  0
  2  5  2  0  0  0  0
  2  7  1  0  0  0  0
  2 11  1  0  0  0  0
  3 13  2  0  0  0  0
  3  8  1  0  0  0  0
  3 12  1  0  0  0  0
  4  5  1  0  0  0  0
  4 17  2  0  0  0  0
  5 25  1  0  0  0  0
  6 14  1  0  0  0  0
  6 26  1  0  0  0  0
  7 15  1  0  0  0  0
  7 21  2  0  0  0  0
  8 16  1  0  0  0  0
  8 20  2  0  0  0  0
 11 18  2  0  0  0  0
 11 23  1  0  0  0  0
 12 19  2  0  0  0  0
 12 24  1  0  0  0  0
 13 14  1  0  0  0  0
 13 27  1  0  0  0  0
 14 22  2  0  0  0  0
 17 18  1  0  0  0  0
 17 28  1  0  0  0  0
 18 29  1  0  0  0  0
 19 22  1  0  0  0  0
 19 30  1  0  0  0  0
 22 31  1  0  0  0  0
 24 32  1  0  0  0  0
M  CHG  2  15  -1  16  -1
M  END
$$$$
