HTS1710-02528453-01
 OpenBabel03232612353D

 38 39  0  0  0  0  0  0  0  0999 V2000
    3.8829  -10.4601  -31.7996 C   0  0  0  0  0  0  0  0  0  0  0  0
    5.1611   -8.8333  -32.8511 C   0  0  0  0  0  0  0  0  0  0  0  0
    4.1719   -9.8069  -32.9989 N   0  0  0  0  0  0  0  0  0  0  0  0
    4.6619   -9.8247  -30.8591 C   0  0  0  0  0  0  0  0  0  0  0  0
    5.4475   -8.8274  -31.5039 C   0  0  0  0  0  0  0  0  0  0  0  0
    5.7492   -7.9915  -33.9277 C   0  0  0  0  0  0  0  0  0  0  0  0
    2.9322  -11.5892  -31.6066 C   0  0  0  0  0  0  0  0  0  0  0  0
    3.7975  -10.3125  -34.2386 C   0  0  0  0  0  0  0  0  0  0  0  0
    6.3348   -8.0407  -30.8585 O   0  5  0  0  0  0  0  0  0  0  0  0
    4.7267  -10.0863  -29.5351 O   0  5  0  0  0  0  0  0  0  0  0  0
    5.8364   -8.3468  -35.0926 O   0  0  0  0  0  0  0  0  0  0  0  0
    1.9457  -11.7695  -32.3033 O   0  0  0  0  0  0  0  0  0  0  0  0
    3.2644  -12.4131  -30.5654 O   0  0  0  0  0  0  0  0  0  0  0  0
    6.1866   -6.7710  -33.4897 O   0  0  0  0  0  0  0  0  0  0  0  0
    4.5841  -11.2998  -34.8566 C   0  0  0  0  0  0  0  0  0  0  0  0
    2.6343   -9.8314  -34.8644 C   0  0  0  0  0  0  0  0  0  0  0  0
    2.4600  -13.5729  -30.2819 C   0  0  0  0  0  0  0  0  0  0  0  0
    6.7925   -5.8486  -34.4147 C   0  0  0  0  0  0  0  0  0  0  0  0
    3.2017  -14.4271  -29.2370 C   0  0  0  0  0  0  0  0  0  0  0  0
    6.6320   -4.4260  -33.8446 C   0  0  0  0  0  0  0  0  0  0  0  0
    2.2579  -10.3425  -36.1176 C   0  0  0  0  0  0  0  0  0  0  0  0
    4.2047  -11.8068  -36.1095 C   0  0  0  0  0  0  0  0  0  0  0  0
    3.0424  -11.3289  -36.7385 C   0  0  0  0  0  0  0  0  0  0  0  0
    5.4362  -11.6502  -34.3918 H   0  0  0  0  0  0  0  0  0  0  0  0
    2.0602   -9.1068  -34.4058 H   0  0  0  0  0  0  0  0  0  0  0  0
    2.3144  -14.1407  -31.1771 H   0  0  0  0  0  0  0  0  0  0  0  0
    1.5029  -13.2768  -29.9062 H   0  0  0  0  0  0  0  0  0  0  0  0
    6.3059   -5.9156  -35.3652 H   0  0  0  0  0  0  0  0  0  0  0  0
    7.8286   -6.0812  -34.5457 H   0  0  0  0  0  0  0  0  0  0  0  0
    4.1561  -14.7160  -29.6251 H   0  0  0  0  0  0  0  0  0  0  0  0
    2.6260  -15.3020  -29.0180 H   0  0  0  0  0  0  0  0  0  0  0  0
    3.3384  -13.8567  -28.3421 H   0  0  0  0  0  0  0  0  0  0  0  0
    5.5921   -4.2074  -33.7189 H   0  0  0  0  0  0  0  0  0  0  0  0
    7.0658   -3.7196  -34.5212 H   0  0  0  0  0  0  0  0  0  0  0  0
    7.1266   -4.3633  -32.8978 H   0  0  0  0  0  0  0  0  0  0  0  0
    1.4051   -9.9934  -36.5821 H   0  0  0  0  0  0  0  0  0  0  0  0
    4.7795  -12.5305  -36.5688 H   0  0  0  0  0  0  0  0  0  0  0  0
    2.7643  -11.7036  -37.6590 H   0  0  0  0  0  0  0  0  0  0  0  0
  1  3  1  0  0  0  0
  1  4  2  0  0  0  0
  1  7  1  0  0  0  0
  2  3  1  0  0  0  0
  2  5  2  0  0  0  0
  2  6  1  0  0  0  0
  3  8  1  0  0  0  0
  4  5  1  0  0  0  0
  4 10  1  0  0  0  0
  5  9  1  0  0  0  0
  6 11  2  0  0  0  0
  6 14  1  0  0  0  0
  7 12  2  0  0  0  0
  7 13  1  0  0  0  0
  8 15  2  0  0  0  0
  8 16  1  0  0  0  0
 13 17  1  0  0  0  0
 14 18  1  0  0  0  0
 15 22  1  0  0  0  0
 15 24  1  0  0  0  0
 16 21  2  0  0  0  0
 16 25  1  0  0  0  0
 17 19  1  0  0  0  0
 17 26  1  0  0  0  0
 17 27  1  0  0  0  0
 18 20  1  0  0  0  0
 18 28  1  0  0  0  0
 18 29  1  0  0  0  0
 19 30  1  0  0  0  0
 19 31  1  0  0  0  0
 19 32  1  0  0  0  0
 20 33  1  0  0  0  0
 20 34  1  0  0  0  0
 20 35  1  0  0  0  0
 21 23  1  0  0  0  0
 21 36  1  0  0  0  0
 22 23  2  0  0  0  0
 22 37  1  0  0  0  0
 23 38  1  0  0  0  0
M  CHG  2   9  -1  10  -1
M  END
$$$$
