##########                                Name: HTS1710-01164308-01
##########                    Molecular_Weight:             329.309
##########                DOCK_Rotatable_Bonds:                   6
##########                       Formal_Charge:                  -2
##########                     HBond_Acceptors:                   7
##########                        HBond_Donors:                   3
##########                         Heavy_Atoms:                  24
##########                          Grid_Score:          -75.919632
##########                     Grid_vdw_energy:          -37.182419
##########                      Grid_es_energy:          -38.737213
##########           Internal_energy_repulsive:            4.116484

@<TRIPOS>MOLECULE
HTS1710-01164308-01
 39 41 1 0 0
SMALL
USER_CHARGES


@<TRIPOS>ATOM
      1 C           4.3997   -7.2896  -31.4416 C.2     1  UNL1       -0.0555
      2 C           4.9645   -8.2376  -32.2758 C.2     1  UNL1       -0.1091
      3 C           3.6993   -9.9700  -30.9685 C.2     1  UNL1        0.0538
      4 C           3.2285   -8.9359  -30.2039 C.2     1  UNL1       -0.0306
      5 O           3.4562   -7.6167  -30.4984 O.co2   1  UNL1       -0.7688
      6 C           4.4986   -9.6666  -32.2366 C.3     1  UNL1        0.0283
      7 C           4.7908   -5.8760  -31.5387 C.2     1  UNL1        0.1708
      8 O           5.9255   -7.9575  -33.2291 O.co2   1  UNL1       -0.7839
      9 C           5.8059   -5.6264  -32.5610 C.2     1  UNL1       -0.0241
     10 C           3.4944  -11.4561  -30.7119 C.2     1  UNL1        0.3364
     11 C           6.3180   -6.6418  -33.3371 C.2     1  UNL1       -0.0886
     12 C           3.6808   -9.9950  -33.4858 C.ar    1  UNL1       -0.0365
     13 N           2.4839   -9.1335  -29.0647 N.pl3   1  UNL1       -0.3685
     14 O           4.3222   -4.9956  -30.8388 O.2     1  UNL1       -0.2886
     15 O           2.4415  -12.0261  -30.9585 O.2     1  UNL1       -0.2453
     16 O           4.5741  -12.1036  -30.1771 O.3     1  UNL1       -0.4646
     17 C           7.3613   -6.3345  -34.3787 C.3     1  UNL1        0.0566
     18 O           6.8065   -6.3877  -35.6895 O.3     1  UNL1       -0.3915
     19 C           2.3032   -9.7104  -33.5316 C.ar    1  UNL1       -0.0577
     20 C           4.2984  -10.5882  -34.6051 C.ar    1  UNL1       -0.0577
     21 C           4.5281  -13.5300  -29.9898 C.3     1  UNL1        0.0820
     22 C           1.5539  -10.0091  -34.6810 C.ar    1  UNL1       -0.0615
     23 C           3.5491  -10.8870  -35.7545 C.ar    1  UNL1       -0.0615
     24 C           2.1773  -10.5967  -35.7931 C.ar    1  UNL1       -0.0617
     25 H           5.3674  -10.2909  -32.2202 H       1  UNL1        0.0437
     26 H           6.1477   -4.6633  -32.7046 H       1  UNL1        0.0647
     27 H           2.3197  -10.0469  -28.7362 H       1  UNL1        0.1413
     28 H           2.1152   -8.3615  -28.5775 H       1  UNL1        0.1413
     29 H           8.1518   -7.0518  -34.3041 H       1  UNL1        0.0596
     30 H           7.7337   -5.3463  -34.2063 H       1  UNL1        0.0596
     31 H           6.0914   -5.7367  -35.7646 H       1  UNL1        0.2098
     32 H           1.8410   -9.2795  -32.7156 H       1  UNL1        0.0621
     33 H           5.3072  -10.8042  -34.5798 H       1  UNL1        0.0621
     34 H           5.4514  -13.8639  -29.5643 H       1  UNL1        0.0661
     35 H           4.3769  -14.0091  -30.9345 H       1  UNL1        0.0661
     36 H           3.7218  -13.7775  -29.3314 H       1  UNL1        0.0661
     37 H           0.5444   -9.7966  -34.7081 H       1  UNL1        0.0618
     38 H           4.0079  -11.3202  -36.5711 H       1  UNL1        0.0618
     39 H           1.6269  -10.8150  -36.6384 H       1  UNL1        0.0618
@<TRIPOS>BOND
     1     1     2    2
     2     3     4    2
     3     4     5    1
     4     1     5    1
     5     2     6    1
     6     1     7    1
     7     2     8    1
     8     7     9    1
     9     3    10    1
    10     9    11    2
    11     6    12    1
    12     4    13    1
    13     7    14    2
    14    10    15    2
    15    10    16    1
    16    11    17    1
    17    17    18    1
    18    12    19   ar
    19    12    20   ar
    20    16    21    1
    21    19    22   ar
    22    20    23   ar
    23    23    24   ar
    24     3     6    1
    25     8    11    1
    26    22    24   ar
    27     6    25    1
    28     9    26    1
    29    13    27    1
    30    13    28    1
    31    17    29    1
    32    17    30    1
    33    18    31    1
    34    19    32    1
    35    20    33    1
    36    21    34    1
    37    21    35    1
    38    21    36    1
    39    22    37    1
    40    23    38    1
    41    24    39    1
@<TRIPOS>SUBSTRUCTURE
     1 UNL1        1 TEMP              0 ****  ****    0 ROOT


