##########                                Name: HTS1710-03441622-01
##########                    Molecular_Weight:             472.458
##########                DOCK_Rotatable_Bonds:                   9
##########                       Formal_Charge:                  -1
##########                     HBond_Acceptors:                  13
##########                        HBond_Donors:                   1
##########                         Heavy_Atoms:                  33
##########                          Grid_Score:          -76.550285
##########                     Grid_vdw_energy:          -57.185005
##########                      Grid_es_energy:          -19.365280
##########           Internal_energy_repulsive:           13.759895

@<TRIPOS>MOLECULE
HTS1710-03441622-01
 51 54 1 0 0
SMALL
USER_CHARGES


@<TRIPOS>ATOM
      1 S           4.2688  -11.6181  -34.2205 S.O2    1  UNL1        0.0724
      2 N           3.2310  -13.0141  -29.2164 N.am    1  UNL1       -0.2598
      3 C           2.8750  -13.0161  -30.6107 C.ar    1  UNL1        0.0805
      4 C           3.6557  -12.3752  -31.6011 C.ar    1  UNL1       -0.0100
      5 C           2.4683  -13.7330  -28.2901 C.2     1  UNL1        0.2578
      6 C           3.2428  -12.3750  -32.9462 C.ar    1  UNL1        0.1105
      7 N          -1.9164   -3.4526  -38.5294 N.ar    1  UNL1       -0.2228
      8 N           3.2014  -10.6353  -35.1097 N.pl3   1  UNL1       -0.2161
      9 N          -0.5861   -5.1486  -37.7900 N.ar    1  UNL1       -0.1583
     10 N          -1.4699   -4.7367  -36.8190 N.ar    1  UNL1       -0.2488
     11 O           0.9209  -14.3288  -30.0768 O.3     1  UNL1       -0.4809
     12 C           1.6836  -13.6634  -31.0069 C.ar    1  UNL1        0.1426
     13 C          -0.9198   -4.3374  -38.7714 C.ar    1  UNL1        0.1379
     14 C           4.2891  -12.1002  -28.7138 C.3     1  UNL1        0.0594
     15 C          -2.2641   -3.6982  -37.2922 C.ar    1  UNL1        0.1144
     16 O           5.1064  -10.6192  -33.5499 O.2     1  UNL1       -0.1500
     17 O           4.8077  -12.6059  -35.1596 O.2     1  UNL1       -0.1500
     18 C           3.8205  -10.6423  -28.7824 C.2     1  UNL1        0.0594
     19 C           1.5685  -14.8163  -28.8907 C.3     1  UNL1        0.1658
     20 C           2.3075   -9.7011  -34.6305 C.ar    1  UNL1        0.0515
     21 O           2.5194  -13.5498  -27.0846 O.2     1  UNL1       -0.2715
     22 C           2.0406  -13.0007  -33.3143 C.ar    1  UNL1       -0.0315
     23 C           1.3966   -9.0571  -35.4903 C.ar    1  UNL1        0.0024
     24 O           4.5368   -9.8518  -29.3717 O.co2   1  UNL1       -0.5482
     25 C           1.2606  -13.6429  -32.3446 C.ar    1  UNL1       -0.0162
     26 C          -1.5011   -5.3670  -35.4919 C.3     1  UNL1        0.0773
     27 C           0.4796   -8.1222  -34.9862 C.ar    1  UNL1        0.1224
     28 O           2.7621  -10.3719  -28.2420 O.co2   1  UNL1       -0.5482
     29 C          -1.6457   -6.9115  -35.5142 C.3     1  UNL1        0.1091
     30 O          -0.3869   -7.5178  -35.8787 O.3     1  UNL1       -0.4901
     31 C           1.3849   -8.4621  -32.7498 C.ar    1  UNL1       -0.0565
     32 C           2.3103   -9.3850  -33.2616 C.ar    1  UNL1       -0.0391
     33 C           0.4622   -7.8388  -33.6036 C.ar    1  UNL1       -0.0198
     34 H           4.5346  -11.9042  -31.3351 H       1  UNL1        0.0657
     35 H           3.2250  -10.7476  -36.0875 H       1  UNL1        0.1737
     36 H          -0.4427   -4.3739  -39.6857 H       1  UNL1        0.1065
     37 H           5.1676  -12.2157  -29.3137 H       1  UNL1        0.0530
     38 H           4.5018  -12.3464  -27.6945 H       1  UNL1        0.0530
     39 H          -2.9995   -3.2068  -36.7604 H       1  UNL1        0.1044
     40 H           2.1629  -15.6705  -29.1394 H       1  UNL1        0.0795
     41 H           0.8217  -15.0845  -28.1729 H       1  UNL1        0.0795
     42 H           1.7322  -12.9873  -34.2991 H       1  UNL1        0.0638
     43 H           1.4035   -9.2746  -36.4991 H       1  UNL1        0.0673
     44 H           0.3756  -14.1005  -32.6136 H       1  UNL1        0.0655
     45 H          -2.3297   -4.9620  -34.9494 H       1  UNL1        0.0543
     46 H          -0.5570   -5.1572  -35.0341 H       1  UNL1        0.0543
     47 H          -2.3926   -7.1877  -36.2290 H       1  UNL1        0.0715
     48 H          -1.9324   -7.2526  -34.5413 H       1  UNL1        0.0715
     49 H           1.3831   -8.2411  -31.7417 H       1  UNL1        0.0619
     50 H           2.9941   -9.8323  -32.6312 H       1  UNL1        0.0636
     51 H          -0.2283   -7.1740  -33.2210 H       1  UNL1        0.0654
@<TRIPOS>BOND
     1     2     3    1
     2     3     4   ar
     3     4     6   ar
     4     2     5   am
     5     1     6    1
     6     7    15   ar
     7     1     8    1
     8     9    10   ar
     9    10    26    1
    10    11    12    1
    11     3    12   ar
    12     9    13   ar
    13     2    14    1
    14    10    15   ar
    15     1    16    2
    16     1    17    2
    17    14    18    1
    18    11    19    1
    19     8    20    1
    20     5    21    2
    21     6    22   ar
    22    20    23   ar
    23    18    24   ar
    24    22    25   ar
    25    26    29    1
    26    23    27   ar
    27    18    28   ar
    28    29    30    1
    29    27    30    1
    30    31    32   ar
    31    20    32   ar
    32    27    33   ar
    33    12    25   ar
    34    31    33   ar
    35     5    19    1
    36     7    13   ar
    37     4    34    1
    38     8    35    1
    39    13    36    1
    40    14    37    1
    41    14    38    1
    42    15    39    1
    43    19    40    1
    44    19    41    1
    45    22    42    1
    46    23    43    1
    47    25    44    1
    48    26    45    1
    49    26    46    1
    50    29    47    1
    51    29    48    1
    52    31    49    1
    53    32    50    1
    54    33    51    1
@<TRIPOS>SUBSTRUCTURE
     1 UNL1        1 TEMP              0 ****  ****    0 ROOT


