HTS1710-01604343-01
 OpenBabel03232612363D

 33 33  0  0  1  0  0  0  0  0999 V2000
    4.9673  -15.0004  -27.5786 C   0  0  0  0  0  0  0  0  0  0  0  0
    3.5089  -13.9117  -27.2873 S   0  0  0  0  0  0  0  0  0  0  0  0
    2.7912  -13.5950  -28.9015 C   0  0  0  0  0  0  0  0  0  0  0  0
    1.9393  -14.5124  -29.5443 C   0  0  0  0  0  0  0  0  0  0  0  0
    1.4103  -14.2111  -30.8073 C   0  0  0  0  0  0  0  0  0  0  0  0
    1.7178  -12.9967  -31.4403 C   0  0  0  0  0  0  0  0  0  0  0  0
    1.0556  -12.7183  -33.0450 Cl  0  0  0  0  0  0  0  0  0  0  0  0
    2.5679  -12.0606  -30.8031 C   0  0  0  0  0  0  0  0  0  0  0  0
    3.0993  -12.3795  -29.5363 C   0  0  0  0  0  0  0  0  0  0  0  0
    2.9292  -10.7372  -31.4313 C   0  0  0  0  0  0  0  0  0  0  0  0
    2.2910   -9.7212  -31.2103 O   0  0  0  0  0  0  0  0  0  0  0  0
    4.0485  -10.6823  -32.2513 N   0  0  0  0  0  0  0  0  0  0  0  0
    4.4961   -9.4492  -32.9163 C   0  0  2  0  0  0  0  0  0  0  0  0
    5.4127   -9.8001  -34.1200 C   0  0  0  0  0  0  0  0  0  0  0  0
    4.6684  -10.6078  -35.2199 C   0  0  0  0  0  0  0  0  0  0  0  0
    3.9129   -9.7437  -36.2462 C   0  0  0  0  0  0  0  0  0  0  0  0
    4.5612   -9.1315  -37.0775 O   0  5  0  0  0  0  0  0  0  0  0  0
    2.6988   -9.7238  -36.1497 O   0  0  0  0  0  0  0  0  0  0  0  0
    5.2050   -8.5481  -31.8898 C   0  0  0  0  0  0  0  0  0  0  0  0
    5.4481   -9.0202  -30.7923 O   0  5  0  0  0  0  0  0  0  0  0  0
    5.4722   -7.4128  -32.2439 O   0  0  0  0  0  0  0  0  0  0  0  0
    5.4380  -15.2236  -26.6440 H   0  0  0  0  0  0  0  0  0  0  0  0
    5.6638  -14.4999  -28.2184 H   0  0  0  0  0  0  0  0  0  0  0  0
    4.6465  -15.9097  -28.0425 H   0  0  0  0  0  0  0  0  0  0  0  0
    1.7041  -15.4066  -29.0860 H   0  0  0  0  0  0  0  0  0  0  0  0
    0.7888  -14.8887  -31.2760 H   0  0  0  0  0  0  0  0  0  0  0  0
    3.7263  -11.7077  -29.0666 H   0  0  0  0  0  0  0  0  0  0  0  0
    4.5665  -11.5072  -32.3941 H   0  0  0  0  0  0  0  0  0  0  0  0
    3.6565   -8.9106  -33.3036 H   0  0  0  0  0  0  0  0  0  0  0  0
    6.2369  -10.3828  -33.7651 H   0  0  0  0  0  0  0  0  0  0  0  0
    5.7404   -8.8804  -34.5579 H   0  0  0  0  0  0  0  0  0  0  0  0
    3.9612  -11.2521  -34.7405 H   0  0  0  0  0  0  0  0  0  0  0  0
    5.4184  -11.1417  -35.7652 H   0  0  0  0  0  0  0  0  0  0  0  0
  1  2  1  0  0  0  0
  1 22  1  0  0  0  0
  1 23  1  0  0  0  0
  1 24  1  0  0  0  0
  2  3  1  0  0  0  0
  3  4  2  0  0  0  0
  3  9  1  0  0  0  0
  4  5  1  0  0  0  0
  4 25  1  0  0  0  0
  5  6  2  0  0  0  0
  5 26  1  0  0  0  0
  6  7  1  0  0  0  0
  6  8  1  0  0  0  0
  8  9  2  0  0  0  0
  8 10  1  0  0  0  0
  9 27  1  0  0  0  0
 10 11  2  0  0  0  0
 10 12  1  0  0  0  0
 12 13  1  0  0  0  0
 12 28  1  0  0  0  0
 13 14  1  0  0  0  0
 13 19  1  0  0  0  0
 13 29  1  6  0  0  0
 14 15  1  0  0  0  0
 14 30  1  0  0  0  0
 14 31  1  0  0  0  0
 15 16  1  0  0  0  0
 15 32  1  0  0  0  0
 15 33  1  0  0  0  0
 16 17  1  0  0  0  0
 16 18  2  0  0  0  0
 19 20  1  0  0  0  0
 19 21  2  0  0  0  0
M  CHG  2  17  -1  20  -1
M  END
$$$$
