##########                                Name: HTS1710-01394942-01
##########                    Molecular_Weight:             395.414
##########                DOCK_Rotatable_Bonds:                   8
##########                       Formal_Charge:                  -2
##########                     HBond_Acceptors:                  10
##########                        HBond_Donors:                   0
##########                         Heavy_Atoms:                  26
##########                          Grid_Score:          -75.114471
##########                     Grid_vdw_energy:          -35.259480
##########                      Grid_es_energy:          -39.854996
##########           Internal_energy_repulsive:           14.488781

@<TRIPOS>MOLECULE
HTS1710-01394942-01
 39 40 1 0 0
SMALL
USER_CHARGES


@<TRIPOS>ATOM
      1 N           2.4469  -10.0465  -32.3820 N.am    1  UNL1       -0.2463
      2 C           2.2866  -11.3917  -32.6961 C.2     1  UNL1        0.1211
      3 C           1.6825   -9.1853  -33.1677 C.2     1  UNL1        0.2589
      4 C           0.8900   -9.9552  -34.1575 C.2     1  UNL1        0.0773
      5 S           1.1215  -11.6869  -34.0169 S.3     1  UNL1       -0.0610
      6 C           3.3969   -9.5389  -31.3539 C.3     1  UNL1        0.0765
      7 C           0.0070   -9.3216  -35.0131 C.2     1  UNL1       -0.0321
      8 C           2.6673   -8.8128  -30.1845 C.3     1  UNL1        0.0111
      9 C           4.5187   -8.7078  -32.0190 C.2     1  UNL1        0.0629
     10 C          -0.3952   -7.9133  -35.3430 C.ar    1  UNL1        0.0215
     11 S           3.1126  -12.6724  -31.9956 S.2     1  UNL1       -0.0272
     12 C          -1.2049   -7.0841  -34.5181 C.ar    1  UNL1        0.1686
     13 C           2.8990   -9.5024  -28.8310 C.2     1  UNL1        0.0439
     14 O           1.6771   -7.9699  -33.0517 O.2     1  UNL1       -0.2690
     15 O           5.4491   -9.3012  -32.5397 O.co2   1  UNL1       -0.5479
     16 C          -1.4982   -5.7487  -34.9310 C.ar    1  UNL1        0.1621
     17 O           2.0396  -10.2756  -28.4462 O.co2   1  UNL1       -0.5497
     18 O           4.3976   -7.4949  -31.9847 O.co2   1  UNL1       -0.5479
     19 O           3.9401   -9.2553  -28.2481 O.co2   1  UNL1       -0.5497
     20 O          -1.7609   -7.6594  -33.3858 O.3     1  UNL1       -0.4909
     21 O          -2.2765   -4.9185  -34.1421 O.3     1  UNL1       -0.4914
     22 C           0.0420   -7.4211  -36.5879 C.ar    1  UNL1       -0.0508
     23 C          -0.2491   -6.1161  -36.9921 C.ar    1  UNL1       -0.0575
     24 C          -1.0016   -5.2775  -36.1668 C.ar    1  UNL1       -0.0163
     25 C          -2.2245   -6.9922  -32.1989 C.3     1  UNL1        0.0790
     26 C          -3.0177   -3.7908  -34.6432 C.3     1  UNL1        0.0790
     27 H           3.8770  -10.3739  -30.8877 H       1  UNL1        0.0570
     28 H          -0.5197  -10.0041  -35.5803 H       1  UNL1        0.0637
     29 H           1.6171   -8.8015  -30.3890 H       1  UNL1        0.0347
     30 H           3.0645   -7.8215  -30.1178 H       1  UNL1        0.0347
     31 H           0.5871   -8.0356  -37.2127 H       1  UNL1        0.0625
     32 H           0.0927   -5.7707  -37.9025 H       1  UNL1        0.0619
     33 H          -1.1960   -4.3078  -36.4615 H       1  UNL1        0.0655
     34 H          -2.5997   -7.7163  -31.5061 H       1  UNL1        0.0660
     35 H          -3.0051   -6.3072  -32.4566 H       1  UNL1        0.0660
     36 H          -1.4137   -6.4567  -31.7509 H       1  UNL1        0.0660
     37 H          -3.5344   -3.3161  -33.8353 H       1  UNL1        0.0660
     38 H          -3.7261   -4.1250  -35.3722 H       1  UNL1        0.0660
     39 H          -2.3438   -3.0930  -35.0945 H       1  UNL1        0.0660
@<TRIPOS>BOND
     1     1     2    1
     2     1     3   am
     3     3     4    1
     4     2     5    1
     5     1     6    1
     6     4     7    2
     7     6     8    1
     8     6     9    1
     9     7    10    1
    10     2    11    2
    11    10    12   ar
    12     8    13    1
    13     3    14    2
    14     9    15   ar
    15    12    16   ar
    16    13    17   ar
    17     9    18   ar
    18    13    19   ar
    19    12    20    1
    20    16    21    1
    21    10    22   ar
    22    22    23   ar
    23    23    24   ar
    24    20    25    1
    25    21    26    1
    26     4     5    1
    27    16    24   ar
    28     6    27    1
    29     7    28    1
    30     8    29    1
    31     8    30    1
    32    22    31    1
    33    23    32    1
    34    24    33    1
    35    25    34    1
    36    25    35    1
    37    25    36    1
    38    26    37    1
    39    26    38    1
    40    26    39    1
@<TRIPOS>SUBSTRUCTURE
     1 UNL1        1 TEMP              0 ****  ****    0 ROOT


