##########                                Name: HTS1710-02528453-01
##########                    Molecular_Weight:             317.298
##########                DOCK_Rotatable_Bonds:                   7
##########                       Formal_Charge:                  -2
##########                     HBond_Acceptors:                   7
##########                        HBond_Donors:                   0
##########                         Heavy_Atoms:                  23
##########                          Grid_Score:          -77.939713
##########                     Grid_vdw_energy:          -34.195393
##########                      Grid_es_energy:          -43.744316
##########           Internal_energy_repulsive:            7.508905

@<TRIPOS>MOLECULE
HTS1710-02528453-01
 38 39 1 0 0
SMALL
USER_CHARGES


@<TRIPOS>ATOM
      1 C           3.8829  -10.4601  -31.7996 C.ar    1  UNL1        0.1237
      2 C           5.1611   -8.8333  -32.8511 C.ar    1  UNL1        0.1237
      3 N           4.1719   -9.8069  -32.9989 N.ar    1  UNL1       -0.2989
      4 C           4.6619   -9.8247  -30.8591 C.ar    1  UNL1       -0.0825
      5 C           5.4475   -8.8274  -31.5039 C.ar    1  UNL1       -0.0825
      6 C           5.7492   -7.9915  -33.9277 C.2     1  UNL1        0.3556
      7 C           2.9322  -11.5892  -31.6066 C.2     1  UNL1        0.3556
      8 C           3.7975  -10.3125  -34.2386 C.ar    1  UNL1        0.0475
      9 O           6.3348   -8.0407  -30.8585 O.co2   1  UNL1       -0.8725
     10 O           4.7267  -10.0863  -29.5351 O.co2   1  UNL1       -0.8725
     11 O           5.8364   -8.3468  -35.0926 O.2     1  UNL1       -0.2433
     12 O           1.9457  -11.7695  -32.3033 O.2     1  UNL1       -0.2433
     13 O           3.2644  -12.4131  -30.5654 O.3     1  UNL1       -0.4604
     14 O           6.1866   -6.7710  -33.4897 O.3     1  UNL1       -0.4604
     15 C           4.5841  -11.2998  -34.8566 C.ar    1  UNL1       -0.0378
     16 C           2.6343   -9.8314  -34.8644 C.ar    1  UNL1       -0.0378
     17 C           2.4600  -13.5729  -30.2819 C.3     1  UNL1        0.0900
     18 C           6.7925   -5.8486  -34.4147 C.3     1  UNL1        0.0900
     19 C           3.2017  -14.4271  -29.2370 C.3     1  UNL1       -0.0306
     20 C           6.6320   -4.4260  -33.8446 C.3     1  UNL1       -0.0306
     21 C           2.2579  -10.3425  -36.1176 C.ar    1  UNL1       -0.0598
     22 C           4.2047  -11.8068  -36.1095 C.ar    1  UNL1       -0.0598
     23 C           3.0424  -11.3289  -36.7385 C.ar    1  UNL1       -0.0616
     24 H           5.4362  -11.6502  -34.3918 H       1  UNL1        0.0638
     25 H           2.0602   -9.1068  -34.4058 H       1  UNL1        0.0638
     26 H           2.3144  -14.1407  -31.1771 H       1  UNL1        0.0695
     27 H           1.5029  -13.2768  -29.9062 H       1  UNL1        0.0695
     28 H           6.3059   -5.9156  -35.3652 H       1  UNL1        0.0695
     29 H           7.8286   -6.0812  -34.5457 H       1  UNL1        0.0695
     30 H           4.1561  -14.7160  -29.6251 H       1  UNL1        0.0262
     31 H           2.6260  -15.3020  -29.0180 H       1  UNL1        0.0262
     32 H           3.3384  -13.8567  -28.3421 H       1  UNL1        0.0262
     33 H           5.5921   -4.2074  -33.7189 H       1  UNL1        0.0262
     34 H           7.0658   -3.7196  -34.5212 H       1  UNL1        0.0262
     35 H           7.1266   -4.3633  -32.8978 H       1  UNL1        0.0262
     36 H           1.4051   -9.9934  -36.5821 H       1  UNL1        0.0618
     37 H           4.7795  -12.5305  -36.5688 H       1  UNL1        0.0618
     38 H           2.7643  -11.7036  -37.6590 H       1  UNL1        0.0618
@<TRIPOS>BOND
     1     1     3   ar
     2     1     4   ar
     3     1     7    1
     4     2     3   ar
     5     2     5   ar
     6     2     6    1
     7     3     8    1
     8     4     5   ar
     9     4    10    1
    10     5     9    1
    11     6    11    2
    12     6    14    1
    13     7    12    2
    14     7    13    1
    15     8    15   ar
    16     8    16   ar
    17    13    17    1
    18    14    18    1
    19    15    22   ar
    20    16    21   ar
    21    17    19    1
    22    18    20    1
    23    21    23   ar
    24    22    23   ar
    25    15    24    1
    26    16    25    1
    27    17    26    1
    28    17    27    1
    29    18    28    1
    30    18    29    1
    31    19    30    1
    32    19    31    1
    33    19    32    1
    34    20    33    1
    35    20    34    1
    36    20    35    1
    37    21    36    1
    38    22    37    1
    39    23    38    1
@<TRIPOS>SUBSTRUCTURE
     1 UNL1        1 TEMP              0 ****  ****    0 ROOT


