##########                                Name: HTS1710-04762224-01
##########                    Molecular_Weight:             391.425
##########                DOCK_Rotatable_Bonds:                   6
##########                       Formal_Charge:                  -2
##########                     HBond_Acceptors:                   9
##########                        HBond_Donors:                   0
##########                         Heavy_Atoms:                  27
##########                          Grid_Score:          -83.066765
##########                     Grid_vdw_energy:          -48.288673
##########                      Grid_es_energy:          -34.778091
##########           Internal_energy_repulsive:           17.486641

@<TRIPOS>MOLECULE
HTS1710-04762224-01
 46 48 1 0 0
SMALL
USER_CHARGES


@<TRIPOS>ATOM
      1 C           3.1191  -10.8535  -36.4490 C.3     1  UNL1        0.0038
      2 N           3.1544  -10.8125  -34.9707 N.am    1  UNL1       -0.2974
      3 C           4.5016  -10.9544  -34.3809 C.3     1  UNL1        0.0269
      4 C           5.1304   -9.6230  -34.0643 C.2     1  UNL1       -0.0998
      5 C           5.6979   -8.7937  -34.9957 C.2     1  UNL1       -0.0630
      6 C           6.1536   -7.6706  -34.2560 C.2     1  UNL1       -0.0144
      7 C           6.8460   -6.4827  -34.8110 C.2     1  UNL1        0.0708
      8 O           7.1402   -5.5740  -34.0547 O.co2   1  UNL1       -0.5447
      9 O           7.0816   -6.4888  -36.0068 O.co2   1  UNL1       -0.5447
     10 C           5.7956   -7.9666  -32.9546 C.2     1  UNL1       -0.1120
     11 C           6.0454   -7.0899  -31.7530 C.3     1  UNL1       -0.0524
     12 O           5.1573   -9.1663  -32.7756 O.co2   1  UNL1       -0.7845
     13 C           2.0258  -10.5828  -34.1727 C.2     1  UNL1        0.2467
     14 O           0.9076  -10.4562  -34.6435 O.2     1  UNL1       -0.2700
     15 C           2.2349  -10.4853  -32.6872 C.ar    1  UNL1        0.0387
     16 C           2.2968   -9.2231  -32.0740 C.ar    1  UNL1       -0.0495
     17 C           2.5074   -9.1246  -30.6925 C.ar    1  UNL1       -0.0592
     18 C           2.6649  -10.2833  -29.9161 C.ar    1  UNL1       -0.0390
     19 C           2.6281  -11.5631  -30.5138 C.ar    1  UNL1        0.0516
     20 C           2.4230  -11.6436  -31.9097 C.ar    1  UNL1       -0.0270
     21 N           2.7787  -12.7284  -29.7427 N.pl3   1  UNL1       -0.2073
     22 C           2.3868  -14.0764  -30.2155 C.3     1  UNL1        0.0361
     23 C           2.3165  -15.0317  -28.9938 C.3     1  UNL1       -0.0143
     24 C           3.4002  -14.6014  -27.9929 C.3     1  UNL1        0.0865
     25 S           3.4228  -12.8184  -28.1716 S.O2    1  UNL1        0.0455
     26 O           4.7966  -12.3433  -28.2121 O.2     1  UNL1       -0.1550
     27 O           2.4551  -12.2314  -27.2589 O.2     1  UNL1       -0.1550
     28 H           4.1029  -11.0435  -36.8241 H       1  UNL1        0.0429
     29 H           2.7697   -9.9140  -36.8235 H       1  UNL1        0.0429
     30 H           2.4589  -11.6326  -36.7685 H       1  UNL1        0.0429
     31 H           5.1281  -11.4744  -35.0752 H       1  UNL1        0.0502
     32 H           4.4018  -11.4957  -33.4632 H       1  UNL1        0.0502
     33 H           5.7769   -8.9510  -36.0126 H       1  UNL1        0.0615
     34 H           6.5487   -6.1973  -32.0611 H       1  UNL1        0.0266
     35 H           6.6533   -7.6167  -31.0474 H       1  UNL1        0.0266
     36 H           5.1115   -6.8338  -31.2979 H       1  UNL1        0.0266
     37 H           2.1871   -8.3680  -32.6414 H       1  UNL1        0.0625
     38 H           2.5468   -8.1961  -30.2437 H       1  UNL1        0.0618
     39 H           2.8091  -10.1996  -28.8977 H       1  UNL1        0.0636
     40 H           2.4110  -12.5685  -32.3674 H       1  UNL1        0.0644
     41 H           3.1123  -14.4379  -30.9139 H       1  UNL1        0.0483
     42 H           1.4327  -14.0305  -30.6977 H       1  UNL1        0.0483
     43 H           2.4928  -16.0388  -29.3094 H       1  UNL1        0.0297
     44 H           1.3493  -14.9834  -28.5387 H       1  UNL1        0.0297
     45 H           4.3491  -15.0259  -28.2464 H       1  UNL1        0.0519
     46 H           3.2034  -14.9237  -26.9918 H       1  UNL1        0.0519
@<TRIPOS>BOND
     1     1     2    1
     2     2     3    1
     3     3     4    1
     4     4     5    2
     5     5     6    1
     6     6     7    1
     7     7     8   ar
     8     7     9   ar
     9     6    10    2
    10    10    11    1
    11    10    12    1
    12     4    12    1
    13     2    13   am
    14    13    14    2
    15    13    15    1
    16    15    16   ar
    17    16    17   ar
    18    17    18   ar
    19    18    19   ar
    20    19    20   ar
    21    15    20   ar
    22    19    21    1
    23    21    22    1
    24    22    23    1
    25    23    24    1
    26    24    25    1
    27    21    25    1
    28    25    26    2
    29    25    27    2
    30     1    28    1
    31     1    29    1
    32     1    30    1
    33     3    31    1
    34     3    32    1
    35     5    33    1
    36    11    34    1
    37    11    35    1
    38    11    36    1
    39    16    37    1
    40    17    38    1
    41    18    39    1
    42    20    40    1
    43    22    41    1
    44    22    42    1
    45    23    43    1
    46    23    44    1
    47    24    45    1
    48    24    46    1
@<TRIPOS>SUBSTRUCTURE
     1 UNL1        1 TEMP              0 ****  ****    0 ROOT


