##########                                Name: HTS1710-05122793-01
##########                    Molecular_Weight:             331.348
##########                DOCK_Rotatable_Bonds:                   7
##########                       Formal_Charge:                  -2
##########                     HBond_Acceptors:                   7
##########                        HBond_Donors:                   0
##########                         Heavy_Atoms:                  24
##########                          Grid_Score:          -78.305641
##########                     Grid_vdw_energy:          -38.997684
##########                      Grid_es_energy:          -39.307957
##########           Internal_energy_repulsive:           14.355332

@<TRIPOS>MOLECULE
HTS1710-05122793-01
 43 44 1 0 0
SMALL
USER_CHARGES


@<TRIPOS>ATOM
      1 C           1.8205  -14.0964  -27.8488 C.3     1  UNL1       -0.0280
      2 C           3.0061  -14.8183  -28.5347 C.3     1  UNL1        0.0962
      3 C           4.2123  -14.9636  -27.5832 C.3     1  UNL1       -0.0280
      4 O           3.4397  -14.0289  -29.6625 O.3     1  UNL1       -0.4736
      5 C           2.7128  -13.8998  -30.8296 C.ar    1  UNL1        0.2156
      6 C           1.7137  -14.8418  -31.1667 C.ar    1  UNL1        0.0000
      7 C           0.9962  -14.6772  -32.3609 C.ar    1  UNL1       -0.0546
      8 C           1.2975  -13.5825  -33.1821 C.ar    1  UNL1       -0.0309
      9 C           2.3124  -12.6944  -32.7802 C.ar    1  UNL1        0.1294
     10 N           2.9966  -12.8504  -31.6278 N.ar    1  UNL1       -0.2082
     11 C           2.6457  -11.4972  -33.6197 C.2     1  UNL1        0.2651
     12 O           1.9755  -10.4809  -33.5456 O.2     1  UNL1       -0.2683
     13 N           3.7444  -11.6203  -34.4750 N.am    1  UNL1       -0.2961
     14 C           4.5371  -12.8616  -34.5854 C.3     1  UNL1        0.0038
     15 C           4.1694  -10.5089  -35.3504 C.3     1  UNL1        0.0269
     16 C           4.8918   -9.4427  -34.5738 C.2     1  UNL1       -0.0998
     17 C           4.8737   -9.3393  -33.2081 C.2     1  UNL1       -0.0630
     18 C           5.6459   -8.1822  -32.9218 C.2     1  UNL1       -0.0144
     19 C           5.9293   -7.6323  -31.5737 C.2     1  UNL1        0.0708
     20 O           6.0339   -8.4316  -30.6604 O.co2   1  UNL1       -0.5447
     21 O           6.0402   -6.4247  -31.4501 O.co2   1  UNL1       -0.5447
     22 C           6.0365   -7.7293  -34.1665 C.2     1  UNL1       -0.1120
     23 C           6.8791   -6.5088  -34.4328 C.3     1  UNL1       -0.0524
     24 O           5.5958   -8.4726  -35.2313 O.co2   1  UNL1       -0.7845
     25 H           1.4893  -14.6722  -27.0100 H       1  UNL1        0.0265
     26 H           1.0167  -13.9883  -28.5469 H       1  UNL1        0.0265
     27 H           2.1360  -13.1299  -27.5157 H       1  UNL1        0.0265
     28 H           2.6714  -15.7910  -28.8291 H       1  UNL1        0.0728
     29 H           4.5509  -13.9931  -27.2858 H       1  UNL1        0.0265
     30 H           5.0037  -15.4787  -28.0865 H       1  UNL1        0.0265
     31 H           3.9187  -15.5197  -26.7174 H       1  UNL1        0.0265
     32 H           1.5150  -15.6395  -30.5429 H       1  UNL1        0.0671
     33 H           0.2606  -15.3495  -32.6294 H       1  UNL1        0.0620
     34 H           0.7849  -13.4305  -34.0647 H       1  UNL1        0.0640
     35 H           4.1459  -13.5957  -33.9124 H       1  UNL1        0.0429
     36 H           5.5572  -12.6567  -34.3360 H       1  UNL1        0.0429
     37 H           4.4825  -13.2317  -35.5878 H       1  UNL1        0.0429
     38 H           3.3048  -10.0784  -35.8109 H       1  UNL1        0.0502
     39 H           4.8387  -10.8992  -36.0883 H       1  UNL1        0.0502
     40 H           4.4028   -9.9644  -32.5354 H       1  UNL1        0.0615
     41 H           7.1386   -6.0450  -33.5041 H       1  UNL1        0.0266
     42 H           6.3262   -5.8179  -35.0343 H       1  UNL1        0.0266
     43 H           7.7711   -6.7968  -34.9490 H       1  UNL1        0.0266
@<TRIPOS>BOND
     1     1     2    1
     2     2     3    1
     3     2     4    1
     4     4     5    1
     5     5     6   ar
     6     6     7   ar
     7     7     8   ar
     8     8     9   ar
     9     9    10   ar
    10     5    10   ar
    11     9    11    1
    12    11    12    2
    13    11    13   am
    14    13    14    1
    15    13    15    1
    16    15    16    1
    17    16    17    2
    18    17    18    1
    19    18    19    1
    20    19    20   ar
    21    19    21   ar
    22    18    22    2
    23    22    23    1
    24    22    24    1
    25    16    24    1
    26     1    25    1
    27     1    26    1
    28     1    27    1
    29     2    28    1
    30     3    29    1
    31     3    30    1
    32     3    31    1
    33     6    32    1
    34     7    33    1
    35     8    34    1
    36    14    35    1
    37    14    36    1
    38    14    37    1
    39    15    38    1
    40    15    39    1
    41    17    40    1
    42    23    41    1
    43    23    42    1
    44    23    43    1
@<TRIPOS>SUBSTRUCTURE
     1 UNL1        1 TEMP              0 ****  ****    0 ROOT


