##########                                Name: HTS1710-02798465-01
##########                    Molecular_Weight:             347.776
##########                DOCK_Rotatable_Bonds:                   7
##########                       Formal_Charge:                  -2
##########                     HBond_Acceptors:                   9
##########                        HBond_Donors:                   1
##########                         Heavy_Atoms:                  22
##########                          Grid_Score:          -76.565079
##########                     Grid_vdw_energy:          -43.014568
##########                      Grid_es_energy:          -33.550507
##########           Internal_energy_repulsive:           15.518523

@<TRIPOS>MOLECULE
HTS1710-02798465-01
 36 36 1 0 0
SMALL
USER_CHARGES


@<TRIPOS>ATOM
      1 S           3.6223  -12.3836  -32.3768 S.O2    1  UNL1        0.0604
      2 C           4.4103  -11.0779  -33.3643 C.ar    1  UNL1        0.1241
      3 N           4.0229  -12.0565  -30.7516 N.3     1  UNL1       -0.1811
      4 C           2.9924  -12.1974  -29.6970 C.3     1  UNL1        0.0705
      5 C           4.9319   -9.9480  -32.7013 C.ar    1  UNL1       -0.0251
      6 C           3.1384  -11.1163  -28.6058 C.2     1  UNL1        0.0605
      7 C           5.5386   -8.8944  -33.4191 C.ar    1  UNL1       -0.0007
      8 C           6.0965   -7.6858  -32.6966 C.2     1  UNL1        0.0717
      9 O           2.1669  -12.2054  -32.4114 O.2     1  UNL1       -0.1530
     10 O           4.2616  -13.6706  -32.6673 O.2     1  UNL1       -0.1530
     11 C           4.4924  -11.1484  -34.7753 C.ar    1  UNL1        0.0673
     12 O           3.9495  -10.2233  -28.7873 O.co2   1  UNL1       -0.5481
     13 O           6.9299   -7.0140  -33.2790 O.co2   1  UNL1       -0.5446
     14 C           5.6139   -8.9874  -34.8235 C.ar    1  UNL1       -0.0514
     15 C           5.0939  -10.1039  -35.4921 C.ar    1  UNL1       -0.0409
     16 C           3.0036  -13.6528  -29.1240 C.3     1  UNL1       -0.0219
     17 O           2.4036  -11.2115  -27.6393 O.co2   1  UNL1       -0.5481
     18 O           5.6775   -7.4567  -31.5752 O.co2   1  UNL1       -0.5446
     19 CL          3.8188  -12.4902  -35.6893 Cl      1  UNL1       -0.0815
     20 C           4.4398  -14.2526  -29.0355 C.3     1  UNL1       -0.0515
     21 C           2.0708  -14.6190  -29.9055 C.3     1  UNL1       -0.0606
     22 C           5.2208  -13.8256  -27.7687 C.3     1  UNL1       -0.0650
     23 H           4.3512  -11.0913  -30.7169 H       1  UNL1        0.1487
     24 H           2.0291  -12.0348  -30.1336 H       1  UNL1        0.0541
     25 H           4.8692   -9.8903  -31.6728 H       1  UNL1        0.0644
     26 H           6.0556   -8.2271  -35.3638 H       1  UNL1        0.0624
     27 H           5.1541  -10.1579  -36.5209 H       1  UNL1        0.0633
     28 H           2.6196  -13.5597  -28.1296 H       1  UNL1        0.0317
     29 H           4.9916  -13.9336  -29.8950 H       1  UNL1        0.0266
     30 H           4.3301  -15.3159  -28.9892 H       1  UNL1        0.0266
     31 H           2.4317  -14.7313  -30.9065 H       1  UNL1        0.0233
     32 H           1.0791  -14.2179  -29.9269 H       1  UNL1        0.0233
     33 H           2.0594  -15.5731  -29.4213 H       1  UNL1        0.0233
     34 H           5.3544  -12.7640  -27.7729 H       1  UNL1        0.0230
     35 H           6.1771  -14.3054  -27.7607 H       1  UNL1        0.0230
     36 H           4.6706  -14.1124  -26.8969 H       1  UNL1        0.0230
@<TRIPOS>BOND
     1     1     2    1
     2     1     3    1
     3     1     9    2
     4     1    10    2
     5     2     5   ar
     6     2    11   ar
     7     3     4    1
     8     4     6    1
     9     4    16    1
    10     5     7   ar
    11     6    12   ar
    12     6    17   ar
    13     7     8    1
    14     7    14   ar
    15     8    13   ar
    16     8    18   ar
    17    11    15   ar
    18    11    19    1
    19    14    15   ar
    20    16    20    1
    21    16    21    1
    22    20    22    1
    23     3    23    1
    24     4    24    1
    25     5    25    1
    26    14    26    1
    27    15    27    1
    28    16    28    1
    29    20    29    1
    30    20    30    1
    31    21    31    1
    32    21    32    1
    33    21    33    1
    34    22    34    1
    35    22    35    1
    36    22    36    1
@<TRIPOS>SUBSTRUCTURE
     1 UNL1        1 TEMP              0 ****  ****    0 ROOT


