HTS1710-00834911-01
 OpenBabel03232612363D

 32 32  0  0  1  0  0  0  0  0999 V2000
    3.0951  -10.1443  -35.1460 C   0  0  1  0  0  0  0  0  0  0  0  0
    4.2163   -9.4580  -35.9513 C   0  0  0  0  0  0  0  0  0  0  0  0
    2.0063   -9.2049  -34.8309 N   0  0  0  0  0  0  0  0  0  0  0  0
    3.9207   -9.9456  -29.3335 C   0  0  0  0  0  0  0  0  0  0  0  0
    1.8202  -12.0748  -33.4862 N   0  0  0  0  0  0  0  0  0  0  0  0
    3.2149  -11.2325  -29.6959 C   0  0  0  0  0  0  0  0  0  0  0  0
    1.1922   -8.6400  -35.8022 C   0  0  0  0  0  0  0  0  0  0  0  0
    1.2564  -12.6952  -32.5301 N   0  0  0  0  0  0  0  0  0  0  0  0
    2.5641  -11.3703  -30.9420 C   0  0  0  0  0  0  0  0  0  0  0  0
    4.0559   -9.3053  -37.1517 O   0  5  0  0  0  0  0  0  0  0  0  0
    3.4744   -9.3024  -28.3994 O   0  5  0  0  0  0  0  0  0  0  0  0
    1.3589   -8.9109  -36.9808 O   0  0  0  0  0  0  0  0  0  0  0  0
    1.1345  -12.1683  -34.9911 S   0  0  0  0  0  0  0  0  0  0  0  0
    2.5377  -11.3806  -35.8938 C   0  0  0  0  0  0  0  0  0  0  0  0
    1.9012  -12.5663  -31.2802 C   0  0  0  0  0  0  0  0  0  0  0  0
    5.1933   -9.0906  -35.3226 O   0  0  0  0  0  0  0  0  0  0  0  0
    4.8923   -9.6288  -29.9990 O   0  0  0  0  0  0  0  0  0  0  0  0
    3.1950  -12.3188  -28.7952 C   0  0  0  0  0  0  0  0  0  0  0  0
    2.5388  -13.5125  -29.1326 C   0  0  0  0  0  0  0  0  0  0  0  0
    0.0969   -7.6793  -35.3479 C   0  0  0  0  0  0  0  0  0  0  0  0
    1.8927  -13.6368  -30.3712 C   0  0  0  0  0  0  0  0  0  0  0  0
    3.5282  -10.4758  -34.2255 H   0  0  0  0  0  0  0  0  0  0  0  0
    1.8488   -8.9668  -33.8887 H   0  0  0  0  0  0  0  0  0  0  0  0
    2.5744  -10.5857  -31.6124 H   0  0  0  0  0  0  0  0  0  0  0  0
    2.1964  -11.0736  -36.8603 H   0  0  0  0  0  0  0  0  0  0  0  0
    3.3252  -12.1011  -35.9690 H   0  0  0  0  0  0  0  0  0  0  0  0
    3.6667  -12.2347  -27.8812 H   0  0  0  0  0  0  0  0  0  0  0  0
    2.5317  -14.3014  -28.4673 H   0  0  0  0  0  0  0  0  0  0  0  0
    0.1258   -7.5835  -34.2825 H   0  0  0  0  0  0  0  0  0  0  0  0
   -0.8577   -8.0600  -35.6459 H   0  0  0  0  0  0  0  0  0  0  0  0
    0.2545   -6.7207  -35.7965 H   0  0  0  0  0  0  0  0  0  0  0  0
    1.4105  -14.5160  -30.6149 H   0  0  0  0  0  0  0  0  0  0  0  0
  1  2  1  0  0  0  0
  1  3  1  0  0  0  0
  1 14  1  0  0  0  0
  1 22  1  1  0  0  0
  2 10  1  0  0  0  0
  2 16  2  0  0  0  0
  3  7  1  0  0  0  0
  3 23  1  0  0  0  0
  4  6  1  0  0  0  0
  4 11  1  0  0  0  0
  4 17  2  0  0  0  0
  5 13  1  0  0  0  0
  5  8  2  0  0  0  0
  6  9  2  0  0  0  0
  6 18  1  0  0  0  0
  7 12  2  0  0  0  0
  7 20  1  0  0  0  0
  8 15  1  0  0  0  0
  9 15  1  0  0  0  0
  9 24  1  0  0  0  0
 13 14  1  0  0  0  0
 14 25  1  0  0  0  0
 14 26  1  0  0  0  0
 15 21  2  0  0  0  0
 18 19  2  0  0  0  0
 18 27  1  0  0  0  0
 19 21  1  0  0  0  0
 19 28  1  0  0  0  0
 20 29  1  0  0  0  0
 20 30  1  0  0  0  0
 20 31  1  0  0  0  0
 21 32  1  0  0  0  0
M  CHG  2  10  -1  11  -1
M  END
$$$$
