##########                                Name: HTS1710-05120947-01
##########                    Molecular_Weight:             344.344
##########                DOCK_Rotatable_Bonds:                   6
##########                       Formal_Charge:                  -2
##########                     HBond_Acceptors:                   7
##########                        HBond_Donors:                   0
##########                         Heavy_Atoms:                  25
##########                          Grid_Score:          -75.156273
##########                     Grid_vdw_energy:          -37.075363
##########                      Grid_es_energy:          -38.080910
##########           Internal_energy_repulsive:           14.793917

@<TRIPOS>MOLECULE
HTS1710-05120947-01
 43 45 1 0 0
SMALL
USER_CHARGES


@<TRIPOS>ATOM
      1 C           5.8085  -17.6481  -25.6702 C.3     1  UNL1        0.0788
      2 O           6.1336  -16.4361  -26.3730 O.3     1  UNL1       -0.4950
      3 C           5.2068  -15.7096  -27.0973 C.ar    1  UNL1        0.1236
      4 C           5.6630  -14.9713  -28.1980 C.ar    1  UNL1       -0.0194
      5 C           4.7648  -14.2160  -28.9655 C.ar    1  UNL1       -0.0499
      6 C           3.3952  -14.1860  -28.6455 C.ar    1  UNL1        0.0148
      7 C           2.4518  -13.3503  -29.5251 C.3     1  UNL1        0.0549
      8 C           1.6121  -14.2218  -30.4854 C.3     1  UNL1       -0.0286
      9 C           1.4916  -13.3883  -31.7651 C.3     1  UNL1       -0.0351
     10 C           2.7176  -12.4624  -31.7458 C.3     1  UNL1        0.0156
     11 N           3.1457  -12.3319  -30.3448 N.am    1  UNL1       -0.2913
     12 C           3.9839  -11.3575  -29.7732 C.2     1  UNL1        0.2332
     13 O           4.2332  -11.3795  -28.5780 O.2     1  UNL1       -0.2712
     14 C           4.5599  -10.2731  -30.6327 C.2     1  UNL1       -0.0300
     15 C           4.8561  -10.2670  -31.9816 C.2     1  UNL1       -0.0558
     16 C           5.4094   -8.9881  -32.2465 C.2     1  UNL1       -0.0170
     17 C           5.4027   -8.3453  -31.0396 C.2     1  UNL1       -0.1247
     18 O           4.9026   -9.0940  -30.0100 O.co2   1  UNL1       -0.7816
     19 C           5.8984   -8.4648  -33.5372 C.2     1  UNL1        0.0706
     20 O           6.6519   -7.5075  -33.5087 O.co2   1  UNL1       -0.5447
     21 O           5.5168   -9.0242  -34.5513 O.co2   1  UNL1       -0.5447
     22 C           2.9264  -14.9319  -27.5361 C.ar    1  UNL1        0.1285
     23 O           1.5767  -14.9025  -27.2296 O.3     1  UNL1       -0.4947
     24 C           0.9948  -15.6038  -26.1182 C.3     1  UNL1        0.0788
     25 C           3.8358  -15.6915  -26.7656 C.ar    1  UNL1        0.0221
     26 H           6.6850  -18.0262  -25.1868 H       1  UNL1        0.0660
     27 H           5.4419  -18.3754  -26.3641 H       1  UNL1        0.0660
     28 H           5.0565  -17.4442  -24.9368 H       1  UNL1        0.0660
     29 H           6.6649  -14.9838  -28.4448 H       1  UNL1        0.0654
     30 H           5.1122  -13.6764  -29.7737 H       1  UNL1        0.0623
     31 H           1.8187  -12.8576  -28.8170 H       1  UNL1        0.0552
     32 H           0.6455  -14.4166  -30.0699 H       1  UNL1        0.0287
     33 H           2.0635  -15.1751  -30.6651 H       1  UNL1        0.0287
     34 H           0.5871  -12.8167  -31.7591 H       1  UNL1        0.0281
     35 H           1.4594  -13.9984  -32.6436 H       1  UNL1        0.0281
     36 H           2.4576  -11.5023  -32.1400 H       1  UNL1        0.0465
     37 H           3.5059  -12.8654  -32.3466 H       1  UNL1        0.0465
     38 H           4.7061  -11.0332  -32.6563 H       1  UNL1        0.0620
     39 H           5.7452   -7.3796  -30.9164 H       1  UNL1        0.0461
     40 H          -0.0597  -15.4232  -26.0951 H       1  UNL1        0.0660
     41 H           1.4361  -15.2571  -25.2071 H       1  UNL1        0.0660
     42 H           1.1747  -16.6531  -26.2250 H       1  UNL1        0.0660
     43 H           3.4955  -16.2351  -25.9571 H       1  UNL1        0.0691
@<TRIPOS>BOND
     1     1     2    1
     2     2     3    1
     3     3     4   ar
     4     4     5   ar
     5     5     6   ar
     6     6     7    1
     7     7     8    1
     8     8     9    1
     9     9    10    1
    10    10    11    1
    11     7    11    1
    12    11    12   am
    13    12    13    2
    14    12    14    1
    15    14    15    2
    16    15    16    1
    17    16    17    2
    18    17    18    1
    19    14    18    1
    20    16    19    1
    21    19    20   ar
    22    19    21   ar
    23     6    22   ar
    24    22    23    1
    25    23    24    1
    26    22    25   ar
    27     3    25   ar
    28     1    26    1
    29     1    27    1
    30     1    28    1
    31     4    29    1
    32     5    30    1
    33     7    31    1
    34     8    32    1
    35     8    33    1
    36     9    34    1
    37     9    35    1
    38    10    36    1
    39    10    37    1
    40    15    38    1
    41    17    39    1
    42    24    40    1
    43    24    41    1
    44    24    42    1
    45    25    43    1
@<TRIPOS>SUBSTRUCTURE
     1 UNL1        1 TEMP              0 ****  ****    0 ROOT


