HTS1710-00558634-01
 OpenBabel03232612343D

 32 32  0  0  0  0  0  0  0  0999 V2000
    2.9305  -10.0843  -33.7386 C   0  0  0  0  0  0  0  0  0  0  0  0
    1.8210   -9.2062  -33.7816 C   0  0  0  0  0  0  0  0  0  0  0  0
    3.7473  -10.0927  -32.5921 C   0  0  0  0  0  0  0  0  0  0  0  0
    3.2860  -11.0318  -34.8914 C   0  0  0  0  0  0  0  0  0  0  0  0
    1.5409   -8.3877  -32.6721 C   0  0  0  0  0  0  0  0  0  0  0  0
    0.9262   -9.0953  -34.9832 C   0  0  0  0  0  0  0  0  0  0  0  0
    3.4721   -9.2691  -31.4864 C   0  0  0  0  0  0  0  0  0  0  0  0
    4.6929  -10.7650  -35.4830 C   0  0  0  0  0  0  0  0  0  0  0  0
    2.3502   -8.4083  -31.5210 C   0  0  0  0  0  0  0  0  0  0  0  0
    1.4055   -8.5964  -35.9863 O   0  5  0  0  0  0  0  0  0  0  0  0
   -0.2050   -9.5365  -34.8781 O   0  0  0  0  0  0  0  0  0  0  0  0
    4.3991   -9.3320  -30.3058 C   0  0  0  0  0  0  0  0  0  0  0  0
    4.8279   -9.3578  -36.0770 C   0  0  0  0  0  0  0  0  0  0  0  0
    1.9983   -7.4768  -30.3561 C   0  0  0  0  0  0  0  0  0  0  0  0
    5.5234   -8.8851  -30.4505 O   0  5  0  0  0  0  0  0  0  0  0  0
    3.9490   -9.8098  -29.2786 O   0  0  0  0  0  0  0  0  0  0  0  0
    4.2947   -9.1515  -37.1529 O   0  5  0  0  0  0  0  0  0  0  0  0
    5.4925   -8.5509  -35.4504 O   0  0  0  0  0  0  0  0  0  0  0  0
    1.9547   -5.9888  -30.7747 C   0  0  0  0  0  0  0  0  0  0  0  0
    3.2578   -5.5526  -31.4584 C   0  0  0  0  0  0  0  0  0  0  0  0
    4.2709   -6.1673  -31.1745 O   0  5  0  0  0  0  0  0  0  0  0  0
    3.1872   -4.6365  -32.2591 O   0  0  0  0  0  0  0  0  0  0  0  0
    4.5676  -10.7183  -32.5625 H   0  0  0  0  0  0  0  0  0  0  0  0
    2.5607  -10.9102  -35.6685 H   0  0  0  0  0  0  0  0  0  0  0  0
    3.2877  -12.0271  -34.4985 H   0  0  0  0  0  0  0  0  0  0  0  0
    0.7237   -7.7583  -32.7030 H   0  0  0  0  0  0  0  0  0  0  0  0
    4.8813  -11.4819  -36.2547 H   0  0  0  0  0  0  0  0  0  0  0  0
    5.4002  -10.8480  -34.6844 H   0  0  0  0  0  0  0  0  0  0  0  0
    2.7345   -7.5952  -29.5887 H   0  0  0  0  0  0  0  0  0  0  0  0
    1.0214   -7.7446  -30.0116 H   0  0  0  0  0  0  0  0  0  0  0  0
    1.8026   -5.3877  -29.9027 H   0  0  0  0  0  0  0  0  0  0  0  0
    1.1535   -5.8620  -31.4725 H   0  0  0  0  0  0  0  0  0  0  0  0
  1  2  2  0  0  0  0
  1  3  1  0  0  0  0
  1  4  1  0  0  0  0
  2  5  1  0  0  0  0
  2  6  1  0  0  0  0
  3  7  2  0  0  0  0
  3 23  1  0  0  0  0
  4  8  1  0  0  0  0
  4 24  1  0  0  0  0
  4 25  1  0  0  0  0
  5  9  2  0  0  0  0
  5 26  1  0  0  0  0
  6 10  1  0  0  0  0
  6 11  2  0  0  0  0
  7 12  1  0  0  0  0
  7  9  1  0  0  0  0
  8 13  1  0  0  0  0
  8 27  1  0  0  0  0
  8 28  1  0  0  0  0
  9 14  1  0  0  0  0
 12 15  1  0  0  0  0
 12 16  2  0  0  0  0
 13 17  1  0  0  0  0
 13 18  2  0  0  0  0
 14 19  1  0  0  0  0
 14 29  1  0  0  0  0
 14 30  1  0  0  0  0
 19 20  1  0  0  0  0
 19 31  1  0  0  0  0
 19 32  1  0  0  0  0
 20 21  1  0  0  0  0
 20 22  2  0  0  0  0
M  CHG  4  10  -1  15  -1  17  -1  21  -1
M  END
$$$$
