##########                                Name: HTS1710-00107949-01
##########                    Molecular_Weight:             356.288
##########                DOCK_Rotatable_Bonds:                   9
##########                       Formal_Charge:                  -2
##########                     HBond_Acceptors:                   8
##########                        HBond_Donors:                   0
##########                         Heavy_Atoms:                  26
##########                          Grid_Score:          -78.869019
##########                     Grid_vdw_energy:          -38.406796
##########                      Grid_es_energy:          -40.462219
##########           Internal_energy_repulsive:           11.585472

@<TRIPOS>MOLECULE
HTS1710-00107949-01
 38 39 1 0 0
SMALL
USER_CHARGES


@<TRIPOS>ATOM
      1 C           3.0981  -10.3223  -30.0564 C.3     1  UNL1        0.1842
      2 C           3.4190  -10.0644  -31.5704 C.3     1  UNL1        0.1842
      3 O           3.9454  -11.3843  -29.5535 O.3     1  UNL1       -0.4477
      4 O           2.5005   -9.0779  -32.1010 O.3     1  UNL1       -0.4477
      5 C           3.4757  -12.6593  -29.3963 C.2     1  UNL1        0.3399
      6 C           2.0156   -9.1672  -33.3774 C.2     1  UNL1        0.3399
      7 C           3.2796   -9.0623  -29.1821 C.2     1  UNL1        0.0861
      8 C           4.8709   -9.5921  -31.8037 C.2     1  UNL1        0.0861
      9 O           2.3900  -13.0425  -29.8030 O.2     1  UNL1       -0.2449
     10 O           2.5728   -9.7737  -34.2793 O.2     1  UNL1       -0.2449
     11 C           0.7151   -8.4251  -33.5762 C.ar    1  UNL1        0.0590
     12 C           4.4328  -13.5614  -28.6535 C.ar    1  UNL1        0.0590
     13 O           2.6675   -8.0636  -29.5226 O.co2   1  UNL1       -0.5459
     14 O           5.3494   -8.8486  -30.9630 O.co2   1  UNL1       -0.5459
     15 O           5.4814  -10.0591  -32.7513 O.co2   1  UNL1       -0.5459
     16 O           3.9393   -9.1623  -28.1610 O.co2   1  UNL1       -0.5459
     17 C           4.2652  -14.9609  -28.7075 C.ar    1  UNL1       -0.0478
     18 C           5.5014  -13.0333  -27.8931 C.ar    1  UNL1       -0.0478
     19 C          -0.0439   -8.0249  -32.4561 C.ar    1  UNL1       -0.0478
     20 C           0.2334   -8.1202  -34.8691 C.ar    1  UNL1       -0.0478
     21 C           5.1416  -15.8132  -28.0177 C.ar    1  UNL1       -0.0610
     22 C           6.3759  -13.8885  -27.2037 C.ar    1  UNL1       -0.0610
     23 C          -1.2584   -7.3401  -32.6244 C.ar    1  UNL1       -0.0610
     24 C          -0.9819   -7.4358  -35.0328 C.ar    1  UNL1       -0.0610
     25 C           6.1967  -15.2788  -27.2640 C.ar    1  UNL1       -0.0617
     26 C          -1.7289   -7.0464  -33.9122 C.ar    1  UNL1       -0.0617
     27 H           2.0673  -10.6033  -29.9975 H       1  UNL1        0.0839
     28 H           3.3037  -10.9987  -32.0789 H       1  UNL1        0.0839
     29 H           3.4909  -15.3621  -29.2593 H       1  UNL1        0.0626
     30 H           5.6397  -12.0118  -27.8444 H       1  UNL1        0.0626
     31 H           0.2963   -8.2371  -31.5053 H       1  UNL1        0.0626
     32 H           0.7785   -8.4024  -35.6987 H       1  UNL1        0.0626
     33 H           5.0093  -16.8356  -28.0653 H       1  UNL1        0.0618
     34 H           7.1527  -13.4935  -26.6510 H       1  UNL1        0.0618
     35 H          -1.8058   -7.0523  -31.7983 H       1  UNL1        0.0618
     36 H          -1.3261   -7.2189  -35.9812 H       1  UNL1        0.0618
     37 H           6.8392  -15.9061  -26.7553 H       1  UNL1        0.0618
     38 H          -2.6226   -6.5451  -34.0349 H       1  UNL1        0.0618
@<TRIPOS>BOND
     1     1     2    1
     2     1     3    1
     3     2     4    1
     4     3     5    1
     5     4     6    1
     6     1     7    1
     7     2     8    1
     8     5     9    2
     9     6    10    2
    10     6    11    1
    11     5    12    1
    12     7    13   ar
    13     8    14   ar
    14     8    15   ar
    15     7    16   ar
    16    12    17   ar
    17    12    18   ar
    18    11    19   ar
    19    11    20   ar
    20    17    21   ar
    21    18    22   ar
    22    19    23   ar
    23    20    24   ar
    24    22    25   ar
    25    24    26   ar
    26    21    25   ar
    27    23    26   ar
    28     1    27    1
    29     2    28    1
    30    17    29    1
    31    18    30    1
    32    19    31    1
    33    20    32    1
    34    21    33    1
    35    22    34    1
    36    23    35    1
    37    24    36    1
    38    25    37    1
    39    26    38    1
@<TRIPOS>SUBSTRUCTURE
     1 UNL1        1 TEMP              0 ****  ****    0 ROOT


