HTS1710-01924491-01
 OpenBabel03232612363D

 46 48  0  0  1  0  0  0  0  0999 V2000
    2.6950  -12.1301  -30.2210 C   0  0  0  0  0  0  0  0  0  0  0  0
    3.8308  -10.0773  -30.5160 N   0  0  0  0  0  0  0  0  0  0  0  0
    3.4296  -10.1690  -29.1879 C   0  0  0  0  0  0  0  0  0  0  0  0
    2.7166  -11.4466  -29.0644 C   0  0  0  0  0  0  0  0  0  0  0  0
    3.3844  -11.2722  -31.2840 C   0  0  2  0  0  0  0  0  0  0  0  0
    2.4707  -10.9016  -32.4488 C   0  0  0  0  0  0  0  0  0  0  0  0
    1.9613  -13.3837  -30.5749 C   0  0  0  0  0  0  0  0  0  0  0  0
    4.4370   -8.9569  -31.1581 C   0  0  0  0  0  0  0  0  0  0  0  0
    3.6279   -9.3472  -28.3088 O   0  0  0  0  0  0  0  0  0  0  0  0
    6.8069   -6.1985  -35.5001 C   0  0  0  0  0  0  0  0  0  0  0  0
    1.5350   -9.8603  -32.3032 C   0  0  0  0  0  0  0  0  0  0  0  0
    2.1402  -11.8132  -27.8970 O   0  5  0  0  0  0  0  0  0  0  0  0
    1.3584  -13.4988  -31.6282 O   0  0  0  0  0  0  0  0  0  0  0  0
    6.6131   -7.3648  -35.7969 O   0  5  0  0  0  0  0  0  0  0  0  0
    5.4349   -9.1522  -32.1339 C   0  0  0  0  0  0  0  0  0  0  0  0
    4.0221   -7.6453  -30.8576 C   0  0  0  0  0  0  0  0  0  0  0  0
    6.1915   -5.6961  -33.1609 O   0  0  0  0  0  0  0  0  0  0  0  0
    7.2931   -5.8781  -34.0783 C   0  0  0  0  0  0  0  0  0  0  0  0
    5.5999   -6.7461  -32.4853 C   0  0  0  0  0  0  0  0  0  0  0  0
    0.6798   -9.5182  -33.3728 C   0  0  0  0  0  0  0  0  0  0  0  0
    6.6465   -5.2467  -36.2431 O   0  0  0  0  0  0  0  0  0  0  0  0
    6.0116   -8.0540  -32.7897 C   0  0  0  0  0  0  0  0  0  0  0  0
    4.5979   -6.5454  -31.5121 C   0  0  0  0  0  0  0  0  0  0  0  0
    2.5436  -11.6051  -33.6658 C   0  0  0  0  0  0  0  0  0  0  0  0
   -0.2520   -8.5013  -33.2753 O   0  0  0  0  0  0  0  0  0  0  0  0
    1.6944  -11.2665  -34.7285 C   0  0  0  0  0  0  0  0  0  0  0  0
    1.8714  -14.4572  -29.4862 C   0  0  0  0  0  0  0  0  0  0  0  0
    0.7657  -10.2251  -34.5828 C   0  0  0  0  0  0  0  0  0  0  0  0
   -0.3518   -7.6399  -32.1277 C   0  0  0  0  0  0  0  0  0  0  0  0
    4.1877  -11.7916  -31.7634 H   0  0  0  0  0  0  0  0  0  0  0  0
    1.4741   -9.3450  -31.4112 H   0  0  0  0  0  0  0  0  0  0  0  0
    5.7434  -10.1089  -32.3675 H   0  0  0  0  0  0  0  0  0  0  0  0
    3.2875   -7.4913  -30.1494 H   0  0  0  0  0  0  0  0  0  0  0  0
    7.8731   -4.9792  -34.1053 H   0  0  0  0  0  0  0  0  0  0  0  0
    7.8788   -6.7045  -33.7337 H   0  0  0  0  0  0  0  0  0  0  0  0
    6.7435   -8.2083  -33.5007 H   0  0  0  0  0  0  0  0  0  0  0  0
    4.2881   -5.5884  -31.2814 H   0  0  0  0  0  0  0  0  0  0  0  0
    3.2246  -12.3726  -33.7762 H   0  0  0  0  0  0  0  0  0  0  0  0
    1.7524  -11.7842  -35.6194 H   0  0  0  0  0  0  0  0  0  0  0  0
    2.4701  -14.1665  -28.6483 H   0  0  0  0  0  0  0  0  0  0  0  0
    2.2282  -15.3888  -29.8734 H   0  0  0  0  0  0  0  0  0  0  0  0
    0.8531  -14.5664  -29.1762 H   0  0  0  0  0  0  0  0  0  0  0  0
    0.1434   -9.9776  -35.3681 H   0  0  0  0  0  0  0  0  0  0  0  0
   -1.1411   -6.9336  -32.2795 H   0  0  0  0  0  0  0  0  0  0  0  0
    0.5724   -7.1183  -31.9918 H   0  0  0  0  0  0  0  0  0  0  0  0
   -0.5611   -8.2271  -31.2581 H   0  0  0  0  0  0  0  0  0  0  0  0
  1  4  2  0  0  0  0
  1  5  1  0  0  0  0
  1  7  1  0  0  0  0
  2  3  1  0  0  0  0
  2  5  1  0  0  0  0
  2  8  1  0  0  0  0
  3  4  1  0  0  0  0
  3  9  2  0  0  0  0
  4 12  1  0  0  0  0
  5  6  1  0  0  0  0
  5 30  1  6  0  0  0
  6 11  2  0  0  0  0
  6 24  1  0  0  0  0
  7 13  2  0  0  0  0
  7 27  1  0  0  0  0
  8 15  2  0  0  0  0
  8 16  1  0  0  0  0
 10 14  1  0  0  0  0
 10 18  1  0  0  0  0
 10 21  2  0  0  0  0
 11 20  1  0  0  0  0
 11 31  1  0  0  0  0
 15 22  1  0  0  0  0
 15 32  1  0  0  0  0
 16 23  2  0  0  0  0
 16 33  1  0  0  0  0
 17 18  1  0  0  0  0
 17 19  1  0  0  0  0
 18 34  1  0  0  0  0
 18 35  1  0  0  0  0
 19 22  2  0  0  0  0
 19 23  1  0  0  0  0
 20 25  1  0  0  0  0
 20 28  2  0  0  0  0
 22 36  1  0  0  0  0
 23 37  1  0  0  0  0
 24 26  2  0  0  0  0
 24 38  1  0  0  0  0
 25 29  1  0  0  0  0
 26 28  1  0  0  0  0
 26 39  1  0  0  0  0
 27 40  1  0  0  0  0
 27 41  1  0  0  0  0
 27 42  1  0  0  0  0
 28 43  1  0  0  0  0
 29 44  1  0  0  0  0
 29 45  1  0  0  0  0
 29 46  1  0  0  0  0
M  CHG  2  12  -1  14  -1
M  END
$$$$
