##########                                Name: HTS1710-01355876-01
##########                    Molecular_Weight:             287.315
##########                DOCK_Rotatable_Bonds:                   7
##########                       Formal_Charge:                  -2
##########                     HBond_Acceptors:                   5
##########                        HBond_Donors:                   0
##########                         Heavy_Atoms:                  21
##########                          Grid_Score:          -75.731949
##########                     Grid_vdw_energy:          -34.290501
##########                      Grid_es_energy:          -41.441448
##########           Internal_energy_repulsive:           11.659102

@<TRIPOS>MOLECULE
HTS1710-01355876-01
 38 39 1 0 0
SMALL
USER_CHARGES


@<TRIPOS>ATOM
      1 C           2.7401   -9.1128  -32.4910 C.ar    1  UNL1       -0.0133
      2 C           1.6812   -8.2448  -32.7649 C.ar    1  UNL1        0.0095
      3 N           1.1441   -8.5709  -34.0281 N.ar    1  UNL1       -0.3463
      4 C           2.8432   -9.9899  -33.6283 C.ar    1  UNL1        0.0037
      5 C           3.5494   -9.0475  -31.2176 C.3     1  UNL1        0.0307
      6 C           1.8779   -9.6329  -34.5187 C.ar    1  UNL1        0.0493
      7 C           5.0406   -8.7780  -31.5130 C.2     1  UNL1        0.0495
      8 C           3.0968   -9.9699  -28.8647 C.2     1  UNL1        0.0427
      9 C           3.3157  -10.3151  -30.3450 C.3     1  UNL1       -0.0012
     10 O           5.4170   -8.7980  -32.6732 O.co2   1  UNL1       -0.5492
     11 O           3.6272   -8.9557  -28.4456 O.co2   1  UNL1       -0.5498
     12 O           5.7550   -8.5575  -30.5507 O.co2   1  UNL1       -0.5492
     13 C           0.0273   -7.8975  -34.7032 C.3     1  UNL1        0.0233
     14 O           2.4317  -10.7467  -28.2014 O.co2   1  UNL1       -0.5498
     15 C           3.7276  -11.0449  -33.8889 C.ar    1  UNL1       -0.0523
     16 C           1.7106  -10.2913  -35.7453 C.ar    1  UNL1       -0.0376
     17 C          -1.0303   -7.3536  -33.7174 C.3     1  UNL1       -0.0352
     18 C          -1.8323   -6.1791  -34.3220 C.3     1  UNL1       -0.0543
     19 C           3.5894  -11.7329  -35.1119 C.ar    1  UNL1       -0.0611
     20 C           2.5864  -11.3578  -36.0364 C.ar    1  UNL1       -0.0598
     21 C          -2.3769   -6.5100  -35.7273 C.3     1  UNL1       -0.0652
     22 H           1.3468   -7.4898  -32.1459 H       1  UNL1        0.0812
     23 H           3.2080   -8.2143  -30.6396 H       1  UNL1        0.0413
     24 H           2.4516  -10.8298  -30.7099 H       1  UNL1        0.0334
     25 H           4.1915  -10.9259  -30.4131 H       1  UNL1        0.0334
     26 H          -0.4460   -8.5966  -35.3605 H       1  UNL1        0.0492
     27 H           0.4307   -7.0614  -35.2354 H       1  UNL1        0.0492
     28 H           4.4565  -11.3098  -33.2080 H       1  UNL1        0.0624
     29 H           0.9744  -10.0063  -36.4100 H       1  UNL1        0.0638
     30 H          -0.5353   -7.0145  -32.8315 H       1  UNL1        0.0282
     31 H          -1.7162   -8.1448  -33.4974 H       1  UNL1        0.0282
     32 H          -1.1923   -5.3245  -34.3926 H       1  UNL1        0.0263
     33 H          -2.6678   -5.9869  -33.6818 H       1  UNL1        0.0263
     34 H           4.2244  -12.5155  -35.3342 H       1  UNL1        0.0618
     35 H           2.4950  -11.8676  -36.9290 H       1  UNL1        0.0618
     36 H          -1.5597   -6.7070  -36.3893 H       1  UNL1        0.0230
     37 H          -2.9420   -5.6793  -36.0956 H       1  UNL1        0.0230
     38 H          -3.0068   -7.3732  -35.6716 H       1  UNL1        0.0230
@<TRIPOS>BOND
     1     1     2   ar
     2     2     3   ar
     3     1     4   ar
     4     1     5    1
     5     4     6   ar
     6     5     7    1
     7     8     9    1
     8     5     9    1
     9     7    10   ar
    10     8    11   ar
    11     7    12   ar
    12     3    13    1
    13     8    14   ar
    14     4    15   ar
    15     6    16   ar
    16    13    17    1
    17    17    18    1
    18    15    19   ar
    19    19    20   ar
    20    18    21    1
    21     3     6   ar
    22    16    20   ar
    23     2    22    1
    24     5    23    1
    25     9    24    1
    26     9    25    1
    27    13    26    1
    28    13    27    1
    29    15    28    1
    30    16    29    1
    31    17    30    1
    32    17    31    1
    33    18    32    1
    34    18    33    1
    35    19    34    1
    36    20    35    1
    37    21    36    1
    38    21    37    1
    39    21    38    1
@<TRIPOS>SUBSTRUCTURE
     1 UNL1        1 TEMP              0 ****  ****    0 ROOT


