HTS1710-05295003-01
 OpenBabel03232612363D

 37 37  0  0  0  0  0  0  0  0999 V2000
    4.3580  -11.2450  -35.8427 C   0  0  0  0  0  0  0  0  0  0  0  0
    5.2162  -10.9311  -34.7298 O   0  0  0  0  0  0  0  0  0  0  0  0
    5.4107   -9.6250  -34.3749 C   0  0  0  0  0  0  0  0  0  0  0  0
    5.7477   -8.7623  -35.1687 O   0  0  0  0  0  0  0  0  0  0  0  0
    5.1803   -9.3276  -32.9418 C   0  0  0  0  0  0  0  0  0  0  0  0
    4.5034  -10.1712  -32.0241 C   0  0  0  0  0  0  0  0  0  0  0  0
    4.5178   -9.5068  -30.8247 C   0  0  0  0  0  0  0  0  0  0  0  0
    5.1498   -8.2912  -30.8653 O   0  0  0  0  0  0  0  0  0  0  0  0
    5.5319   -8.2335  -32.1795 C   0  0  0  0  0  0  0  0  0  0  0  0
    6.2777   -7.0155  -32.6646 C   0  0  0  0  0  0  0  0  0  0  0  0
    3.7765  -10.1004  -29.3068 S   0  0  0  0  0  0  0  0  0  0  0  0
    2.7991   -9.1219  -28.8198 O   0  0  0  0  0  0  0  0  0  0  0  0
    4.8429  -10.6620  -28.4731 O   0  0  0  0  0  0  0  0  0  0  0  0
    2.8584  -11.4589  -29.7587 N   0  0  0  0  0  0  0  0  0  0  0  0
    3.4617  -12.7873  -29.5603 C   0  0  0  0  0  0  0  0  0  0  0  0
    3.1724  -13.2881  -28.1286 C   0  0  0  0  0  0  0  0  0  0  0  0
    3.5545  -14.7782  -27.9554 C   0  0  0  0  0  0  0  0  0  0  0  0
    5.0261  -15.0737  -28.3373 C   0  0  0  0  0  0  0  0  0  0  0  0
    6.0298  -14.3079  -27.4649 C   0  0  0  0  0  0  0  0  0  0  0  0
    6.3820  -13.2080  -27.8520 O   0  5  0  0  0  0  0  0  0  0  0  0
    6.3961  -14.8458  -26.4340 O   0  0  0  0  0  0  0  0  0  0  0  0
    4.3218  -12.3060  -35.9770 H   0  0  0  0  0  0  0  0  0  0  0  0
    4.7421  -10.7862  -36.7298 H   0  0  0  0  0  0  0  0  0  0  0  0
    3.3726  -10.8762  -35.6484 H   0  0  0  0  0  0  0  0  0  0  0  0
    4.0861  -11.0947  -32.2189 H   0  0  0  0  0  0  0  0  0  0  0  0
    6.4089   -6.3308  -31.8529 H   0  0  0  0  0  0  0  0  0  0  0  0
    5.7183   -6.5417  -33.4440 H   0  0  0  0  0  0  0  0  0  0  0  0
    7.2350   -7.3099  -33.0411 H   0  0  0  0  0  0  0  0  0  0  0  0
    2.6449  -11.3661  -30.7519 H   0  0  0  0  0  0  0  0  0  0  0  0
    4.5197  -12.7216  -29.7061 H   0  0  0  0  0  0  0  0  0  0  0  0
    3.0412  -13.4738  -30.2651 H   0  0  0  0  0  0  0  0  0  0  0  0
    2.1285  -13.1718  -27.9248 H   0  0  0  0  0  0  0  0  0  0  0  0
    3.7624  -12.7110  -27.4476 H   0  0  0  0  0  0  0  0  0  0  0  0
    2.9155  -15.3688  -28.5781 H   0  0  0  0  0  0  0  0  0  0  0  0
    3.4377  -15.0205  -26.9198 H   0  0  0  0  0  0  0  0  0  0  0  0
    5.1774  -14.7939  -29.3589 H   0  0  0  0  0  0  0  0  0  0  0  0
    5.1961  -16.1188  -28.1837 H   0  0  0  0  0  0  0  0  0  0  0  0
  1  2  1  0  0  0  0
  1 22  1  0  0  0  0
  1 23  1  0  0  0  0
  1 24  1  0  0  0  0
  2  3  1  0  0  0  0
  3  4  2  0  0  0  0
  3  5  1  0  0  0  0
  5  6  1  0  0  0  0
  5  9  2  0  0  0  0
  6  7  2  0  0  0  0
  6 25  1  0  0  0  0
  7  8  1  0  0  0  0
  7 11  1  0  0  0  0
  8  9  1  0  0  0  0
  9 10  1  0  0  0  0
 10 26  1  0  0  0  0
 10 27  1  0  0  0  0
 10 28  1  0  0  0  0
 11 12  2  0  0  0  0
 11 13  2  0  0  0  0
 11 14  1  0  0  0  0
 14 15  1  0  0  0  0
 14 29  1  0  0  0  0
 15 16  1  0  0  0  0
 15 30  1  0  0  0  0
 15 31  1  0  0  0  0
 16 17  1  0  0  0  0
 16 32  1  0  0  0  0
 16 33  1  0  0  0  0
 17 18  1  0  0  0  0
 17 34  1  0  0  0  0
 17 35  1  0  0  0  0
 18 19  1  0  0  0  0
 18 36  1  0  0  0  0
 18 37  1  0  0  0  0
 19 20  1  0  0  0  0
 19 21  2  0  0  0  0
M  CHG  1  20  -1
M  END
$$$$
