##########                                Name: HTS1710-00769084-01
##########                    Molecular_Weight:             332.313
##########                DOCK_Rotatable_Bonds:                   9
##########                       Formal_Charge:                  -2
##########                     HBond_Acceptors:                   8
##########                        HBond_Donors:                   2
##########                         Heavy_Atoms:                  24
##########                          Grid_Score:          -76.540016
##########                     Grid_vdw_energy:          -41.050941
##########                      Grid_es_energy:          -35.489075
##########           Internal_energy_repulsive:            6.004178

@<TRIPOS>MOLECULE
HTS1710-00769084-01
 40 41 1 0 0
SMALL
USER_CHARGES


@<TRIPOS>ATOM
      1 C           6.5679  -18.4696  -24.5189 C.2     1  UNL1        0.0435
      2 C           3.8765  -10.5806  -29.7069 C.2     1  UNL1        0.0435
      3 C           3.3625  -11.5634  -28.7231 C.2     1  UNL1        0.2446
      4 C           7.1053  -17.5302  -25.5328 C.2     1  UNL1        0.2446
      5 C           7.4250  -19.2521  -23.7608 C.2     1  UNL1       -0.0137
      6 C           3.7970   -9.2209  -29.4460 C.2     1  UNL1       -0.0137
      7 C           5.1487  -18.6103  -24.2776 C.2     1  UNL1       -0.0474
      8 C           4.4762  -10.9856  -30.9585 C.2     1  UNL1       -0.0474
      9 C           5.6626  -20.3222  -22.5213 C.2     1  UNL1        0.0558
     10 C           4.8403   -8.5689  -31.5147 C.2     1  UNL1        0.0558
     11 O           6.9775  -20.1319  -22.8106 O.co2   1  UNL1       -0.5861
     12 O           4.2612   -8.2727  -30.3195 O.co2   1  UNL1       -0.5861
     13 C           4.7369  -19.5051  -23.3150 C.2     1  UNL1       -0.0393
     14 C           4.9313  -10.0047  -31.8104 C.2     1  UNL1       -0.0393
     15 O           8.3033  -17.4101  -25.7350 O.2     1  UNL1       -0.2702
     16 O           2.6270  -11.2384  -27.8049 O.2     1  UNL1       -0.2702
     17 O           5.2900  -21.1108  -21.6697 O.2     1  UNL1       -0.5459
     18 O           5.2470   -7.7073  -32.2738 O.2     1  UNL1       -0.5459
     19 N           3.7304  -12.8969  -28.8475 N.am    1  UNL1       -0.3113
     20 N           6.2194  -16.7601  -26.2744 N.am    1  UNL1       -0.3113
     21 C           3.2618  -13.9275  -27.9122 C.3     1  UNL1        0.0119
     22 C           6.6748  -15.8098  -27.2941 C.3     1  UNL1        0.0119
     23 C           5.6854  -14.6284  -27.3866 C.3     1  UNL1       -0.0360
     24 C           4.2755  -15.0919  -27.8281 C.3     1  UNL1       -0.0360
     25 H           8.4414  -19.1686  -23.9186 H       1  UNL1        0.0704
     26 H           3.3713   -8.9108  -28.5585 H       1  UNL1        0.0704
     27 H           4.4629  -18.0548  -24.8126 H       1  UNL1        0.0626
     28 H           4.5610  -11.9838  -31.2067 H       1  UNL1        0.0626
     29 H           3.7244  -19.6064  -23.1428 H       1  UNL1        0.0635
     30 H           5.3591  -10.2935  -32.7041 H       1  UNL1        0.0635
     31 H           4.3250  -13.1598  -29.5868 H       1  UNL1        0.1490
     32 H           5.2534  -16.8552  -26.1102 H       1  UNL1        0.1490
     33 H           2.3196  -14.3058  -28.2500 H       1  UNL1        0.0462
     34 H           3.1599  -13.4897  -26.9412 H       1  UNL1        0.0462
     35 H           6.7278  -16.3039  -28.2418 H       1  UNL1        0.0462
     36 H           7.6424  -15.4402  -27.0258 H       1  UNL1        0.0462
     37 H           6.0562  -13.9211  -28.0988 H       1  UNL1        0.0281
     38 H           5.6016  -14.1881  -26.4150 H       1  UNL1        0.0281
     39 H           4.3522  -15.5490  -28.7925 H       1  UNL1        0.0281
     40 H           3.9165  -15.7794  -27.0909 H       1  UNL1        0.0281
@<TRIPOS>BOND
     1     2     3    1
     2     3    19   am
     3     1     4    1
     4     1     5    2
     5     2     6    2
     6     1     7    1
     7     2     8    1
     8     9    13    1
     9    10    14    1
    10     5    11    1
    11     6    12    1
    12     7    13    2
    13     8    14    2
    14     4    15    2
    15     3    16    2
    16     9    17    2
    17    10    18    2
    18    19    21    1
    19     4    20   am
    20    21    24    1
    21    20    22    1
    22    22    23    1
    23    23    24    1
    24     9    11    1
    25    10    12    1
    26     5    25    1
    27     6    26    1
    28     7    27    1
    29     8    28    1
    30    13    29    1
    31    14    30    1
    32    19    31    1
    33    20    32    1
    34    21    33    1
    35    21    34    1
    36    22    35    1
    37    22    36    1
    38    23    37    1
    39    23    38    1
    40    24    39    1
    41    24    40    1
@<TRIPOS>SUBSTRUCTURE
     1 UNL1        1 TEMP              0 ****  ****    0 ROOT


