##########                                Name: HTS1710-00366470-01
##########                    Molecular_Weight:             363.348
##########                DOCK_Rotatable_Bonds:                   8
##########                       Formal_Charge:                  -2
##########                     HBond_Acceptors:                   9
##########                        HBond_Donors:                   2
##########                         Heavy_Atoms:                  25
##########                          Grid_Score:          -78.826622
##########                     Grid_vdw_energy:          -39.883221
##########                      Grid_es_energy:          -38.943401
##########           Internal_energy_repulsive:            8.948300

@<TRIPOS>MOLECULE
HTS1710-00366470-01
 38 39 1 0 0
SMALL
USER_CHARGES


@<TRIPOS>ATOM
      1 O           4.7123  -11.7578  -28.4055 O.co2   1  UNL1       -0.5498
      2 C           3.5335  -11.8511  -28.1088 C.2     1  UNL1        0.0421
      3 O           2.7823  -10.9153  -27.8949 O.co2   1  UNL1       -0.5498
      4 C           2.9497  -13.2651  -27.9936 C.3     1  UNL1       -0.0092
      5 C           3.3923  -14.1890  -29.1537 C.3     1  UNL1       -0.0226
      6 C           2.9668  -13.6647  -30.5215 C.ar    1  UNL1       -0.0469
      7 C           3.9316  -13.2429  -31.4546 C.ar    1  UNL1       -0.0567
      8 C           3.5391  -12.7490  -32.7084 C.ar    1  UNL1       -0.0348
      9 C           2.1753  -12.6748  -33.0431 C.ar    1  UNL1        0.1085
     10 C           1.2073  -13.0982  -32.1136 C.ar    1  UNL1       -0.0348
     11 C           1.6026  -13.5920  -30.8605 C.ar    1  UNL1       -0.0567
     12 S           1.6747  -12.0109  -34.6411 S.O2    1  UNL1        0.0723
     13 O           0.5249  -12.7731  -35.1390 O.2     1  UNL1       -0.1500
     14 O           2.8765  -11.7251  -35.4313 O.2     1  UNL1       -0.1500
     15 N           1.0566  -10.4848  -34.2190 N.pl3   1  UNL1       -0.2162
     16 C           1.4488   -9.6032  -33.2322 C.ar    1  UNL1        0.0489
     17 C           0.4831   -8.7596  -32.6581 C.ar    1  UNL1       -0.0358
     18 C           0.8476   -7.8505  -31.6550 C.ar    1  UNL1       -0.0177
     19 C           2.1789   -7.7757  -31.2134 C.ar    1  UNL1        0.1258
     20 O           2.5058   -6.8670  -30.2476 O.3     1  UNL1       -0.5061
     21 C           3.1620   -8.6211  -31.7799 C.ar    1  UNL1        0.0405
     22 C           2.7852   -9.5288  -32.7911 C.ar    1  UNL1       -0.0270
     23 C           4.6041   -8.5673  -31.3409 C.2     1  UNL1        0.0752
     24 O           5.1617   -9.6230  -31.0949 O.co2   1  UNL1       -0.5445
     25 O           5.1192   -7.4648  -31.2705 O.co2   1  UNL1       -0.5445
     26 H           1.8819  -13.1963  -27.9989 H       1  UNL1        0.0328
     27 H           3.3138  -13.6923  -27.0827 H       1  UNL1        0.0328
     28 H           2.9563  -15.1550  -29.0070 H       1  UNL1        0.0317
     29 H           4.4615  -14.2307  -29.1428 H       1  UNL1        0.0317
     30 H           4.9341  -13.2969  -31.2156 H       1  UNL1        0.0621
     31 H           4.2532  -12.4396  -33.3863 H       1  UNL1        0.0637
     32 H           0.2050  -13.0457  -32.3537 H       1  UNL1        0.0637
     33 H           0.8886  -13.9035  -30.1836 H       1  UNL1        0.0621
     34 H           0.2968  -10.1810  -34.7664 H       1  UNL1        0.1737
     35 H          -0.4975   -8.8092  -32.9757 H       1  UNL1        0.0638
     36 H           0.1336   -7.2326  -31.2386 H       1  UNL1        0.0655
     37 H           1.8521   -6.2872  -29.9093 H       1  UNL1        0.2922
     38 H           3.4966  -10.1459  -33.2132 H       1  UNL1        0.0644
@<TRIPOS>BOND
     1     1     2   ar
     2     2     3   ar
     3     2     4    1
     4     4     5    1
     5     5     6    1
     6     6     7   ar
     7     7     8   ar
     8     8     9   ar
     9     9    10   ar
    10    10    11   ar
    11     6    11   ar
    12     9    12    1
    13    12    13    2
    14    12    14    2
    15    12    15    1
    16    15    16    1
    17    16    17   ar
    18    17    18   ar
    19    18    19   ar
    20    19    20    1
    21    19    21   ar
    22    21    22   ar
    23    16    22   ar
    24    21    23    1
    25    23    24   ar
    26    23    25   ar
    27     4    26    1
    28     4    27    1
    29     5    28    1
    30     5    29    1
    31     7    30    1
    32     8    31    1
    33    10    32    1
    34    11    33    1
    35    15    34    1
    36    17    35    1
    37    18    36    1
    38    20    37    1
    39    22    38    1
@<TRIPOS>SUBSTRUCTURE
     1 UNL1        1 TEMP              0 ****  ****    0 ROOT


