##########                                Name: HTS1710-01238621-01
##########                    Molecular_Weight:             354.276
##########                DOCK_Rotatable_Bonds:                  11
##########                       Formal_Charge:                  -2
##########                     HBond_Acceptors:                   8
##########                        HBond_Donors:                   1
##########                         Heavy_Atoms:                  24
##########                          Grid_Score:          -81.020386
##########                     Grid_vdw_energy:          -40.561474
##########                      Grid_es_energy:          -40.458908
##########           Internal_energy_repulsive:            9.503032

@<TRIPOS>MOLECULE
HTS1710-01238621-01
 41 41 1 0 0
SMALL
USER_CHARGES


@<TRIPOS>ATOM
      1 P           2.7278  -11.5695  -34.3342 P.3     1  UNL1        0.2376
      2 C           3.8798  -12.5482  -29.9454 C.2     1  UNL1        0.2178
      3 N           3.3863  -11.2554  -30.0564 N.am    1  UNL1       -0.3071
      4 C           4.3443   -9.1189  -30.7429 C.2     1  UNL1        0.0620
      5 CA          3.6317  -10.3947  -31.2240 C.3     1  UNL1        0.0631
      6 C           4.8105   -9.4723  -36.2992 C.2     1  UNL1        0.0422
      7 C           4.7970  -11.0100  -36.2097 C.3     1  UNL1       -0.0044
      8 C           2.2954  -10.0904  -31.9574 C.3     1  UNL1       -0.0204
      9 O           1.9079  -11.6246  -35.5733 O.2     1  UNL1       -0.2882
     10 O           4.5671  -13.0299  -30.8317 O.2     1  UNL1       -0.2754
     11 O           3.7636   -8.4101  -29.9367 O.co2   1  UNL1       -0.5479
     12 C           4.5196  -11.5691  -34.7879 C.3     1  UNL1        0.0319
     13 C           2.4731   -9.9476  -33.4886 C.3     1  UNL1        0.0288
     14 O           5.2243   -8.8373  -35.3442 O.co2   1  UNL1       -0.5498
     15 C           3.5480  -13.3315  -28.6764 C.3     1  UNL1        0.0491
     16 O           2.4427  -12.6807  -33.3868 O.3     1  UNL1       -0.1691
     17 OXT         5.4522   -8.9002  -31.2021 O.co2   1  UNL1       -0.5479
     18 O           4.3982   -8.9864  -37.3382 O.co2   1  UNL1       -0.5498
     19 C           4.7881  -14.0303  -28.1337 C.ar    1  UNL1       -0.0386
     20 C           5.9097  -13.2835  -27.7274 C.ar    1  UNL1       -0.0581
     21 C           4.8271  -15.4358  -28.0535 C.ar    1  UNL1       -0.0581
     22 C           5.9746  -16.0854  -27.5716 C.ar    1  UNL1       -0.0615
     23 C           7.0561  -13.9344  -27.2429 C.ar    1  UNL1       -0.0615
     24 C           7.0890  -15.3356  -27.1655 C.ar    1  UNL1       -0.0617
     25 H           2.8448  -10.8965  -29.3166 H       1  UNL1        0.1493
     26 H           4.2624  -10.8872  -31.9343 H       1  UNL1        0.0560
     27 H           5.7512  -11.3721  -36.5310 H       1  UNL1        0.0330
     28 H           3.9923  -11.3443  -36.8307 H       1  UNL1        0.0330
     29 H           1.8944   -9.1760  -31.5726 H       1  UNL1        0.0292
     30 H           1.6365  -10.9155  -31.7840 H       1  UNL1        0.0292
     31 H           5.0488  -10.9680  -34.0782 H       1  UNL1        0.0368
     32 H           4.8471  -12.5877  -34.7801 H       1  UNL1        0.0368
     33 H           3.3235   -9.3264  -33.6775 H       1  UNL1        0.0365
     34 H           1.5736   -9.5190  -33.8786 H       1  UNL1        0.0365
     35 H           2.8021  -14.0647  -28.9014 H       1  UNL1        0.0407
     36 H           3.1869  -12.6487  -27.9360 H       1  UNL1        0.0407
     37 H           5.8896  -12.2534  -27.7857 H       1  UNL1        0.0620
     38 H           4.0090  -15.9904  -28.3502 H       1  UNL1        0.0620
     39 H           5.9986  -17.1157  -27.5159 H       1  UNL1        0.0618
     40 H           7.8749  -13.3821  -26.9435 H       1  UNL1        0.0618
     41 H           7.9318  -15.8137  -26.8104 H       1  UNL1        0.0618
@<TRIPOS>BOND
     1     2     3   am
     2     3     5    1
     3     4     5    1
     4     5     8    1
     5     6     7    1
     6     7    12    1
     7     8    13    1
     8     1     9    2
     9     2    10    2
    10     4    11   ar
    11     1    12    1
    12     1    13    1
    13     6    14   ar
    14     2    15    1
    15     1    16    1
    16     4    17   ar
    17     6    18   ar
    18    15    19    1
    19    19    20   ar
    20    19    21   ar
    21    21    22   ar
    22    20    23   ar
    23    22    24   ar
    24    23    24   ar
    25     3    25    1
    26     5    26    1
    27     7    27    1
    28     7    28    1
    29     8    29    1
    30     8    30    1
    31    12    31    1
    32    12    32    1
    33    13    33    1
    34    13    34    1
    35    15    35    1
    36    15    36    1
    37    20    37    1
    38    21    38    1
    39    22    39    1
    40    23    40    1
    41    24    41    1
@<TRIPOS>SUBSTRUCTURE
     1 UNL1        1 TEMP              0 ****  ****    0 ROOT


