HTS1710-01816653-01
 OpenBabel03232612353D

 56 59  0  0  1  0  0  0  0  0999 V2000
    4.5641  -12.2899  -28.4908 C   0  0  2  0  0  0  0  0  0  0  0  0
    2.5688  -13.0373  -29.2280 C   0  0  1  0  0  0  0  0  0  0  0  0
   -2.1541   -5.3223  -33.1583 C   0  0  2  0  0  0  0  0  0  0  0  0
   -2.6513   -5.9685  -35.2629 C   0  0  1  0  0  0  0  0  0  0  0  0
    2.8906  -11.8879  -30.2312 C   0  0  1  0  0  0  0  0  0  0  0  0
   -1.1115   -5.7227  -35.3373 C   0  0  1  0  0  0  0  0  0  0  0  0
    4.3141  -11.3962  -29.7505 C   0  0  1  0  0  0  0  0  0  0  0  0
   -0.7499   -5.3512  -33.8403 C   0  0  1  0  0  0  0  0  0  0  0  0
    4.7565  -13.7048  -28.9971 C   0  0  0  0  0  0  0  0  0  0  0  0
    3.5829  -14.1429  -29.4372 C   0  0  0  0  0  0  0  0  0  0  0  0
   -2.6369   -6.7540  -33.0988 C   0  0  0  0  0  0  0  0  0  0  0  0
   -2.9235   -7.1381  -34.3369 C   0  0  0  0  0  0  0  0  0  0  0  0
    2.8094  -12.3331  -31.7041 C   0  0  0  0  0  0  0  0  0  0  0  0
   -0.2786   -6.8935  -35.8826 C   0  0  0  0  0  0  0  0  0  0  0  0
    4.3407   -9.8753  -29.4940 C   0  0  0  0  0  0  0  0  0  0  0  0
    0.0376   -4.0380  -33.6335 C   0  0  0  0  0  0  0  0  0  0  0  0
    3.1381  -12.4465  -27.9242 C   0  0  0  0  0  0  0  0  0  0  0  0
   -3.0556   -4.8265  -34.3080 C   0  0  0  0  0  0  0  0  0  0  0  0
   -0.0072   -7.0190  -37.0660 O   0  0  0  0  0  0  0  0  0  0  0  0
    3.7592  -12.8066  -32.3062 O   0  0  0  0  0  0  0  0  0  0  0  0
    3.9203   -9.4586  -28.4281 O   0  5  0  0  0  0  0  0  0  0  0  0
   -0.1191   -3.1262  -34.4273 O   0  5  0  0  0  0  0  0  0  0  0  0
    1.5931  -12.1875  -32.3548 N   0  0  0  0  0  0  0  0  0  0  0  0
    0.1850   -7.8257  -34.9672 N   0  0  0  0  0  0  0  0  0  0  0  0
    0.7945   -4.0071  -32.6781 O   0  0  0  0  0  0  0  0  0  0  0  0
    4.8080   -9.1837  -30.3811 O   0  0  0  0  0  0  0  0  0  0  0  0
    1.3984  -12.5772  -33.7568 C   0  0  0  0  0  0  0  0  0  0  0  0
    0.9892   -8.9862  -35.3635 C   0  0  0  0  0  0  0  0  0  0  0  0
    0.7759  -10.1544  -34.3751 C   0  0  0  0  0  0  0  0  0  0  0  0
    1.6743  -11.3803  -34.6931 C   0  0  0  0  0  0  0  0  0  0  0  0
    5.3433  -11.9120  -27.8624 H   0  0  0  0  0  0  0  0  0  0  0  0
    1.5491  -13.3573  -29.2811 H   0  0  0  0  0  0  0  0  0  0  0  0
   -2.1506   -4.7970  -32.2262 H   0  0  0  0  0  0  0  0  0  0  0  0
   -3.0970   -6.0719  -36.2302 H   0  0  0  0  0  0  0  0  0  0  0  0
    2.1762  -11.0914  -30.2218 H   0  0  0  0  0  0  0  0  0  0  0  0
   -0.8707   -4.9598  -36.0477 H   0  0  0  0  0  0  0  0  0  0  0  0
    5.0962  -11.5084  -30.4720 H   0  0  0  0  0  0  0  0  0  0  0  0
   -0.0621   -6.0569  -33.4235 H   0  0  0  0  0  0  0  0  0  0  0  0
    5.6425  -14.2341  -28.9995 H   0  0  0  0  0  0  0  0  0  0  0  0
    3.3952  -15.0707  -29.8482 H   0  0  0  0  0  0  0  0  0  0  0  0
   -2.7274   -7.3300  -32.2473 H   0  0  0  0  0  0  0  0  0  0  0  0
   -3.2703   -8.0682  -34.6192 H   0  0  0  0  0  0  0  0  0  0  0  0
    3.0854  -13.1231  -27.0968 H   0  0  0  0  0  0  0  0  0  0  0  0
    2.6608  -11.5838  -27.5085 H   0  0  0  0  0  0  0  0  0  0  0  0
   -4.0965   -4.8335  -34.0600 H   0  0  0  0  0  0  0  0  0  0  0  0
   -2.9365   -3.8183  -34.6457 H   0  0  0  0  0  0  0  0  0  0  0  0
    0.8321  -11.8087  -31.8581 H   0  0  0  0  0  0  0  0  0  0  0  0
   -0.0340   -7.7040  -34.0151 H   0  0  0  0  0  0  0  0  0  0  0  0
    0.3897  -12.9067  -33.8940 H   0  0  0  0  0  0  0  0  0  0  0  0
    2.0797  -13.3672  -33.9945 H   0  0  0  0  0  0  0  0  0  0  0  0
    2.0237   -8.7129  -35.3678 H   0  0  0  0  0  0  0  0  0  0  0  0
    0.6868   -9.2998  -36.3408 H   0  0  0  0  0  0  0  0  0  0  0  0
   -0.2486  -10.4595  -34.4218 H   0  0  0  0  0  0  0  0  0  0  0  0
    1.0405   -9.8044  -33.3993 H   0  0  0  0  0  0  0  0  0  0  0  0
    2.6990  -11.0911  -34.5869 H   0  0  0  0  0  0  0  0  0  0  0  0
    1.4541  -11.6930  -35.6925 H   0  0  0  0  0  0  0  0  0  0  0  0
  1  7  1  0  0  0  0
  1  9  1  0  0  0  0
  1 17  1  0  0  0  0
  1 31  1  1  0  0  0
  2 17  1  0  0  0  0
  2 10  1  0  0  0  0
  2  5  1  0  0  0  0
  2 32  1  1  0  0  0
  3  8  1  0  0  0  0
  3 18  1  0  0  0  0
  3 11  1  0  0  0  0
  3 33  1  1  0  0  0
  4  6  1  0  0  0  0
  4 12  1  0  0  0  0
  4 18  1  0  0  0  0
  4 34  1  6  0  0  0
  5  7  1  0  0  0  0
  5 13  1  0  0  0  0
  5 35  1  1  0  0  0
  6 14  1  0  0  0  0
  6  8  1  0  0  0  0
  6 36  1  6  0  0  0
  7 15  1  0  0  0  0
  7 37  1  6  0  0  0
  8 16  1  0  0  0  0
  8 38  1  1  0  0  0
  9 10  2  0  0  0  0
  9 39  1  0  0  0  0
 10 40  1  0  0  0  0
 11 12  2  0  0  0  0
 11 41  1  0  0  0  0
 12 42  1  0  0  0  0
 13 20  2  0  0  0  0
 13 23  1  0  0  0  0
 14 24  1  0  0  0  0
 14 19  2  0  0  0  0
 15 21  1  0  0  0  0
 15 26  2  0  0  0  0
 16 22  1  0  0  0  0
 16 25  2  0  0  0  0
 17 43  1  0  0  0  0
 17 44  1  0  0  0  0
 18 45  1  0  0  0  0
 18 46  1  0  0  0  0
 23 27  1  0  0  0  0
 23 47  1  0  0  0  0
 24 28  1  0  0  0  0
 24 48  1  0  0  0  0
 27 30  1  0  0  0  0
 27 49  1  0  0  0  0
 27 50  1  0  0  0  0
 28 29  1  0  0  0  0
 28 51  1  0  0  0  0
 28 52  1  0  0  0  0
 29 30  1  0  0  0  0
 29 53  1  0  0  0  0
 29 54  1  0  0  0  0
 30 55  1  0  0  0  0
 30 56  1  0  0  0  0
M  CHG  2  21  -1  22  -1
M  END
$$$$
