##########                                Name: HTS1710-03396874-01
##########                    Molecular_Weight:             362.336
##########                DOCK_Rotatable_Bonds:                   8
##########                       Formal_Charge:                  -2
##########                     HBond_Acceptors:                   8
##########                        HBond_Donors:                   0
##########                         Heavy_Atoms:                  26
##########                          Grid_Score:          -75.311478
##########                     Grid_vdw_energy:          -40.284054
##########                      Grid_es_energy:          -35.027420
##########           Internal_energy_repulsive:            4.451433

@<TRIPOS>MOLECULE
HTS1710-03396874-01
 44 46 1 0 0
SMALL
USER_CHARGES


@<TRIPOS>ATOM
      1 C           0.0036   -7.9851  -33.8866 C.2     1  UNL1        0.1903
      2 C           3.8413  -10.8354  -29.6886 C.2     1  UNL1        0.1903
      3 C           3.7857  -12.3070  -29.4253 C.2     1  UNL1        0.3734
      4 C           0.9520   -9.1166  -34.1268 C.2     1  UNL1        0.3734
      5 O           0.4977   -6.8695  -33.2329 O.2     1  UNL1       -0.4871
      6 O           4.4619  -10.4537  -30.8650 O.2     1  UNL1       -0.4871
      7 C           3.3197   -9.9003  -28.8586 C.2     1  UNL1       -0.0861
      8 C          -1.2844   -8.0196  -34.3008 C.2     1  UNL1       -0.0861
      9 O           0.3455  -10.3381  -34.0176 O.3     1  UNL1       -0.4543
     10 O           2.5198  -12.8117  -29.5658 O.3     1  UNL1       -0.4543
     11 O           4.7639  -12.9721  -29.1247 O.2     1  UNL1       -0.2415
     12 O           2.1347   -8.9590  -34.3871 O.2     1  UNL1       -0.2415
     13 O           3.3586   -8.5633  -29.1426 O.co2   1  UNL1       -0.8024
     14 O          -2.1446   -6.9726  -34.1161 O.co2   1  UNL1       -0.8024
     15 C           0.8508  -11.4443  -34.7915 C.3     1  UNL1        0.1180
     16 C           2.2485  -13.8470  -30.5304 C.3     1  UNL1        0.1180
     17 C           1.6039  -12.6595  -32.6863 C.ar    1  UNL1       -0.0490
     18 C           1.8978  -12.1997  -33.9838 C.ar    1  UNL1       -0.0099
     19 C           2.5736  -13.3461  -31.9327 C.ar    1  UNL1       -0.0099
     20 C           4.1492  -13.1094  -33.7743 C.ar    1  UNL1       -0.0610
     21 C           4.7966   -9.0583  -31.0344 C.3     1  UNL1        0.0800
     22 C          -0.4509   -5.8866  -32.7562 C.3     1  UNL1        0.0800
     23 C          -1.5497   -5.6890  -33.8300 C.3     1  UNL1       -0.0650
     24 C           3.6191   -8.1976  -30.5143 C.3     1  UNL1       -0.0650
     25 C           3.8485  -13.5684  -32.4828 C.ar    1  UNL1       -0.0553
     26 C           3.1772  -12.4279  -34.5232 C.ar    1  UNL1       -0.0553
     27 H           2.8765  -10.2085  -27.9791 H       1  UNL1        0.0491
     28 H          -1.6308   -8.8687  -34.7742 H       1  UNL1        0.0491
     29 H           1.2949  -11.0747  -35.6922 H       1  UNL1        0.0749
     30 H           0.0449  -12.1053  -35.0333 H       1  UNL1        0.0749
     31 H           1.2141  -14.1163  -30.4807 H       1  UNL1        0.0749
     32 H           2.8549  -14.7009  -30.3115 H       1  UNL1        0.0749
     33 H           0.6685  -12.4915  -32.2841 H       1  UNL1        0.0625
     34 H           5.0864  -13.2733  -34.1741 H       1  UNL1        0.0618
     35 H           4.9634   -8.8514  -32.0709 H       1  UNL1        0.0687
     36 H           5.6861   -8.8280  -30.4860 H       1  UNL1        0.0687
     37 H           0.0513   -4.9582  -32.5808 H       1  UNL1        0.0687
     38 H          -0.8933   -6.2229  -31.8419 H       1  UNL1        0.0687
     39 H          -1.1158   -5.2855  -34.7210 H       1  UNL1        0.0173
     40 H          -2.2954   -5.0103  -33.4719 H       1  UNL1        0.0173
     41 H           2.7481   -8.3799  -31.1085 H       1  UNL1        0.0173
     42 H           3.8672   -7.1587  -30.5770 H       1  UNL1        0.0173
     43 H           4.5649  -14.0704  -31.9352 H       1  UNL1        0.0621
     44 H           3.4017  -12.0928  -35.4731 H       1  UNL1        0.0621
@<TRIPOS>BOND
     1     2     3    1
     2     3    10    1
     3     1     4    1
     4     1     5    1
     5     2     6    1
     6     2     7    2
     7     1     8    2
     8     4     9    1
     9    10    16    1
    10     3    11    2
    11     4    12    2
    12     7    13    1
    13     8    14    1
    14     9    15    1
    15    16    19    1
    16    17    18   ar
    17    15    18    1
    18    17    19   ar
    19    20    26   ar
    20     6    21    1
    21     5    22    1
    22    22    23    1
    23    21    24    1
    24    19    25   ar
    25    18    26   ar
    26    14    23    1
    27    20    25   ar
    28    13    24    1
    29     7    27    1
    30     8    28    1
    31    15    29    1
    32    15    30    1
    33    16    31    1
    34    16    32    1
    35    17    33    1
    36    20    34    1
    37    21    35    1
    38    21    36    1
    39    22    37    1
    40    22    38    1
    41    23    39    1
    42    23    40    1
    43    24    41    1
    44    24    42    1
    45    25    43    1
    46    26    44    1
@<TRIPOS>SUBSTRUCTURE
     1 UNL1        1 TEMP              0 ****  ****    0 ROOT


