##########                                Name: HTS1710-04762170-01
##########                    Molecular_Weight:             322.381
##########                DOCK_Rotatable_Bonds:                   7
##########                       Formal_Charge:                  -2
##########                     HBond_Acceptors:                   6
##########                        HBond_Donors:                   0
##########                         Heavy_Atoms:                  23
##########                          Grid_Score:          -75.704079
##########                     Grid_vdw_energy:          -39.753254
##########                      Grid_es_energy:          -35.950825
##########           Internal_energy_repulsive:           16.503548

@<TRIPOS>MOLECULE
HTS1710-04762170-01
 47 48 1 0 0
SMALL
USER_CHARGES


@<TRIPOS>ATOM
      1 C           1.5740  -14.8763  -27.1921 C.3     1  UNL1       -0.0623
      2 C           2.4253  -14.0434  -28.1805 C.3     1  UNL1       -0.0415
      3 C           3.3313  -13.0342  -27.4237 C.3     1  UNL1       -0.0503
      4 C           4.2356  -12.2285  -28.3854 C.3     1  UNL1       -0.0505
      5 C           5.0688  -13.1574  -29.2989 C.3     1  UNL1       -0.0266
      6 C           4.1833  -14.1721  -30.0757 C.3     1  UNL1        0.0596
      7 C           3.2648  -14.9667  -29.1102 C.3     1  UNL1       -0.0240
      8 O           3.3280  -13.4759  -31.0169 O.3     1  UNL1       -0.3674
      9 C           3.8961  -13.1347  -32.3019 C.3     1  UNL1        0.1242
     10 C           2.8138  -12.7353  -33.3278 C.2     1  UNL1        0.2414
     11 O           1.6594  -13.1177  -33.2257 O.2     1  UNL1       -0.2731
     12 N           3.2491  -11.9695  -34.4145 N.am    1  UNL1       -0.2994
     13 C           2.3275  -11.3978  -35.4191 C.3     1  UNL1        0.0035
     14 C           4.6667  -11.5769  -34.5527 C.3     1  UNL1        0.0266
     15 C           4.9432  -10.2747  -33.8494 C.2     1  UNL1       -0.0998
     16 C           4.3323   -9.8808  -32.6883 C.2     1  UNL1       -0.0630
     17 C           4.8457   -8.5837  -32.4289 C.2     1  UNL1       -0.0144
     18 C           4.4855   -7.7134  -31.2828 C.2     1  UNL1        0.0708
     19 O           4.6850   -6.5184  -31.4126 O.co2   1  UNL1       -0.5447
     20 O           4.0168   -8.2304  -30.2847 O.co2   1  UNL1       -0.5447
     21 C           5.7161   -8.3572  -33.4782 C.2     1  UNL1       -0.1120
     22 C           6.5271   -7.1049  -33.6910 C.3     1  UNL1       -0.0524
     23 O           5.8158   -9.3732  -34.3929 O.co2   1  UNL1       -0.7845
     24 H           1.0081  -14.2181  -26.5664 H       1  UNL1        0.0232
     25 H           2.2183  -15.4783  -26.5861 H       1  UNL1        0.0232
     26 H           0.9071  -15.5082  -27.7405 H       1  UNL1        0.0232
     27 H           1.7564  -13.4809  -28.7978 H       1  UNL1        0.0299
     28 H           3.9510  -13.5737  -26.7383 H       1  UNL1        0.0268
     29 H           2.6964  -12.3419  -26.9113 H       1  UNL1        0.0268
     30 H           4.9014  -11.6212  -27.8084 H       1  UNL1        0.0266
     31 H           3.6078  -11.6248  -29.0069 H       1  UNL1        0.0266
     32 H           5.7645  -13.7006  -28.6941 H       1  UNL1        0.0290
     33 H           5.5707  -12.5442  -30.0179 H       1  UNL1        0.0290
     34 H           4.8439  -14.8418  -30.5858 H       1  UNL1        0.0596
     35 H           3.8753  -15.6006  -28.5016 H       1  UNL1        0.0293
     36 H           2.5797  -15.5306  -29.7081 H       1  UNL1        0.0293
     37 H           4.4322  -13.9811  -32.6777 H       1  UNL1        0.0657
     38 H           4.5445  -12.2950  -32.1631 H       1  UNL1        0.0657
     39 H           1.3331  -11.7438  -35.2285 H       1  UNL1        0.0429
     40 H           2.6311  -11.7060  -36.3978 H       1  UNL1        0.0429
     41 H           2.3514  -10.3298  -35.3581 H       1  UNL1        0.0429
     42 H           4.8990  -11.4685  -35.5916 H       1  UNL1        0.0502
     43 H           5.2734  -12.3376  -34.1074 H       1  UNL1        0.0502
     44 H           3.6487  -10.4111  -32.1257 H       1  UNL1        0.0615
     45 H           6.3362   -6.4166  -32.8943 H       1  UNL1        0.0266
     46 H           6.2531   -6.6565  -34.6231 H       1  UNL1        0.0266
     47 H           7.5680   -7.3525  -33.7067 H       1  UNL1        0.0266
@<TRIPOS>BOND
     1     1     2    1
     2     2     3    1
     3     3     4    1
     4     4     5    1
     5     5     6    1
     6     6     7    1
     7     2     7    1
     8     6     8    1
     9     8     9    1
    10     9    10    1
    11    10    11    2
    12    10    12   am
    13    12    13    1
    14    12    14    1
    15    14    15    1
    16    15    16    2
    17    16    17    1
    18    17    18    1
    19    18    19   ar
    20    18    20   ar
    21    17    21    2
    22    21    22    1
    23    21    23    1
    24    15    23    1
    25     1    24    1
    26     1    25    1
    27     1    26    1
    28     2    27    1
    29     3    28    1
    30     3    29    1
    31     4    30    1
    32     4    31    1
    33     5    32    1
    34     5    33    1
    35     6    34    1
    36     7    35    1
    37     7    36    1
    38     9    37    1
    39     9    38    1
    40    13    39    1
    41    13    40    1
    42    13    41    1
    43    14    42    1
    44    14    43    1
    45    16    44    1
    46    22    45    1
    47    22    46    1
    48    22    47    1
@<TRIPOS>SUBSTRUCTURE
     1 UNL1        1 TEMP              0 ****  ****    0 ROOT


