##########                                Name: HTS1710-01832544-01
##########                    Molecular_Weight:             453.433
##########                DOCK_Rotatable_Bonds:                   9
##########                       Formal_Charge:                  -1
##########                     HBond_Acceptors:                  14
##########                        HBond_Donors:                   2
##########                         Heavy_Atoms:                  31
##########                          Grid_Score:          -74.882019
##########                     Grid_vdw_energy:          -50.276871
##########                      Grid_es_energy:          -24.605146
##########           Internal_energy_repulsive:           12.331029

@<TRIPOS>MOLECULE
HTS1710-01832544-01
 50 52 1 0 0
SMALL
USER_CHARGES


@<TRIPOS>ATOM
      1 N           3.4443  -11.4960  -31.3058 N.am    1  UNL1       -0.2533
      2 C           3.7125  -10.4358  -32.1569 C.2     1  UNL1        0.2438
      3 C           3.4827  -12.5019  -32.3770 C.3     1  UNL1        0.1041
      4 CA          3.6203  -11.3392  -33.4173 C.3     1  UNL1        0.1283
      5 C          -1.3637   -5.8368  -36.5974 C.ar    1  UNL1        0.2455
      6 CA          3.2310  -11.8687  -29.9093 C.2     1  UNL1        0.0631
      7 C          -1.4718   -6.7748  -35.6002 C.ar    1  UNL1        0.1066
      8 N          -2.1819   -4.6723  -36.8494 N.pl3   1  UNL1       -0.1586
      9 N           0.3188   -7.3302  -36.9047 N.ar    1  UNL1       -0.1726
     10 N          -0.4296   -7.6677  -35.8068 N.ar    1  UNL1       -0.2616
     11 C          -0.2446   -6.2341  -37.3818 C.ar    1  UNL1        0.1203
     12 S           1.9044  -13.4246  -32.1999 S.3     1  UNL1       -0.1310
     13 C           2.7932  -13.1440  -29.6183 C.2     1  UNL1        0.0004
     14 N           2.3798  -11.0924  -34.1607 N.am    1  UNL1       -0.3017
     15 C           3.4931  -10.8093  -28.8418 C.2     1  UNL1        0.0860
     16 C           2.2254  -10.0034  -35.0062 C.2     1  UNL1        0.2154
     17 C           2.5060  -14.2233  -30.6651 C.3     1  UNL1        0.0219
     18 O           3.8946   -9.2650  -31.8766 O.2     1  UNL1       -0.2731
     19 C           0.8903   -9.8356  -35.7367 C.3     1  UNL1        0.0435
     20 O          -1.9131   -4.0090  -37.8473 O.co2   1  UNL1       -0.6334
     21 O          -3.0239   -4.3469  -36.0193 O.2     1  UNL1       -0.0291
     22 C          -0.0667   -8.8556  -35.0124 C.3     1  UNL1        0.0503
     23 C           2.5382  -13.7083  -28.2226 C.3     1  UNL1        0.1164
     24 C           4.9003  -14.0550  -27.7971 C.2     1  UNL1        0.3043
     25 O           2.5835  -10.4471  -28.1194 O.co2   1  UNL1       -0.5433
     26 O           3.7158  -13.4899  -27.4254 O.3     1  UNL1       -0.4603
     27 O           3.1468   -9.2206  -35.1664 O.2     1  UNL1       -0.2757
     28 O           5.7763  -13.4918  -28.4328 O.2     1  UNL1       -0.2512
     29 OXT         4.6207  -10.3626  -28.7511 O.co2   1  UNL1       -0.5433
     30 C          -2.5091   -6.8122  -34.4988 C.3     1  UNL1       -0.0163
     31 C           4.9939  -15.4991  -27.3089 C.3     1  UNL1        0.0332
     32 H           4.1757  -13.3051  -32.5170 H       1  UNL1        0.0644
     33 H           4.3371  -11.3451  -34.2118 H       1  UNL1        0.0622
     34 H          -2.4965   -5.5879  -36.6708 H       1  UNL1        0.4510
     35 H           0.0859   -5.7291  -38.2190 H       1  UNL1        0.0915
     36 H           1.6303  -11.7220  -34.0558 H       1  UNL1        0.1495
     37 H           3.4028  -14.7687  -30.8728 H       1  UNL1        0.0424
     38 H           1.7621  -14.8968  -30.2938 H       1  UNL1        0.0424
     39 H           0.4145  -10.7916  -35.8048 H       1  UNL1        0.0376
     40 H           1.0993   -9.4286  -36.7040 H       1  UNL1        0.0376
     41 H          -0.9650   -9.3830  -34.7677 H       1  UNL1        0.0513
     42 H           0.4536   -8.5002  -34.1477 H       1  UNL1        0.0513
     43 H           2.3346  -14.7567  -28.2878 H       1  UNL1        0.0746
     44 H           1.6956  -13.2224  -27.7767 H       1  UNL1        0.0746
     45 H          -3.1787   -5.9852  -34.6113 H       1  UNL1        0.0295
     46 H          -2.0222   -6.7502  -33.5481 H       1  UNL1        0.0295
     47 H          -3.0598   -7.7277  -34.5584 H       1  UNL1        0.0295
     48 H           4.1005  -15.7548  -26.7784 H       1  UNL1        0.0342
     49 H           5.8370  -15.6017  -26.6582 H       1  UNL1        0.0342
     50 H           5.1097  -16.1525  -28.1483 H       1  UNL1        0.0342
@<TRIPOS>BOND
     1     1     2   am
     2     1     3    1
     3     1     6    1
     4     2     4    1
     5     2    18    2
     6     3     4    1
     7     3    12    1
     8     4    14    1
     9     5     7   ar
    10     5     8    1
    11     5    11   ar
    12     6    13    2
    13     6    15    1
    14     7    10   ar
    15     7    30    1
    16     8    20    1
    17     8    21    2
    18     9    10   ar
    19     9    11   ar
    20    10    22    1
    21    12    17    1
    22    13    17    1
    23    13    23    1
    24    14    16   am
    25    15    25   ar
    26    15    29   ar
    27    16    19    1
    28    16    27    2
    29    19    22    1
    30    23    26    1
    31    24    26    1
    32    24    28    2
    33    24    31    1
    34     3    32    1
    35     4    33    1
    36     8    34    1
    37    11    35    1
    38    14    36    1
    39    17    37    1
    40    17    38    1
    41    19    39    1
    42    19    40    1
    43    22    41    1
    44    22    42    1
    45    23    43    1
    46    23    44    1
    47    30    45    1
    48    30    46    1
    49    30    47    1
    50    31    48    1
    51    31    49    1
    52    31    50    1
@<TRIPOS>SUBSTRUCTURE
     1 UNL1        1 TEMP              0 ****  ****    0 ROOT


