HTS1710-01267722-01
 OpenBabel03232612353D

 48 50  0  0  1  0  0  0  0  0999 V2000
    3.3887  -10.3153  -30.6716 C   0  0  0  0  0  0  0  0  0  0  0  0
    3.0548  -11.4834  -31.5325 C   0  0  0  0  0  0  0  0  0  0  0  0
    2.7278  -12.6505  -30.8381 N   0  0  0  0  0  0  0  0  0  0  0  0
    3.4194  -10.3716  -29.2832 C   0  0  0  0  0  0  0  0  0  0  0  0
    3.7347   -9.0001  -31.3822 C   0  0  2  0  0  0  0  0  0  0  0  0
    3.0797  -11.6181  -28.6585 C   0  0  0  0  0  0  0  0  0  0  0  0
    2.7370  -12.7050  -29.4379 C   0  0  0  0  0  0  0  0  0  0  0  0
    2.4682   -8.2783  -31.8997 C   0  0  0  0  0  0  0  0  0  0  0  0
    1.8313   -7.2944  -31.1053 C   0  0  0  0  0  0  0  0  0  0  0  0
    0.7154   -6.6454  -31.4919 N   0  0  0  0  0  0  0  0  0  0  0  0
    1.8902   -8.5689  -33.1536 C   0  0  0  0  0  0  0  0  0  0  0  0
    2.3700  -13.8571  -31.6377 C   0  0  0  0  0  0  0  0  0  0  0  0
    0.1588   -6.9260  -32.6877 C   0  0  0  0  0  0  0  0  0  0  0  0
    3.0683  -11.4295  -32.7532 O   0  0  0  0  0  0  0  0  0  0  0  0
    4.8449   -9.2183  -32.4548 C   0  0  0  0  0  0  0  0  0  0  0  0
    0.9295  -13.7577  -32.1611 C   0  0  0  0  0  0  0  0  0  0  0  0
    0.7267   -7.8901  -33.5515 C   0  0  0  0  0  0  0  0  0  0  0  0
    5.7121   -7.9711  -32.6587 C   0  0  0  0  0  0  0  0  0  0  0  0
    0.0437  -14.1786  -31.4384 O   0  5  0  0  0  0  0  0  0  0  0  0
    6.0424   -7.2219  -31.7538 O   0  0  0  0  0  0  0  0  0  0  0  0
    3.7566   -9.3307  -28.4908 O   0  5  0  0  0  0  0  0  0  0  0  0
    2.3347   -6.9492  -29.8839 O   0  0  0  0  0  0  0  0  0  0  0  0
    0.7676  -13.2693  -33.2658 O   0  0  0  0  0  0  0  0  0  0  0  0
    6.0440   -7.7965  -33.9748 O   0  0  0  0  0  0  0  0  0  0  0  0
    2.3795  -13.9852  -28.7040 C   0  0  0  0  0  0  0  0  0  0  0  0
   -1.0099   -6.2574  -33.1000 C   0  0  0  0  0  0  0  0  0  0  0  0
    0.1365   -8.1714  -34.7973 C   0  0  0  0  0  0  0  0  0  0  0  0
    6.8692   -6.6811  -34.3531 C   0  0  0  0  0  0  0  0  0  0  0  0
   -1.0256   -7.4946  -35.1933 C   0  0  0  0  0  0  0  0  0  0  0  0
   -1.5995   -6.5378  -34.3438 C   0  0  0  0  0  0  0  0  0  0  0  0
    4.1580   -8.3239  -30.6691 H   0  0  0  0  0  0  0  0  0  0  0  0
    3.0916  -11.7018  -27.6299 H   0  0  0  0  0  0  0  0  0  0  0  0
    2.3186   -9.2743  -33.7732 H   0  0  0  0  0  0  0  0  0  0  0  0
    2.4597  -14.7263  -31.0203 H   0  0  0  0  0  0  0  0  0  0  0  0
    3.0346  -13.9235  -32.4737 H   0  0  0  0  0  0  0  0  0  0  0  0
    4.3797   -9.4693  -33.3851 H   0  0  0  0  0  0  0  0  0  0  0  0
    5.4817  -10.0062  -32.1103 H   0  0  0  0  0  0  0  0  0  0  0  0
    1.8337   -6.4069  -29.3069 H   0  0  0  0  0  0  0  0  0  0  0  0
    2.4457  -13.8217  -27.6486 H   0  0  0  0  0  0  0  0  0  0  0  0
    3.0595  -14.7611  -28.9881 H   0  0  0  0  0  0  0  0  0  0  0  0
    1.3813  -14.2751  -28.9581 H   0  0  0  0  0  0  0  0  0  0  0  0
   -1.4387   -5.5523  -32.4804 H   0  0  0  0  0  0  0  0  0  0  0  0
    0.5595   -8.8769  -35.4205 H   0  0  0  0  0  0  0  0  0  0  0  0
    7.0283   -6.6979  -35.4110 H   0  0  0  0  0  0  0  0  0  0  0  0
    7.8110   -6.7473  -33.8497 H   0  0  0  0  0  0  0  0  0  0  0  0
    6.3822   -5.7684  -34.0801 H   0  0  0  0  0  0  0  0  0  0  0  0
   -1.4576   -7.7000  -36.1077 H   0  0  0  0  0  0  0  0  0  0  0  0
   -2.4557   -6.0393  -34.6327 H   0  0  0  0  0  0  0  0  0  0  0  0
  1  2  1  0  0  0  0
  1  4  2  0  0  0  0
  1  5  1  0  0  0  0
  2  3  1  0  0  0  0
  2 14  2  0  0  0  0
  3 12  1  0  0  0  0
  3  7  1  0  0  0  0
  4  6  1  0  0  0  0
  4 21  1  0  0  0  0
  5  8  1  0  0  0  0
  5 15  1  0  0  0  0
  5 31  1  1  0  0  0
  6  7  2  0  0  0  0
  6 32  1  0  0  0  0
  7 25  1  0  0  0  0
  8  9  2  0  0  0  0
  8 11  1  0  0  0  0
  9 10  1  0  0  0  0
  9 22  1  0  0  0  0
 10 13  2  0  0  0  0
 11 17  2  0  0  0  0
 11 33  1  0  0  0  0
 12 16  1  0  0  0  0
 12 34  1  0  0  0  0
 12 35  1  0  0  0  0
 13 17  1  0  0  0  0
 13 26  1  0  0  0  0
 15 18  1  0  0  0  0
 15 36  1  0  0  0  0
 15 37  1  0  0  0  0
 16 19  1  0  0  0  0
 16 23  2  0  0  0  0
 17 27  1  0  0  0  0
 18 20  2  0  0  0  0
 18 24  1  0  0  0  0
 22 38  1  0  0  0  0
 24 28  1  0  0  0  0
 25 39  1  0  0  0  0
 25 40  1  0  0  0  0
 25 41  1  0  0  0  0
 26 30  2  0  0  0  0
 26 42  1  0  0  0  0
 27 29  2  0  0  0  0
 27 43  1  0  0  0  0
 28 44  1  0  0  0  0
 28 45  1  0  0  0  0
 28 46  1  0  0  0  0
 29 30  1  0  0  0  0
 29 47  1  0  0  0  0
 30 48  1  0  0  0  0
M  CHG  2  19  -1  21  -1
M  END
$$$$
