##########                                Name: HTS1710-01640926-01
##########                    Molecular_Weight:             300.334
##########                DOCK_Rotatable_Bonds:                   6
##########                       Formal_Charge:                  -2
##########                     HBond_Acceptors:                   5
##########                        HBond_Donors:                   0
##########                         Heavy_Atoms:                  22
##########                          Grid_Score:          -74.978119
##########                     Grid_vdw_energy:          -36.847904
##########                      Grid_es_energy:          -38.130219
##########           Internal_energy_repulsive:           12.280235

@<TRIPOS>MOLECULE
HTS1710-01640926-01
 40 41 1 0 0
SMALL
USER_CHARGES


@<TRIPOS>ATOM
      1 C           3.8475  -12.8186  -33.6034 C.3     1  UNL1       -0.0461
      2 C           3.2501  -11.4364  -33.9618 C.3     1  UNL1        0.0271
      3 C           1.9052  -11.5304  -34.7363 C.3     1  UNL1       -0.0092
      4 C           1.2831  -10.1583  -34.9839 C.ar    1  UNL1       -0.0456
      5 C           1.4905   -9.4916  -36.2046 C.ar    1  UNL1       -0.0583
      6 C           0.8892   -8.2461  -36.4445 C.ar    1  UNL1       -0.0586
      7 C           0.0735   -7.6520  -35.4649 C.ar    1  UNL1       -0.0504
      8 C          -0.5860   -6.3038  -35.7161 C.3     1  UNL1       -0.0397
      9 C          -0.1319   -8.3164  -34.2429 C.ar    1  UNL1       -0.0586
     10 C           0.4694   -9.5619  -34.0030 C.ar    1  UNL1       -0.0583
     11 N           4.2478  -10.5374  -34.6152 N.am    1  UNL1       -0.2984
     12 C           4.5991  -10.9482  -35.9938 C.3     1  UNL1        0.0037
     13 C           4.7731   -9.4042  -33.9515 C.2     1  UNL1        0.2328
     14 O           5.5740   -8.6624  -34.4952 O.2     1  UNL1       -0.2712
     15 C           4.3087   -9.1096  -32.5583 C.2     1  UNL1       -0.0300
     16 C           4.5528   -9.9521  -31.4994 C.2     1  UNL1       -0.0558
     17 C           4.0057   -9.3078  -30.3618 C.2     1  UNL1       -0.0170
     18 C           3.4863   -8.1355  -30.8435 C.2     1  UNL1       -0.1247
     19 O           3.6532   -7.9577  -32.1913 O.co2   1  UNL1       -0.7816
     20 C           3.9981   -9.7833  -28.9652 C.2     1  UNL1        0.0706
     21 O           4.6524  -10.7786  -28.7053 O.co2   1  UNL1       -0.5447
     22 O           3.3386   -9.1508  -28.1594 O.co2   1  UNL1       -0.5447
     23 H           3.0959  -13.4226  -33.1397 H       1  UNL1        0.0248
     24 H           4.6672  -12.6885  -32.9281 H       1  UNL1        0.0248
     25 H           4.1924  -13.3000  -34.4946 H       1  UNL1        0.0248
     26 H           3.0002  -10.9718  -33.0309 H       1  UNL1        0.0501
     27 H           1.2198  -12.1213  -34.1655 H       1  UNL1        0.0331
     28 H           2.1057  -11.9759  -35.6883 H       1  UNL1        0.0331
     29 H           2.0883   -9.9205  -36.9283 H       1  UNL1        0.0620
     30 H           1.0465   -7.7643  -37.3435 H       1  UNL1        0.0620
     31 H          -0.3189   -5.9522  -36.6907 H       1  UNL1        0.0278
     32 H          -0.2537   -5.6016  -34.9802 H       1  UNL1        0.0278
     33 H          -1.6489   -6.4096  -35.6539 H       1  UNL1        0.0278
     34 H          -0.7278   -7.8861  -33.5185 H       1  UNL1        0.0620
     35 H           0.3140  -10.0424  -33.1030 H       1  UNL1        0.0620
     36 H           4.0609  -11.8370  -36.2492 H       1  UNL1        0.0429
     37 H           5.6504  -11.1386  -36.0522 H       1  UNL1        0.0429
     38 H           4.3400  -10.1658  -36.6761 H       1  UNL1        0.0429
     39 H           5.0344  -10.8645  -31.5272 H       1  UNL1        0.0620
     40 H           3.0098   -7.4453  -30.2422 H       1  UNL1        0.0461
@<TRIPOS>BOND
     1     1     2    1
     2     2     3    1
     3     3     4    1
     4     4     5   ar
     5     5     6   ar
     6     6     7   ar
     7     7     8    1
     8     7     9   ar
     9     9    10   ar
    10     4    10   ar
    11     2    11    1
    12    11    12    1
    13    11    13   am
    14    13    14    2
    15    13    15    1
    16    15    16    2
    17    16    17    1
    18    17    18    2
    19    18    19    1
    20    15    19    1
    21    17    20    1
    22    20    21   ar
    23    20    22   ar
    24     1    23    1
    25     1    24    1
    26     1    25    1
    27     2    26    1
    28     3    27    1
    29     3    28    1
    30     5    29    1
    31     6    30    1
    32     8    31    1
    33     8    32    1
    34     8    33    1
    35     9    34    1
    36    10    35    1
    37    12    36    1
    38    12    37    1
    39    12    38    1
    40    16    39    1
    41    18    40    1
@<TRIPOS>SUBSTRUCTURE
     1 UNL1        1 TEMP              0 ****  ****    0 ROOT


