##########                                Name: HTS1710-02226355-01
##########                    Molecular_Weight:             464.904
##########                DOCK_Rotatable_Bonds:                  10
##########                       Formal_Charge:                  -2
##########                     HBond_Acceptors:                  13
##########                        HBond_Donors:                   1
##########                         Heavy_Atoms:                  29
##########                          Grid_Score:          -82.776779
##########                     Grid_vdw_energy:          -49.520378
##########                      Grid_es_energy:          -33.256397
##########           Internal_energy_repulsive:           12.033886

@<TRIPOS>MOLECULE
HTS1710-02226355-01
 46 47 1 0 0
SMALL
USER_CHARGES


@<TRIPOS>ATOM
      1 S           3.4112  -11.5650  -28.6369 S.O2    1  UNL1        0.0624
      2 C           2.7178  -12.9281  -29.6104 C.ar    1  UNL1        0.1254
      3 N           3.3793  -10.2496  -29.7240 N.3     1  UNL1       -0.1722
      4 C           0.9700   -9.1434  -35.8234 C.3     1  UNL1        0.0038
      5 C           2.1032  -12.6366  -30.8443 C.ar    1  UNL1       -0.0126
      6 C           3.4643   -9.4416  -36.3961 C.2     1  UNL1        0.0550
      7 O           2.4256  -11.2609  -27.5945 O.2     1  UNL1       -0.1528
      8 O           4.8142  -11.8406  -28.3111 O.2     1  UNL1       -0.1528
      9 C           2.2235  -10.0529  -35.7208 C.3     1  UNL1        0.0501
     10 C           2.7585  -14.2681  -29.1606 C.ar    1  UNL1        0.0674
     11 C           0.8411   -8.1513  -34.6581 C.2     1  UNL1        0.0431
     12 C           1.6159  -12.8054  -33.9497 C.2     1  UNL1        0.2271
     13 S           1.8666  -11.7023  -36.4788 S.3     1  UNL1       -0.1418
     14 N           0.9357  -13.2808  -32.8328 N.am    1  UNL1       -0.2848
     15 C           1.5156  -13.6502  -31.6213 C.ar    1  UNL1        0.0353
     16 O           4.4434   -9.2334  -35.6994 O.co2   1  UNL1       -0.5487
     17 O           1.4923   -8.3785  -33.6522 O.co2   1  UNL1       -0.5498
     18 O           2.8324  -12.7142  -33.9573 O.2     1  UNL1       -0.2746
     19 O           3.9488   -7.7762  -30.9765 O.3     1  UNL1       -0.3771
     20 C           2.2005  -15.2868  -29.9484 C.ar    1  UNL1       -0.0397
     21 C           0.7883  -12.4551  -35.1846 C.3     1  UNL1        0.0711
     22 C           4.5587  -10.0903  -30.6086 C.3     1  UNL1        0.0440
     23 C           2.9107   -8.9694  -29.1464 C.3     1  UNL1        0.0440
     24 O           3.3763   -9.1820  -37.5832 O.co2   1  UNL1       -0.5487
     25 C           1.5869  -14.9851  -31.1728 C.ar    1  UNL1       -0.0390
     26 CL          3.4846  -14.7163  -27.6237 Cl      1  UNL1       -0.0815
     27 O           0.0862   -7.2059  -34.8112 O.co2   1  UNL1       -0.5498
     28 C           4.3232   -8.9843  -31.6648 C.3     1  UNL1        0.0621
     29 C           2.7154   -7.8960  -30.2427 C.3     1  UNL1        0.0621
     30 H           0.0995   -9.7656  -35.8374 H       1  UNL1        0.0339
     31 H           1.0691   -8.5677  -36.7198 H       1  UNL1        0.0339
     32 H           2.0840  -11.6621  -31.1834 H       1  UNL1        0.0656
     33 H           2.4451  -10.1572  -34.6792 H       1  UNL1        0.0476
     34 H          -0.0426  -13.3634  -32.9052 H       1  UNL1        0.1548
     35 H           2.2421  -16.2657  -29.6241 H       1  UNL1        0.0633
     36 H           0.0236  -11.7580  -34.9118 H       1  UNL1        0.0471
     37 H           0.3455  -13.3480  -35.5739 H       1  UNL1        0.0471
     38 H           4.7462  -11.0168  -31.1098 H       1  UNL1        0.0466
     39 H           5.3974   -9.8095  -30.0065 H       1  UNL1        0.0466
     40 H           3.6352   -8.6194  -28.4411 H       1  UNL1        0.0466
     41 H           1.9685   -9.1394  -28.6687 H       1  UNL1        0.0466
     42 H           1.1861  -15.7427  -31.7475 H       1  UNL1        0.0636
     43 H           5.2210   -8.8196  -32.2230 H       1  UNL1        0.0573
     44 H           3.5484   -9.2790  -32.3415 H       1  UNL1        0.0573
     45 H           1.9275   -8.1917  -30.9036 H       1  UNL1        0.0573
     46 H           2.4547   -6.9573  -29.8001 H       1  UNL1        0.0573
@<TRIPOS>BOND
     1     1     2    1
     2     1     3    1
     3     1     7    2
     4     1     8    2
     5     2     5   ar
     6     2    10   ar
     7     3    22    1
     8     3    23    1
     9     4     9    1
    10     4    11    1
    11     5    15   ar
    12     6     9    1
    13     6    16   ar
    14     6    24   ar
    15     9    13    1
    16    10    20   ar
    17    10    26    1
    18    11    17   ar
    19    11    27   ar
    20    12    14   am
    21    12    18    2
    22    12    21    1
    23    13    21    1
    24    14    15    1
    25    15    25   ar
    26    19    28    1
    27    19    29    1
    28    20    25   ar
    29    22    28    1
    30    23    29    1
    31     4    30    1
    32     4    31    1
    33     5    32    1
    34     9    33    1
    35    14    34    1
    36    20    35    1
    37    21    36    1
    38    21    37    1
    39    22    38    1
    40    22    39    1
    41    23    40    1
    42    23    41    1
    43    25    42    1
    44    28    43    1
    45    28    44    1
    46    29    45    1
    47    29    46    1
@<TRIPOS>SUBSTRUCTURE
     1 UNL1        1 TEMP              0 ****  ****    0 ROOT


