HTS1710-00114085-01
 OpenBabel03232612363D

 20 20  0  0  0  0  0  0  0  0999 V2000
    4.5587   -7.8345  -31.6553 C   0  0  0  0  0  0  0  0  0  0  0  0
    4.2527   -8.5652  -30.5388 C   0  0  0  0  0  0  0  0  0  0  0  0
    3.7616   -6.7344  -31.6897 N   0  0  0  0  0  0  0  0  0  0  0  0
    3.2551   -7.9717  -29.8098 O   0  0  0  0  0  0  0  0  0  0  0  0
    3.0280   -6.8651  -30.5981 C   0  0  0  0  0  0  0  0  0  0  0  0
    5.5829   -8.1599  -32.6834 C   0  0  0  0  0  0  0  0  0  0  0  0
    5.7541   -9.3381  -32.9489 O   0  5  0  0  0  0  0  0  0  0  0  0
    4.8704   -9.7330  -30.1745 O   0  0  0  0  0  0  0  0  0  0  0  0
    6.1948   -7.2442  -33.2045 O   0  0  0  0  0  0  0  0  0  0  0  0
    1.9737   -5.8811  -30.1668 C   0  0  0  0  0  0  0  0  0  0  0  0
    4.4037  -10.4916  -29.0437 C   0  0  0  0  0  0  0  0  0  0  0  0
    3.1063  -11.2327  -29.4319 C   0  0  0  0  0  0  0  0  0  0  0  0
    1.9179   -5.0836  -30.8780 H   0  0  0  0  0  0  0  0  0  0  0  0
    2.2275   -5.4848  -29.2058 H   0  0  0  0  0  0  0  0  0  0  0  0
    1.0265   -6.3753  -30.1099 H   0  0  0  0  0  0  0  0  0  0  0  0
    4.2075   -9.8307  -28.2255 H   0  0  0  0  0  0  0  0  0  0  0  0
    5.1503  -11.2009  -28.7532 H   0  0  0  0  0  0  0  0  0  0  0  0
    2.3620  -10.5208  -29.7219 H   0  0  0  0  0  0  0  0  0  0  0  0
    2.7532  -11.7965  -28.5939 H   0  0  0  0  0  0  0  0  0  0  0  0
    3.3044  -11.8945  -30.2491 H   0  0  0  0  0  0  0  0  0  0  0  0
  1  2  2  0  0  0  0
  1  3  1  0  0  0  0
  1  6  1  0  0  0  0
  2  4  1  0  0  0  0
  2  8  1  0  0  0  0
  3  5  2  0  0  0  0
  4  5  1  0  0  0  0
  5 10  1  0  0  0  0
  6  7  1  0  0  0  0
  6  9  2  0  0  0  0
  8 11  1  0  0  0  0
 10 13  1  0  0  0  0
 10 14  1  0  0  0  0
 10 15  1  0  0  0  0
 11 12  1  0  0  0  0
 11 16  1  0  0  0  0
 11 17  1  0  0  0  0
 12 18  1  0  0  0  0
 12 19  1  0  0  0  0
 12 20  1  0  0  0  0
M  CHG  1   7  -1
M  END
$$$$
