HTS1710-04447162-01
 OpenBabel03232612363D

 42 43  0  0  0  0  0  0  0  0999 V2000
    4.5541  -10.7851  -33.9680 C   0  0  0  0  0  0  0  0  0  0  0  0
    3.7819  -11.9599  -33.4282 C   0  0  0  0  0  0  0  0  0  0  0  0
    2.4497  -12.8828  -29.0891 C   0  0  0  0  0  0  0  0  0  0  0  0
    2.2290  -12.2133  -30.2688 O   0  0  0  0  0  0  0  0  0  0  0  0
    4.9354   -9.7039  -33.1907 C   0  0  0  0  0  0  0  0  0  0  0  0
    2.4150  -11.8120  -33.0953 N   0  0  0  0  0  0  0  0  0  0  0  0
    1.9656  -13.2558  -31.1133 C   0  0  0  0  0  0  0  0  0  0  0  0
    4.9972  -10.4538  -35.6517 S   0  0  0  0  0  0  0  0  0  0  0  0
    2.7943  -12.1451  -27.8516 C   0  0  0  0  0  0  0  0  0  0  0  0
    2.3261  -14.2501  -29.1859 C   0  0  0  0  0  0  0  0  0  0  0  0
    2.0007  -14.5002  -30.5408 C   0  0  0  0  0  0  0  0  0  0  0  0
    5.6060   -8.6593  -33.9017 C   0  0  0  0  0  0  0  0  0  0  0  0
    5.7301   -8.9143  -35.2390 C   0  0  0  0  0  0  0  0  0  0  0  0
    1.6655  -12.9824  -32.5629 C   0  0  0  0  0  0  0  0  0  0  0  0
    4.3376  -13.0342  -33.2673 O   0  0  0  0  0  0  0  0  0  0  0  0
    3.0135  -12.7971  -26.8464 O   0  5  0  0  0  0  0  0  0  0  0  0
    2.8386  -10.9283  -27.9136 O   0  0  0  0  0  0  0  0  0  0  0  0
    4.7183   -9.6280  -31.8358 O   0  0  0  0  0  0  0  0  0  0  0  0
    1.5213  -10.6730  -33.4336 C   0  0  0  0  0  0  0  0  0  0  0  0
   -0.0939   -9.7762  -35.0388 O   0  0  0  0  0  0  0  0  0  0  0  0
    0.9730  -10.7369  -34.8882 C   0  0  0  0  0  0  0  0  0  0  0  0
    0.2398   -8.3987  -34.7607 C   0  0  0  0  0  0  0  0  0  0  0  0
    5.1325   -8.4965  -31.0501 C   0  0  0  0  0  0  0  0  0  0  0  0
   -0.9222   -7.4869  -35.2174 C   0  0  0  0  0  0  0  0  0  0  0  0
    2.4452  -14.9446  -28.4319 H   0  0  0  0  0  0  0  0  0  0  0  0
    1.8291  -15.4115  -30.9938 H   0  0  0  0  0  0  0  0  0  0  0  0
    5.9598   -7.8009  -33.4512 H   0  0  0  0  0  0  0  0  0  0  0  0
    6.1926   -8.2860  -35.9146 H   0  0  0  0  0  0  0  0  0  0  0  0
    0.6174  -12.7929  -32.6654 H   0  0  0  0  0  0  0  0  0  0  0  0
    1.9695  -13.8420  -33.1228 H   0  0  0  0  0  0  0  0  0  0  0  0
    2.0714   -9.7626  -33.3169 H   0  0  0  0  0  0  0  0  0  0  0  0
    0.6804  -10.7210  -32.7738 H   0  0  0  0  0  0  0  0  0  0  0  0
    1.7594  -10.5085  -35.5768 H   0  0  0  0  0  0  0  0  0  0  0  0
    0.6008  -11.7200  -35.0879 H   0  0  0  0  0  0  0  0  0  0  0  0
    1.1310   -8.1334  -35.2900 H   0  0  0  0  0  0  0  0  0  0  0  0
    0.3998   -8.2748  -33.7100 H   0  0  0  0  0  0  0  0  0  0  0  0
    4.8616   -8.6543  -30.0270 H   0  0  0  0  0  0  0  0  0  0  0  0
    4.6502   -7.6136  -31.4145 H   0  0  0  0  0  0  0  0  0  0  0  0
    6.1935   -8.3798  -31.1243 H   0  0  0  0  0  0  0  0  0  0  0  0
   -1.0816   -7.6115  -36.2680 H   0  0  0  0  0  0  0  0  0  0  0  0
   -0.6761   -6.4660  -35.0125 H   0  0  0  0  0  0  0  0  0  0  0  0
   -1.8132   -7.7523  -34.6876 H   0  0  0  0  0  0  0  0  0  0  0  0
  1  2  1  0  0  0  0
  1  5  2  0  0  0  0
  1  8  1  0  0  0  0
  2  6  1  0  0  0  0
  2 15  2  0  0  0  0
  3  4  1  0  0  0  0
  3  9  1  0  0  0  0
  3 10  2  0  0  0  0
  4  7  1  0  0  0  0
  5 12  1  0  0  0  0
  5 18  1  0  0  0  0
  6 14  1  0  0  0  0
  6 19  1  0  0  0  0
  7 14  1  0  0  0  0
  7 11  2  0  0  0  0
  8 13  1  0  0  0  0
  9 16  1  0  0  0  0
  9 17  2  0  0  0  0
 10 11  1  0  0  0  0
 10 25  1  0  0  0  0
 11 26  1  0  0  0  0
 12 13  2  0  0  0  0
 12 27  1  0  0  0  0
 13 28  1  0  0  0  0
 14 29  1  0  0  0  0
 14 30  1  0  0  0  0
 18 23  1  0  0  0  0
 19 21  1  0  0  0  0
 19 31  1  0  0  0  0
 19 32  1  0  0  0  0
 20 21  1  0  0  0  0
 20 22  1  0  0  0  0
 21 33  1  0  0  0  0
 21 34  1  0  0  0  0
 22 24  1  0  0  0  0
 22 35  1  0  0  0  0
 22 36  1  0  0  0  0
 23 37  1  0  0  0  0
 23 38  1  0  0  0  0
 23 39  1  0  0  0  0
 24 40  1  0  0  0  0
 24 41  1  0  0  0  0
 24 42  1  0  0  0  0
M  CHG  1  16  -1
M  END
$$$$
