##########                                Name: HTS1710-05252304-01
##########                    Molecular_Weight:             330.338
##########                DOCK_Rotatable_Bonds:                   5
##########                       Formal_Charge:                  -2
##########                     HBond_Acceptors:                   9
##########                        HBond_Donors:                   0
##########                         Heavy_Atoms:                  22
##########                          Grid_Score:          -75.984230
##########                     Grid_vdw_energy:          -38.787079
##########                      Grid_es_energy:          -37.197151
##########           Internal_energy_repulsive:           15.298954

@<TRIPOS>MOLECULE
HTS1710-05252304-01
 38 39 1 0 0
SMALL
USER_CHARGES


@<TRIPOS>ATOM
      1 C           1.5139  -13.7631  -31.5635 C.3     1  UNL1        0.0820
      2 O           2.2475  -12.5823  -31.1928 O.3     1  UNL1       -0.4644
      3 C           3.5725  -12.4760  -31.5113 C.2     1  UNL1        0.3399
      4 O           4.1939  -13.3938  -32.0221 O.2     1  UNL1       -0.2449
      5 C           4.1887  -11.1578  -31.1836 C.2     1  UNL1        0.0735
      6 C           4.4027  -10.5920  -29.9405 C.2     1  UNL1       -0.1049
      7 C           4.0472  -11.1948  -28.6032 C.3     1  UNL1       -0.0522
      8 O           4.9815   -9.3581  -29.9493 O.co2   1  UNL1       -0.7843
      9 C           5.1209   -9.1577  -31.2915 C.2     1  UNL1       -0.0932
     10 C           5.7328   -7.8623  -31.7574 C.3     1  UNL1       -0.0512
     11 C           4.6843  -10.1806  -32.1117 C.2     1  UNL1        0.1077
     12 S           4.7707  -10.2322  -33.9169 S.O2    1  UNL1        0.0613
     13 O           4.8091  -11.6548  -34.2686 O.2     1  UNL1       -0.1528
     14 O           5.7778   -9.3003  -34.4309 O.2     1  UNL1       -0.1528
     15 N           3.2408   -9.6620  -34.4137 N.3     1  UNL1       -0.1681
     16 C           2.1577   -9.7390  -33.4291 C.3     1  UNL1        0.0213
     17 C           0.8699   -9.4244  -34.1999 C.3     1  UNL1       -0.0367
     18 C           1.1600   -9.8614  -35.6470 C.3     1  UNL1       -0.0293
     19 C           2.6880  -10.1191  -35.7085 C.3     1  UNL1        0.0711
     20 C           3.3462   -9.4417  -36.9214 C.2     1  UNL1        0.0605
     21 O           2.6141   -9.1260  -37.8417 O.co2   1  UNL1       -0.5481
     22 O           4.5549   -9.2787  -36.8927 O.co2   1  UNL1       -0.5481
     23 H           0.4998  -13.6708  -31.2351 H       1  UNL1        0.0661
     24 H           1.9611  -14.6197  -31.1039 H       1  UNL1        0.0661
     25 H           1.5353  -13.8771  -32.6272 H       1  UNL1        0.0661
     26 H           3.6042  -12.1573  -28.7523 H       1  UNL1        0.0266
     27 H           3.3526  -10.5569  -28.0977 H       1  UNL1        0.0266
     28 H           4.9328  -11.2975  -28.0115 H       1  UNL1        0.0266
     29 H           5.9767   -7.2576  -30.9090 H       1  UNL1        0.0267
     30 H           5.0344   -7.3409  -32.3781 H       1  UNL1        0.0267
     31 H           6.6218   -8.0684  -32.3160 H       1  UNL1        0.0267
     32 H           2.3104   -9.0216  -32.6500 H       1  UNL1        0.0444
     33 H           2.1142  -10.7025  -32.9657 H       1  UNL1        0.0444
     34 H           0.6525   -8.3776  -34.1589 H       1  UNL1        0.0279
     35 H           0.0202   -9.9285  -33.7888 H       1  UNL1        0.0279
     36 H           0.8841   -9.0878  -36.3328 H       1  UNL1        0.0285
     37 H           0.6011  -10.7332  -35.9161 H       1  UNL1        0.0285
     38 H           2.8965  -11.1589  -35.8509 H       1  UNL1        0.0541
@<TRIPOS>BOND
     1     1     2    1
     2     2     3    1
     3     3     4    2
     4     3     5    1
     5     5     6    2
     6     6     7    1
     7     6     8    1
     8     8     9    1
     9     9    10    1
    10     9    11    2
    11     5    11    1
    12    11    12    1
    13    12    13    2
    14    12    14    2
    15    12    15    1
    16    15    16    1
    17    16    17    1
    18    17    18    1
    19    18    19    1
    20    15    19    1
    21    19    20    1
    22    20    21   ar
    23    20    22   ar
    24     1    23    1
    25     1    24    1
    26     1    25    1
    27     7    26    1
    28     7    27    1
    29     7    28    1
    30    10    29    1
    31    10    30    1
    32    10    31    1
    33    16    32    1
    34    16    33    1
    35    17    34    1
    36    17    35    1
    37    18    36    1
    38    18    37    1
    39    19    38    1
@<TRIPOS>SUBSTRUCTURE
     1 UNL1        1 TEMP              0 ****  ****    0 ROOT


