##########                                Name: HTS1710-00533573-01
##########                    Molecular_Weight:             342.262
##########                DOCK_Rotatable_Bonds:                   6
##########                       Formal_Charge:                  -2
##########                     HBond_Acceptors:                   8
##########                        HBond_Donors:                   0
##########                         Heavy_Atoms:                  25
##########                          Grid_Score:          -75.271683
##########                     Grid_vdw_energy:          -41.358196
##########                      Grid_es_energy:          -33.913486
##########           Internal_energy_repulsive:            9.751093

@<TRIPOS>MOLECULE
HTS1710-00533573-01
 35 37 1 0 0
SMALL
USER_CHARGES


@<TRIPOS>ATOM
      1 C           2.3188  -12.7433  -31.6407 C.ar    1  UNL1        0.0671
      2 C           1.8015  -12.4712  -32.9572 C.ar    1  UNL1        0.0031
      3 C           2.0116  -14.0031  -31.0609 C.ar    1  UNL1        0.1466
      4 C           3.1131  -11.8462  -30.8486 C.ar    1  UNL1        0.1357
      5 C           0.9235  -13.4172  -33.5595 C.ar    1  UNL1        0.0673
      6 C           2.1337  -11.3243  -33.7351 C.ar    1  UNL1       -0.0530
      7 C           2.5156  -14.3885  -29.8128 C.ar    1  UNL1        0.0234
      8 O           1.1957  -14.9043  -31.6920 O.2     1  UNL1       -0.4215
      9 C           3.6145  -12.2543  -29.5878 C.ar    1  UNL1        0.0227
     10 O           3.3497  -10.5518  -31.2640 O.3     1  UNL1       -0.4854
     11 C           0.5656  -14.7041  -32.8732 C.ar    1  UNL1        0.3451
     12 C           0.3714  -13.1804  -34.8370 C.ar    1  UNL1       -0.0472
     13 C           1.5801  -11.1058  -35.0039 C.ar    1  UNL1       -0.0611
     14 C           3.3269  -13.5291  -29.0749 C.ar    1  UNL1        0.1280
     15 C           3.3880   -9.3957  -30.4001 C.3     1  UNL1        0.1287
     16 O          -0.2197  -15.5140  -33.3363 O.2     1  UNL1       -0.2445
     17 C           0.6891  -12.0260  -35.5533 C.ar    1  UNL1       -0.0609
     18 O           3.7952  -13.9638  -27.8505 O.3     1  UNL1       -0.4860
     19 C           4.4411   -8.3843  -30.8775 C.2     1  UNL1        0.0789
     20 C           4.7612  -15.0275  -27.7043 C.3     1  UNL1        0.1286
     21 O           5.5986   -8.5539  -30.5356 O.co2   1  UNL1       -0.5463
     22 O           4.0329   -7.4468  -31.5413 O.co2   1  UNL1       -0.5463
     23 C           6.1698  -14.4703  -27.4529 C.2     1  UNL1        0.0789
     24 O           6.4275  -13.3496  -27.8585 O.co2   1  UNL1       -0.5463
     25 O           6.9552  -15.2124  -26.8895 O.co2   1  UNL1       -0.5463
     26 H           2.8005  -10.6354  -33.3534 H       1  UNL1        0.0624
     27 H           2.2833  -15.3203  -29.4349 H       1  UNL1        0.0691
     28 H           4.1994  -11.6052  -29.0387 H       1  UNL1        0.0691
     29 H          -0.2766  -13.8710  -35.2470 H       1  UNL1        0.0626
     30 H           1.8338  -10.2580  -35.5348 H       1  UNL1        0.0618
     31 H           3.6302   -9.7097  -29.4062 H       1  UNL1        0.0760
     32 H           2.4282   -8.9232  -30.4213 H       1  UNL1        0.0760
     33 H           0.2688  -11.8553  -36.4803 H       1  UNL1        0.0618
     34 H           4.7728  -15.6135  -28.5996 H       1  UNL1        0.0760
     35 H           4.4797  -15.6265  -26.8637 H       1  UNL1        0.0760
@<TRIPOS>BOND
     1     1     2   ar
     2     1     3   ar
     3     1     4   ar
     4     2     5   ar
     5     2     6   ar
     6     3     7   ar
     7     3     8   ar
     8     4     9   ar
     9     4    10    1
    10     5    11   ar
    11     5    12   ar
    12     6    13   ar
    13     7    14   ar
    14    10    15    1
    15    11    16    2
    16    12    17   ar
    17    14    18    1
    18    15    19    1
    19    18    20    1
    20    19    21   ar
    21    19    22   ar
    22    20    23    1
    23    23    24   ar
    24    23    25   ar
    25     8    11   ar
    26     9    14   ar
    27    13    17   ar
    28     6    26    1
    29     7    27    1
    30     9    28    1
    31    12    29    1
    32    13    30    1
    33    15    31    1
    34    15    32    1
    35    17    33    1
    36    20    34    1
    37    20    35    1
@<TRIPOS>SUBSTRUCTURE
     1 UNL1        1 TEMP              0 ****  ****    0 ROOT


