##########                                Name: HTS1710-00277838-01
##########                    Molecular_Weight:             367.341
##########                DOCK_Rotatable_Bonds:                   7
##########                       Formal_Charge:                  -2
##########                     HBond_Acceptors:                   9
##########                        HBond_Donors:                   1
##########                         Heavy_Atoms:                  27
##########                          Grid_Score:          -75.774498
##########                     Grid_vdw_energy:          -45.619930
##########                      Grid_es_energy:          -30.154566
##########           Internal_energy_repulsive:           13.043887

@<TRIPOS>MOLECULE
HTS1710-00277838-01
 42 44 1 0 0
SMALL
USER_CHARGES


@<TRIPOS>ATOM
      1 C           7.1323   -3.9935  -33.3106 C.3     1  UNL1        0.0788
      2 O           7.2050   -5.1948  -34.0972 O.3     1  UNL1       -0.4951
      3 C           6.5462   -6.3591  -33.7513 C.ar    1  UNL1        0.1201
      4 C           6.3568   -7.3369  -34.7400 C.ar    1  UNL1       -0.0193
      5 C           5.6958   -8.5362  -34.4361 C.ar    1  UNL1       -0.0491
      6 C           5.1758   -8.7686  -33.1464 C.ar    1  UNL1        0.0004
      7 C           5.4160   -7.8028  -32.1457 C.ar    1  UNL1       -0.0491
      8 C           6.0817   -6.6036  -32.4431 C.ar    1  UNL1       -0.0193
      9 C           4.5369  -10.0650  -32.8513 C.2     1  UNL1        0.0695
     10 N           4.5735  -11.1292  -33.6489 N.2     1  UNL1       -0.3024
     11 O           4.0236  -12.2116  -32.9005 O.co2   1  UNL1       -0.7128
     12 C           3.6638  -11.6949  -31.6983 C.2     1  UNL1       -0.0752
     13 C           3.0755  -12.6297  -30.6518 C.3     1  UNL1        0.0345
     14 C           2.1226  -13.6567  -31.2973 C.3     1  UNL1       -0.0435
     15 N           4.1478  -13.3545  -29.9492 N.am    1  UNL1       -0.3045
     16 C           4.2623  -13.4311  -28.5633 C.2     1  UNL1        0.2643
     17 O           3.3992  -12.8703  -27.9119 O.2     1  UNL1       -0.2685
     18 C           5.3730  -14.1819  -27.8691 C.ar    1  UNL1        0.1433
     19 N           6.6135  -13.6455  -27.8406 N.ar    1  UNL1       -0.2473
     20 C           7.5755  -14.3699  -27.2355 C.ar    1  UNL1        0.0465
     21 C           7.3034  -15.6170  -26.6451 C.ar    1  UNL1        0.0457
     22 N           6.0660  -16.1507  -26.6491 N.ar    1  UNL1       -0.2595
     23 C           5.1051  -15.4273  -27.2605 C.ar    1  UNL1        0.0580
     24 C           3.8758  -10.3465  -31.6005 C.2     1  UNL1        0.0144
     25 C           3.4211   -9.4115  -30.5218 C.2     1  UNL1        0.0729
     26 O           2.3320   -8.8812  -30.6390 O.co2   1  UNL1       -0.5446
     27 O           4.1330   -9.2575  -29.5467 O.co2   1  UNL1       -0.5446
     28 H           7.7199   -3.2282  -33.7731 H       1  UNL1        0.0660
     29 H           7.5085   -4.1872  -32.3278 H       1  UNL1        0.0660
     30 H           6.1141   -3.6709  -33.2455 H       1  UNL1        0.0660
     31 H           6.7062   -7.1726  -35.6971 H       1  UNL1        0.0654
     32 H           5.5886   -9.2578  -35.1660 H       1  UNL1        0.0625
     33 H           5.0971   -7.9811  -31.1805 H       1  UNL1        0.0625
     34 H           6.2315   -5.9000  -31.7032 H       1  UNL1        0.0654
     35 H           2.5265  -12.0292  -29.9568 H       1  UNL1        0.0535
     36 H           2.6669  -14.2599  -31.9934 H       1  UNL1        0.0250
     37 H           1.3371  -13.1416  -31.8097 H       1  UNL1        0.0250
     38 H           1.7027  -14.2810  -30.5364 H       1  UNL1        0.0250
     39 H           4.8270  -13.8142  -30.4939 H       1  UNL1        0.1496
     40 H           8.5382  -13.9992  -27.2046 H       1  UNL1        0.0845
     41 H           8.0730  -16.1380  -26.1963 H       1  UNL1        0.0845
     42 H           4.1418  -15.7969  -27.2840 H       1  UNL1        0.0853
@<TRIPOS>BOND
     1     1     2    1
     2     2     3    1
     3     3     4   ar
     4     4     5   ar
     5     5     6   ar
     6     6     7   ar
     7     7     8   ar
     8     3     8   ar
     9     6     9    1
    10     9    10    2
    11    10    11    1
    12    11    12    1
    13    12    13    1
    14    13    14    1
    15    13    15    1
    16    15    16   am
    17    16    17    2
    18    16    18    1
    19    18    19   ar
    20    19    20   ar
    21    20    21   ar
    22    21    22   ar
    23    22    23   ar
    24    18    23   ar
    25    12    24    2
    26     9    24    1
    27    24    25    1
    28    25    26   ar
    29    25    27   ar
    30     1    28    1
    31     1    29    1
    32     1    30    1
    33     4    31    1
    34     5    32    1
    35     7    33    1
    36     8    34    1
    37    13    35    1
    38    14    36    1
    39    14    37    1
    40    14    38    1
    41    15    39    1
    42    20    40    1
    43    21    41    1
    44    23    42    1
@<TRIPOS>SUBSTRUCTURE
     1 UNL1        1 TEMP              0 ****  ****    0 ROOT


