##########                                Name: HTS1710-01274922-01
##########                    Molecular_Weight:             329.226
##########                DOCK_Rotatable_Bonds:                  10
##########                       Formal_Charge:                  -3
##########                     HBond_Acceptors:                   9
##########                        HBond_Donors:                   1
##########                         Heavy_Atoms:                  22
##########                          Grid_Score:          -96.771805
##########                     Grid_vdw_energy:          -38.692966
##########                      Grid_es_energy:          -58.078835
##########           Internal_energy_repulsive:            7.805074

@<TRIPOS>MOLECULE
HTS1710-01274922-01
 36 36 1 0 0
SMALL
USER_CHARGES


@<TRIPOS>ATOM
      1 P           4.2550   -8.5321  -30.8277 P.3     1  UNL1       -0.0146
      2 C           2.5664  -12.7251  -31.4082 C.ar    1  UNL1        0.0426
      3 C           2.0215  -13.5676  -30.4042 C.ar    1  UNL1        0.1466
      4 N           3.5593  -12.7209  -28.7484 N.ar    1  UNL1       -0.2562
      5 C           3.6431  -11.8670  -31.0261 C.ar    1  UNL1        0.0085
      6 C           2.5468  -13.5313  -29.0962 C.ar    1  UNL1        0.0801
      7 O           3.6899   -8.9290  -29.5114 O.co2   1  UNL1       -0.5770
      8 O           3.7596   -9.5866  -31.9483 O.3     1  UNL1       -0.3626
      9 O           3.7752   -7.1705  -31.1839 O.2     1  UNL1       -0.6377
     10 C           4.0880  -11.9159  -29.6847 C.ar    1  UNL1        0.0341
     11 C           3.3650   -9.4777  -37.0462 C.2     1  UNL1        0.0418
     12 C           1.9748  -12.7938  -32.7929 C.2     1  UNL1        0.0332
     13 C           4.3312  -10.9035  -32.0090 C.3     1  UNL1        0.0780
     14 N           1.7510  -11.7633  -33.5334 N.2     1  UNL1       -0.2908
     15 O           2.5693   -8.8490  -37.7207 O.co2   1  UNL1       -0.5498
     16 O           5.7406   -8.5489  -30.7570 O.co2   1  UNL1       -0.5770
     17 O           0.9887  -14.4204  -30.6876 O.3     1  UNL1       -0.5043
     18 O           4.5126   -9.1436  -36.8107 O.co2   1  UNL1       -0.5498
     19 C           2.8820  -10.8024  -36.4369 C.3     1  UNL1       -0.0115
     20 C           1.1699  -11.9237  -34.8745 C.3     1  UNL1        0.0400
     21 C           1.9904  -14.4206  -27.9876 C.3     1  UNL1       -0.0188
     22 C           1.5126  -10.6773  -35.7234 C.3     1  UNL1       -0.0283
     23 H           4.8654  -11.2959  -29.4087 H       1  UNL1        0.0833
     24 H           1.7342  -13.7234  -33.1712 H       1  UNL1        0.0832
     25 H           4.2207  -11.2843  -33.0029 H       1  UNL1        0.0614
     26 H           5.3642  -10.8322  -31.7391 H       1  UNL1        0.0614
     27 H           0.6107  -14.9410  -30.0064 H       1  UNL1        0.2922
     28 H           3.6082  -11.1351  -35.7250 H       1  UNL1        0.0325
     29 H           2.7617  -11.4989  -37.2402 H       1  UNL1        0.0325
     30 H           0.1074  -12.0231  -34.7957 H       1  UNL1        0.0508
     31 H           1.5707  -12.7999  -35.3400 H       1  UNL1        0.0508
     32 H           2.5271  -14.2373  -27.0803 H       1  UNL1        0.0294
     33 H           2.1003  -15.4480  -28.2656 H       1  UNL1        0.0294
     34 H           0.9539  -14.1999  -27.8398 H       1  UNL1        0.0294
     35 H           0.7510  -10.5464  -36.4634 H       1  UNL1        0.0286
     36 H           1.5668   -9.8385  -35.0613 H       1  UNL1        0.0286
@<TRIPOS>BOND
     1     2     5   ar
     2     2     3   ar
     3     4    10   ar
     4     5    13    1
     5     4     6   ar
     6     1     7    1
     7     1     8    1
     8     1     9    2
     9     5    10   ar
    10    11    19    1
    11     2    12    1
    12     8    13    1
    13    12    14    2
    14    11    15   ar
    15     1    16    1
    16     3    17    1
    17    11    18   ar
    18    19    22    1
    19    14    20    1
    20     6    21    1
    21    20    22    1
    22     3     6   ar
    23    10    23    1
    24    12    24    1
    25    13    25    1
    26    13    26    1
    27    17    27    1
    28    19    28    1
    29    19    29    1
    30    20    30    1
    31    20    31    1
    32    21    32    1
    33    21    33    1
    34    21    34    1
    35    22    35    1
    36    22    36    1
@<TRIPOS>SUBSTRUCTURE
     1 UNL1        1 TEMP              0 ****  ****    0 ROOT


