##########                                Name: HTS1710-01271471-01
##########                    Molecular_Weight:              393.78
##########                DOCK_Rotatable_Bonds:                   8
##########                       Formal_Charge:                  -2
##########                     HBond_Acceptors:                   9
##########                        HBond_Donors:                   1
##########                         Heavy_Atoms:                  27
##########                          Grid_Score:          -77.145706
##########                     Grid_vdw_energy:          -44.554031
##########                      Grid_es_energy:          -32.591671
##########           Internal_energy_repulsive:           14.843050

@<TRIPOS>MOLECULE
HTS1710-01271471-01
 43 44 1 0 0
SMALL
USER_CHARGES


@<TRIPOS>ATOM
      1 C           3.8365  -10.8008  -31.9348 C.ar    1  UNL1        0.0174
      2 C           3.1437  -12.0256  -32.4252 C.ar    1  UNL1        0.2550
      3 N           2.9291  -13.0071  -31.4544 N.ar    1  UNL1       -0.3070
      4 C           4.2629  -10.6375  -30.6226 C.ar    1  UNL1       -0.0978
      5 C           4.0547   -9.6653  -32.9448 C.3     1  UNL1        0.0239
      6 C           3.9999  -11.7014  -29.6968 C.ar    1  UNL1       -0.0498
      7 C           3.3413  -12.8372  -30.1256 C.ar    1  UNL1        0.0188
      8 C           2.7389   -9.2407  -33.6186 C.ar    1  UNL1       -0.0377
      9 C           2.2457  -14.2646  -31.8766 C.3     1  UNL1        0.0657
     10 C           1.7993   -8.5268  -32.8490 C.ar    1  UNL1       -0.0361
     11 C           0.5761   -8.1175  -33.4053 C.ar    1  UNL1        0.0826
     12 O           2.7860  -12.1632  -33.5854 O.2     1  UNL1       -0.2674
     13 C           5.2269   -9.9897  -33.9206 C.3     1  UNL1        0.0559
     14 C           0.7315  -14.0479  -32.0091 C.2     1  UNL1        0.0615
     15 C           5.7110   -8.7500  -34.6829 C.2     1  UNL1        0.3077
     16 C           0.2786   -8.4163  -34.7468 C.ar    1  UNL1        0.1351
     17 C           2.4306   -9.5353  -34.9654 C.ar    1  UNL1       -0.0544
     18 O           0.0897  -13.9503  -30.9776 O.co2   1  UNL1       -0.5480
     19 O           5.4766   -8.5510  -35.8638 O.2     1  UNL1       -0.2508
     20 O           4.9002   -9.5378  -30.1661 O.co2   1  UNL1       -0.8733
     21 C           1.2094   -9.1244  -35.5232 C.ar    1  UNL1       -0.0184
     22 CL         -0.5674   -7.2360  -32.4074 Cl      1  UNL1       -0.0798
     23 O           0.2688  -13.9967  -33.1352 O.co2   1  UNL1       -0.5480
     24 O           6.4480   -7.9201  -33.8853 O.3     1  UNL1       -0.4679
     25 C           3.0896  -13.9130  -29.0840 C.3     1  UNL1       -0.0242
     26 O          -0.9064   -8.0236  -35.3012 O.3     1  UNL1       -0.5053
     27 C           6.9653   -6.6935  -34.4298 C.3     1  UNL1        0.0817
     28 H           4.3747   -8.7915  -32.4165 H       1  UNL1        0.0404
     29 H           4.3018  -11.6184  -28.7135 H       1  UNL1        0.0629
     30 H           2.4282  -15.0246  -31.1459 H       1  UNL1        0.0554
     31 H           2.6331  -14.5607  -32.8290 H       1  UNL1        0.0554
     32 H           2.0122   -8.3018  -31.8646 H       1  UNL1        0.0636
     33 H           4.8933  -10.7199  -34.6280 H       1  UNL1        0.0387
     34 H           6.0461  -10.3555  -33.3375 H       1  UNL1        0.0387
     35 H           3.1081  -10.0566  -35.5436 H       1  UNL1        0.0622
     36 H           0.9951   -9.3440  -36.5086 H       1  UNL1        0.0654
     37 H           3.4775  -13.5927  -28.1395 H       1  UNL1        0.0292
     38 H           3.5768  -14.8181  -29.3812 H       1  UNL1        0.0292
     39 H           2.0373  -14.0862  -28.9972 H       1  UNL1        0.0292
     40 H          -1.1410   -8.3149  -36.1604 H       1  UNL1        0.2922
     41 H           7.5134   -6.1709  -33.6740 H       1  UNL1        0.0661
     42 H           6.1541   -6.0834  -34.7683 H       1  UNL1        0.0661
     43 H           7.6132   -6.9137  -35.2524 H       1  UNL1        0.0661
@<TRIPOS>BOND
     1     1     2   ar
     2     2     3   ar
     3     1     4   ar
     4     1     5    1
     5     4     6   ar
     6     6     7   ar
     7     5     8    1
     8     3     9    1
     9     8    10   ar
    10    10    11   ar
    11     2    12    2
    12     5    13    1
    13     9    14    1
    14    13    15    1
    15    16    21   ar
    16     8    17   ar
    17    14    18   ar
    18    15    19    2
    19     4    20    1
    20    17    21   ar
    21    11    22    1
    22    14    23   ar
    23    15    24    1
    24     7    25    1
    25    16    26    1
    26    24    27    1
    27     3     7   ar
    28    11    16   ar
    29     5    28    1
    30     6    29    1
    31     9    30    1
    32     9    31    1
    33    10    32    1
    34    13    33    1
    35    13    34    1
    36    17    35    1
    37    21    36    1
    38    25    37    1
    39    25    38    1
    40    25    39    1
    41    26    40    1
    42    27    41    1
    43    27    42    1
    44    27    43    1
@<TRIPOS>SUBSTRUCTURE
     1 UNL1        1 TEMP              0 ****  ****    0 ROOT


