HTS1710-01271450-01
 OpenBabel03232612363D

 47 48  0  0  1  0  0  0  0  0999 V2000
    3.3791  -10.2137  -30.5675 C   0  0  0  0  0  0  0  0  0  0  0  0
    2.9779  -11.3601  -31.4338 C   0  0  0  0  0  0  0  0  0  0  0  0
    2.7441  -12.5567  -30.7515 N   0  0  0  0  0  0  0  0  0  0  0  0
    3.4941  -10.3060  -29.1853 C   0  0  0  0  0  0  0  0  0  0  0  0
    3.6516   -8.8724  -31.2636 C   0  0  2  0  0  0  0  0  0  0  0  0
    3.2165  -11.5747  -28.5727 C   0  0  0  0  0  0  0  0  0  0  0  0
    2.8535  -12.6499  -29.3578 C   0  0  0  0  0  0  0  0  0  0  0  0
    2.3581   -8.0922  -31.5640 C   0  0  0  0  0  0  0  0  0  0  0  0
    2.3640  -13.7590  -31.5514 C   0  0  0  0  0  0  0  0  0  0  0  0
    1.5082   -8.3909  -32.6536 C   0  0  0  0  0  0  0  0  0  0  0  0
    2.8581  -11.2666  -32.6451 O   0  0  0  0  0  0  0  0  0  0  0  0
    4.6232   -9.0725  -32.4651 C   0  0  0  0  0  0  0  0  0  0  0  0
    0.3340   -7.6372  -32.8784 C   0  0  0  0  0  0  0  0  0  0  0  0
    0.8817  -13.7462  -31.9688 C   0  0  0  0  0  0  0  0  0  0  0  0
    5.6119   -7.9114  -32.6417 C   0  0  0  0  0  0  0  0  0  0  0  0
    0.0051   -6.5877  -32.0023 C   0  0  0  0  0  0  0  0  0  0  0  0
    2.0072   -7.0381  -30.6995 C   0  0  0  0  0  0  0  0  0  0  0  0
    0.0441  -14.1081  -31.1602 O   0  5  0  0  0  0  0  0  0  0  0  0
    5.9490   -7.1656  -31.7357 O   0  0  0  0  0  0  0  0  0  0  0  0
    3.8416   -9.2782  -28.3828 O   0  5  0  0  0  0  0  0  0  0  0  0
    0.8398   -6.2908  -30.9158 C   0  0  0  0  0  0  0  0  0  0  0  0
    0.6456  -13.3666  -33.1028 O   0  0  0  0  0  0  0  0  0  0  0  0
   -0.5134   -7.9025  -33.9398 O   0  0  0  0  0  0  0  0  0  0  0  0
    6.0460   -7.8109  -33.9342 O   0  0  0  0  0  0  0  0  0  0  0  0
    2.5695  -13.9603  -28.6438 C   0  0  0  0  0  0  0  0  0  0  0  0
   -1.1292   -5.8526  -32.2031 O   0  0  0  0  0  0  0  0  0  0  0  0
   -0.0657   -8.0007  -35.3031 C   0  0  0  0  0  0  0  0  0  0  0  0
    6.9369   -6.7415  -34.2947 C   0  0  0  0  0  0  0  0  0  0  0  0
    4.1688   -8.2216  -30.5899 H   0  0  0  0  0  0  0  0  0  0  0  0
    3.2882  -11.6820  -27.5488 H   0  0  0  0  0  0  0  0  0  0  0  0
    2.5473  -14.6341  -30.9635 H   0  0  0  0  0  0  0  0  0  0  0  0
    2.9530  -13.7543  -32.4447 H   0  0  0  0  0  0  0  0  0  0  0  0
    1.7475   -9.1666  -33.2908 H   0  0  0  0  0  0  0  0  0  0  0  0
    4.0436   -9.1650  -33.3597 H   0  0  0  0  0  0  0  0  0  0  0  0
    5.1981   -9.9529  -32.2665 H   0  0  0  0  0  0  0  0  0  0  0  0
    2.6159   -6.8125  -29.8973 H   0  0  0  0  0  0  0  0  0  0  0  0
    0.5949   -5.5208  -30.2737 H   0  0  0  0  0  0  0  0  0  0  0  0
    2.7065  -13.8295  -27.5907 H   0  0  0  0  0  0  0  0  0  0  0  0
    3.2409  -14.7134  -29.0000 H   0  0  0  0  0  0  0  0  0  0  0  0
    1.5611  -14.2608  -28.8377 H   0  0  0  0  0  0  0  0  0  0  0  0
   -1.1400   -4.9401  -31.9902 H   0  0  0  0  0  0  0  0  0  0  0  0
   -0.9005   -8.2112  -35.9384 H   0  0  0  0  0  0  0  0  0  0  0  0
    0.6535   -8.7885  -35.3865 H   0  0  0  0  0  0  0  0  0  0  0  0
    0.3830   -7.0754  -35.5987 H   0  0  0  0  0  0  0  0  0  0  0  0
    7.1751   -6.8113  -35.3355 H   0  0  0  0  0  0  0  0  0  0  0  0
    7.8349   -6.8155  -33.7176 H   0  0  0  0  0  0  0  0  0  0  0  0
    6.4637   -5.8019  -34.0993 H   0  0  0  0  0  0  0  0  0  0  0  0
  1  2  1  0  0  0  0
  1  4  2  0  0  0  0
  1  5  1  0  0  0  0
  2  3  1  0  0  0  0
  2 11  2  0  0  0  0
  3  9  1  0  0  0  0
  3  7  1  0  0  0  0
  4  6  1  0  0  0  0
  4 20  1  0  0  0  0
  5  8  1  0  0  0  0
  5 12  1  0  0  0  0
  5 29  1  1  0  0  0
  6  7  2  0  0  0  0
  6 30  1  0  0  0  0
  7 25  1  0  0  0  0
  8 10  2  0  0  0  0
  8 17  1  0  0  0  0
  9 14  1  0  0  0  0
  9 31  1  0  0  0  0
  9 32  1  0  0  0  0
 10 13  1  0  0  0  0
 10 33  1  0  0  0  0
 12 15  1  0  0  0  0
 12 34  1  0  0  0  0
 12 35  1  0  0  0  0
 13 23  1  0  0  0  0
 13 16  2  0  0  0  0
 14 18  1  0  0  0  0
 14 22  2  0  0  0  0
 15 19  2  0  0  0  0
 15 24  1  0  0  0  0
 16 21  1  0  0  0  0
 16 26  1  0  0  0  0
 17 21  2  0  0  0  0
 17 36  1  0  0  0  0
 21 37  1  0  0  0  0
 23 27  1  0  0  0  0
 24 28  1  0  0  0  0
 25 38  1  0  0  0  0
 25 39  1  0  0  0  0
 25 40  1  0  0  0  0
 26 41  1  0  0  0  0
 27 42  1  0  0  0  0
 27 43  1  0  0  0  0
 27 44  1  0  0  0  0
 28 45  1  0  0  0  0
 28 46  1  0  0  0  0
 28 47  1  0  0  0  0
M  CHG  2  18  -1  20  -1
M  END
$$$$
