##########                                Name: HTS1710-01417477-01
##########                    Molecular_Weight:              331.26
##########                DOCK_Rotatable_Bonds:                   7
##########                       Formal_Charge:                  -2
##########                     HBond_Acceptors:                   9
##########                        HBond_Donors:                   1
##########                         Heavy_Atoms:                  24
##########                          Grid_Score:          -74.912933
##########                     Grid_vdw_energy:          -34.972927
##########                      Grid_es_energy:          -39.940002
##########           Internal_energy_repulsive:           14.843319

@<TRIPOS>MOLECULE
HTS1710-01417477-01
 34 35 1 0 0
SMALL
USER_CHARGES


@<TRIPOS>ATOM
      1 C           2.8793  -12.7827  -29.9054 C.ar    1  UNL1        0.1523
      2 CA          3.0283  -12.0040  -28.7208 C.ar    1  UNL1        0.1165
      3 C           3.4997  -12.3957  -31.2208 C.2     1  UNL1        0.2650
      4 N           3.0012  -11.2795  -31.8821 N.am    1  UNL1       -0.3029
      5 C           3.7130  -10.6574  -28.7057 C.2     1  UNL1        0.0921
      6 C           4.7879   -9.9311  -32.9468 C.3     1  UNL1        0.0094
      7 C           3.5306  -10.8111  -33.1709 C.3     1  UNL1        0.0538
      8 N           2.1929  -13.9483  -29.8936 N.ar    1  UNL1       -0.2467
      9 N           2.5249  -12.4360  -27.5401 N.ar    1  UNL1       -0.2500
     10 C           4.5332   -8.8434  -31.8964 C.2     1  UNL1        0.0438
     11 C           2.4230  -10.0635  -33.9131 C.ar    1  UNL1       -0.0241
     12 O           4.3899  -13.0587  -31.7283 O.2     1  UNL1       -0.2684
     13 O           3.1048   -9.7209  -28.2176 O.co2   1  UNL1       -0.5430
     14 C           1.3429   -9.4903  -33.2112 C.ar    1  UNL1       -0.0215
     15 O           3.4808   -8.2327  -31.9668 O.co2   1  UNL1       -0.5497
     16 OXT         4.8436  -10.6010  -29.1595 O.co2   1  UNL1       -0.5430
     17 C           0.3403   -8.7960  -33.9059 C.ar    1  UNL1        0.1237
     18 O           5.3966   -8.6721  -31.0521 O.co2   1  UNL1       -0.5497
     19 F          -0.6914   -8.2511  -33.2274 F       1  UNL1       -0.2055
     20 C           2.4814   -9.9295  -35.3137 C.ar    1  UNL1       -0.0566
     21 C           1.8613  -13.6069  -27.5404 C.ar    1  UNL1        0.0464
     22 C           1.6867  -14.3540  -28.7146 C.ar    1  UNL1        0.0466
     23 C           1.4766   -9.2323  -36.0048 C.ar    1  UNL1       -0.0587
     24 C           0.4037   -8.6637  -35.3015 C.ar    1  UNL1       -0.0264
     25 H           2.2603  -10.7801  -31.4687 H       1  UNL1        0.1497
     26 H           5.0553   -9.4649  -33.8721 H       1  UNL1        0.0346
     27 H           5.5788  -10.5595  -32.5941 H       1  UNL1        0.0346
     28 H           3.8385  -11.6404  -33.7729 H       1  UNL1        0.0552
     29 H           1.2894   -9.5815  -32.1846 H       1  UNL1        0.0649
     30 H           3.2678  -10.3464  -35.8360 H       1  UNL1        0.0621
     31 H           1.4712  -13.9640  -26.6543 H       1  UNL1        0.0845
     32 H           1.1560  -15.2381  -28.6733 H       1  UNL1        0.0845
     33 H           1.5275   -9.1382  -37.0312 H       1  UNL1        0.0619
     34 H          -0.3349   -8.1510  -35.8080 H       1  UNL1        0.0646
@<TRIPOS>BOND
     1     1     2   ar
     2     1     3    1
     3     3     4   am
     4     2     5    1
     5     6     7    1
     6     4     7    1
     7     1     8   ar
     8     2     9   ar
     9     6    10    1
    10     7    11    1
    11     3    12    2
    12     5    13   ar
    13    11    14   ar
    14    10    15   ar
    15     5    16   ar
    16    14    17   ar
    17    10    18   ar
    18    17    19    1
    19    11    20   ar
    20    21    22   ar
    21     8    22   ar
    22    20    23   ar
    23    23    24   ar
    24     9    21   ar
    25    17    24   ar
    26     4    25    1
    27     6    26    1
    28     6    27    1
    29     7    28    1
    30    14    29    1
    31    20    30    1
    32    21    31    1
    33    22    32    1
    34    23    33    1
    35    24    34    1
@<TRIPOS>SUBSTRUCTURE
     1 UNL1        1 TEMP              0 ****  ****    0 ROOT


