##########                                Name: HTS1710-03228240-01
##########                    Molecular_Weight:             362.336
##########                DOCK_Rotatable_Bonds:                   8
##########                       Formal_Charge:                  -2
##########                     HBond_Acceptors:                   8
##########                        HBond_Donors:                   0
##########                         Heavy_Atoms:                  26
##########                          Grid_Score:          -76.202759
##########                     Grid_vdw_energy:          -42.014729
##########                      Grid_es_energy:          -34.188034
##########           Internal_energy_repulsive:            6.052711

@<TRIPOS>MOLECULE
HTS1710-03228240-01
 44 46 1 0 0
SMALL
USER_CHARGES


@<TRIPOS>ATOM
      1 C           3.9693  -10.8104  -29.2039 C.2     1  UNL1        0.1903
      2 C           0.7247   -9.4575  -34.7902 C.2     1  UNL1        0.1903
      3 C           1.1283  -10.7431  -35.4416 C.2     1  UNL1        0.3734
      4 C           4.0751  -12.1891  -28.6321 C.2     1  UNL1        0.3734
      5 O           4.8364  -10.5148  -30.2400 O.2     1  UNL1       -0.4871
      6 O          -0.5796   -9.0505  -35.0094 O.2     1  UNL1       -0.4871
      7 C           1.5493   -8.7153  -34.0130 C.2     1  UNL1       -0.0861
      8 C           3.0806   -9.8827  -28.7727 C.2     1  UNL1       -0.0861
      9 O           2.8985  -12.8804  -28.7213 O.3     1  UNL1       -0.4543
     10 O           2.4528  -11.0280  -35.2495 O.3     1  UNL1       -0.4543
     11 O           0.3574  -11.4509  -36.0690 O.2     1  UNL1       -0.2415
     12 O           5.1010  -12.6394  -28.1460 O.2     1  UNL1       -0.2415
     13 O           1.1420   -7.5606  -33.4038 O.co2   1  UNL1       -0.8024
     14 O           2.9839   -8.6404  -29.3368 O.co2   1  UNL1       -0.8024
     15 C           2.8283  -14.0575  -29.5460 C.3     1  UNL1        0.1179
     16 C           2.8763  -12.4012  -35.1714 C.3     1  UNL1        0.1179
     17 C           2.8611  -12.8380  -33.7152 C.ar    1  UNL1       -0.0103
     18 C           2.8395  -13.6357  -31.0066 C.ar    1  UNL1       -0.0103
     19 C           1.6416  -13.2748  -31.6499 C.ar    1  UNL1       -0.0550
     20 C           1.6517  -12.8784  -32.9971 C.ar    1  UNL1       -0.0550
     21 C           4.0462  -13.6041  -31.7273 C.ar    1  UNL1       -0.0550
     22 C           4.0571  -13.2080  -33.0746 C.ar    1  UNL1       -0.0550
     23 C          -0.9419   -7.7000  -34.6425 C.3     1  UNL1        0.0800
     24 C           4.9694   -9.1332  -30.6444 C.3     1  UNL1        0.0800
     25 C           3.5670   -8.4775  -30.6477 C.3     1  UNL1       -0.0650
     26 C          -0.2831   -7.3584  -33.2842 C.3     1  UNL1       -0.0650
     27 H           2.5215   -9.0332  -33.8754 H       1  UNL1        0.0491
     28 H           2.4532  -10.1225  -27.9893 H       1  UNL1        0.0491
     29 H           1.9261  -14.5920  -29.3332 H       1  UNL1        0.0749
     30 H           3.6662  -14.6919  -29.3451 H       1  UNL1        0.0749
     31 H           3.8672  -12.4945  -35.5642 H       1  UNL1        0.0749
     32 H           2.2144  -13.0182  -35.7425 H       1  UNL1        0.0749
     33 H           0.7509  -13.3016  -31.1292 H       1  UNL1        0.0621
     34 H           0.7688  -12.6156  -33.4622 H       1  UNL1        0.0621
     35 H           4.9282  -13.8732  -31.2640 H       1  UNL1        0.0621
     36 H           4.9469  -13.1884  -33.5970 H       1  UNL1        0.0621
     37 H          -2.0057   -7.6241  -34.5555 H       1  UNL1        0.0687
     38 H          -0.6036   -7.0163  -35.3929 H       1  UNL1        0.0687
     39 H           5.3913   -9.0849  -31.6265 H       1  UNL1        0.0687
     40 H           5.6115   -8.6150  -29.9632 H       1  UNL1        0.0687
     41 H           3.6556   -7.4362  -30.8769 H       1  UNL1        0.0173
     42 H           2.9465   -8.9411  -31.3859 H       1  UNL1        0.0173
     43 H          -0.4831   -6.3379  -33.0322 H       1  UNL1        0.0173
     44 H          -0.6799   -7.9875  -32.5150 H       1  UNL1        0.0173
@<TRIPOS>BOND
     1     1     4    1
     2     1     5    1
     3     1     8    2
     4     2     3    1
     5     2     6    1
     6     2     7    2
     7     3    10    1
     8     3    11    2
     9     4     9    1
    10     4    12    2
    11     5    24    1
    12     6    23    1
    13     7    13    1
    14     8    14    1
    15     9    15    1
    16    10    16    1
    17    13    26    1
    18    14    25    1
    19    15    18    1
    20    16    17    1
    21    17    20   ar
    22    17    22   ar
    23    18    19   ar
    24    18    21   ar
    25    19    20   ar
    26    21    22   ar
    27    23    26    1
    28    24    25    1
    29     7    27    1
    30     8    28    1
    31    15    29    1
    32    15    30    1
    33    16    31    1
    34    16    32    1
    35    19    33    1
    36    20    34    1
    37    21    35    1
    38    22    36    1
    39    23    37    1
    40    23    38    1
    41    24    39    1
    42    24    40    1
    43    25    41    1
    44    25    42    1
    45    26    43    1
    46    26    44    1
@<TRIPOS>SUBSTRUCTURE
     1 UNL1        1 TEMP              0 ****  ****    0 ROOT


