##########                                Name: HTS1710-01839375-01
##########                    Molecular_Weight:             439.406
##########                DOCK_Rotatable_Bonds:                   8
##########                       Formal_Charge:                  -1
##########                     HBond_Acceptors:                  14
##########                        HBond_Donors:                   2
##########                         Heavy_Atoms:                  30
##########                          Grid_Score:          -75.886383
##########                     Grid_vdw_energy:          -49.374409
##########                      Grid_es_energy:          -26.511974
##########           Internal_energy_repulsive:            8.985339

@<TRIPOS>MOLECULE
HTS1710-01839375-01
 47 49 1 0 0
SMALL
USER_CHARGES


@<TRIPOS>ATOM
      1 N           3.9848  -11.1358  -31.8256 N.am    1  UNL1       -0.2533
      2 C           4.2946  -10.1708  -32.7679 C.2     1  UNL1        0.2438
      3 C           3.9715  -12.2426  -32.7875 C.3     1  UNL1        0.1041
      4 CA          4.3763  -11.2202  -33.9095 C.3     1  UNL1        0.1284
      5 C           0.0141   -7.3106  -36.4847 C.ar    1  UNL1        0.2455
      6 CA          3.6525  -11.3328  -30.4226 C.2     1  UNL1        0.0631
      7 N          -0.7431   -6.1354  -36.8625 N.pl3   1  UNL1       -0.1586
      8 N           1.3902   -9.0175  -36.5340 N.ar    1  UNL1       -0.2559
      9 N           0.7921   -9.1012  -35.3049 N.ar    1  UNL1       -0.1693
     10 C          -0.0323   -8.0703  -35.2713 C.ar    1  UNL1        0.1303
     11 C           0.9440   -7.9330  -37.2702 C.ar    1  UNL1        0.0971
     12 S           2.2538  -12.8881  -32.6681 S.3     1  UNL1       -0.1310
     13 C           2.9950  -12.4855  -30.0474 C.2     1  UNL1        0.0004
     14 N           3.3173  -11.0192  -34.9044 N.am    1  UNL1       -0.3002
     15 C           2.3308  -10.0519  -36.9837 C.3     1  UNL1        0.1178
     16 C           4.0657  -10.2362  -29.4475 C.2     1  UNL1        0.0860
     17 C           3.4931  -10.1960  -36.0048 C.2     1  UNL1        0.2352
     18 C           2.5919  -13.6049  -31.0149 C.3     1  UNL1        0.0219
     19 O           4.3907   -8.9669  -32.6064 O.2     1  UNL1       -0.2731
     20 O          -0.5380   -5.6728  -37.9805 O.co2   1  UNL1       -0.6334
     21 O          -1.5631   -5.6779  -36.0741 O.2     1  UNL1       -0.0291
     22 C           2.6179  -12.8691  -28.6170 C.3     1  UNL1        0.1164
     23 C           4.8423  -13.7185  -27.9137 C.2     1  UNL1        0.3043
     24 O           3.3419   -9.9624  -28.5083 O.co2   1  UNL1       -0.5433
     25 O           4.5628   -9.6396  -36.1915 O.2     1  UNL1       -0.2738
     26 O           3.8122  -12.8165  -27.8058 O.3     1  UNL1       -0.4603
     27 O           5.9811  -13.3761  -28.1797 O.2     1  UNL1       -0.2512
     28 OXT         5.1297   -9.6780  -29.6480 O.co2   1  UNL1       -0.5433
     29 C          -0.9382   -7.7339  -34.1111 C.3     1  UNL1       -0.0142
     30 C           4.4650  -15.1883  -27.6634 C.3     1  UNL1        0.0332
     31 H           4.5437  -13.1468  -32.7931 H       1  UNL1        0.0644
     32 H           5.2269  -11.3538  -34.5448 H       1  UNL1        0.0622
     33 H           0.2352   -6.0623  -36.9454 H       1  UNL1        0.4510
     34 H           1.2498   -7.6528  -38.2152 H       1  UNL1        0.0894
     35 H           2.4566  -11.4826  -34.7867 H       1  UNL1        0.1496
     36 H           2.7145   -9.7819  -37.9453 H       1  UNL1        0.0605
     37 H           1.8113  -10.9859  -37.0365 H       1  UNL1        0.0605
     38 H           3.3882  -14.3158  -31.0900 H       1  UNL1        0.0424
     39 H           1.7124  -14.0931  -30.6502 H       1  UNL1        0.0424
     40 H           2.2134  -13.8596  -28.6023 H       1  UNL1        0.0746
     41 H           1.8816  -12.1932  -28.2350 H       1  UNL1        0.0746
     42 H          -1.4997   -6.8525  -34.3410 H       1  UNL1        0.0295
     43 H          -0.3476   -7.5622  -33.2355 H       1  UNL1        0.0295
     44 H          -1.6092   -8.5485  -33.9347 H       1  UNL1        0.0295
     45 H           3.4191  -15.2564  -27.4485 H       1  UNL1        0.0342
     46 H           5.0249  -15.5637  -26.8325 H       1  UNL1        0.0342
     47 H           4.6884  -15.7673  -28.5350 H       1  UNL1        0.0342
@<TRIPOS>BOND
     1     1     2   am
     2     1     3    1
     3     1     6    1
     4     2     4    1
     5     2    19    2
     6     3     4    1
     7     3    12    1
     8     4    14    1
     9     5     7    1
    10     5    10   ar
    11     5    11   ar
    12     6    13    2
    13     6    16    1
    14     7    20    1
    15     7    21    2
    16     8     9   ar
    17     8    11   ar
    18     8    15    1
    19     9    10   ar
    20    10    29    1
    21    12    18    1
    22    13    18    1
    23    13    22    1
    24    14    17   am
    25    15    17    1
    26    16    24   ar
    27    16    28   ar
    28    17    25    2
    29    22    26    1
    30    23    26    1
    31    23    27    2
    32    23    30    1
    33     3    31    1
    34     4    32    1
    35     7    33    1
    36    11    34    1
    37    14    35    1
    38    15    36    1
    39    15    37    1
    40    18    38    1
    41    18    39    1
    42    22    40    1
    43    22    41    1
    44    29    42    1
    45    29    43    1
    46    29    44    1
    47    30    45    1
    48    30    46    1
    49    30    47    1
@<TRIPOS>SUBSTRUCTURE
     1 UNL1        1 TEMP              0 ****  ****    0 ROOT


