##########                                Name: HTS1710-00384154-01
##########                    Molecular_Weight:             329.332
##########                DOCK_Rotatable_Bonds:                   6
##########                       Formal_Charge:                  -2
##########                     HBond_Acceptors:                   7
##########                        HBond_Donors:                   0
##########                         Heavy_Atoms:                  24
##########                          Grid_Score:          -75.562546
##########                     Grid_vdw_energy:          -37.777927
##########                      Grid_es_energy:          -37.784615
##########           Internal_energy_repulsive:           13.443704

@<TRIPOS>MOLECULE
HTS1710-00384154-01
 41 43 1 0 0
SMALL
USER_CHARGES


@<TRIPOS>ATOM
      1 O           3.9060   -9.1215  -37.4457 O.co2   1  UNL1       -0.5482
      2 C           4.5497   -9.3619  -36.4388 C.2     1  UNL1        0.0590
      3 O           5.3237   -8.5941  -35.8940 O.co2   1  UNL1       -0.5482
      4 C           4.3667  -10.7487  -35.8112 C.3     1  UNL1        0.0547
      5 N           4.0579  -10.6313  -34.3634 N.am    1  UNL1       -0.2876
      6 C           2.6364  -10.8674  -33.9532 C.3     1  UNL1        0.0309
      7 C           1.6696   -9.7143  -34.3641 C.3     1  UNL1       -0.0107
      8 C           0.9452   -9.9399  -35.7126 C.3     1  UNL1        0.0493
      9 O           0.3527  -11.2528  -35.6997 O.3     1  UNL1       -0.3796
     10 C           1.3063  -12.3302  -35.6809 C.3     1  UNL1        0.0493
     11 C           2.0978  -12.2799  -34.3480 C.3     1  UNL1       -0.0107
     12 C           5.1330  -10.5924  -33.4557 C.2     1  UNL1        0.2643
     13 O           6.2733  -10.3687  -33.8314 O.2     1  UNL1       -0.2683
     14 C           4.8420  -10.7973  -32.0062 C.2     1  UNL1        0.1111
     15 C           4.9067   -9.8807  -30.9927 C.2     1  UNL1       -0.1016
     16 O           4.6299  -10.4575  -29.7837 O.co2   1  UNL1       -0.7708
     17 C           4.4285  -11.7608  -30.1851 C.2     1  UNL1        0.0099
     18 N           4.5518  -12.0124  -31.4759 N.2     1  UNL1       -0.2577
     19 C           4.1048  -12.7507  -29.1437 C.ar    1  UNL1       -0.0133
     20 C           3.3575  -12.3848  -28.0035 C.ar    1  UNL1       -0.0537
     21 C           3.0539  -13.3342  -27.0138 C.ar    1  UNL1       -0.0612
     22 C           3.4902  -14.6600  -27.1511 C.ar    1  UNL1       -0.0617
     23 C           4.2329  -15.0360  -28.2795 C.ar    1  UNL1       -0.0612
     24 C           4.5380  -14.0889  -29.2704 C.ar    1  UNL1       -0.0537
     25 H           5.2683  -11.3118  -35.9338 H       1  UNL1        0.0526
     26 H           3.5522  -11.2427  -36.2984 H       1  UNL1        0.0526
     27 H           2.6577  -10.8577  -32.8835 H       1  UNL1        0.0502
     28 H           2.2378   -8.8105  -34.4363 H       1  UNL1        0.0305
     29 H           0.9098   -9.6694  -33.6122 H       1  UNL1        0.0305
     30 H           1.6481   -9.8691  -36.5162 H       1  UNL1        0.0560
     31 H           0.1872   -9.1972  -35.8500 H       1  UNL1        0.0560
     32 H           1.9822  -12.2257  -36.5038 H       1  UNL1        0.0560
     33 H           0.7956  -13.2669  -35.7633 H       1  UNL1        0.0560
     34 H           2.9339  -12.9421  -34.4331 H       1  UNL1        0.0305
     35 H           1.4086  -12.5627  -33.5799 H       1  UNL1        0.0305
     36 H           5.1350   -8.8828  -31.1235 H       1  UNL1        0.0478
     37 H           3.0314  -11.4116  -27.8961 H       1  UNL1        0.0624
     38 H           2.5083  -13.0554  -26.1833 H       1  UNL1        0.0618
     39 H           3.2652  -15.3568  -26.4238 H       1  UNL1        0.0618
     40 H           4.5560  -16.0108  -28.3819 H       1  UNL1        0.0618
     41 H           5.0837  -14.3734  -30.0989 H       1  UNL1        0.0624
@<TRIPOS>BOND
     1     1     2   ar
     2     2     3   ar
     3     2     4    1
     4     4     5    1
     5     5     6    1
     6     6     7    1
     7     7     8    1
     8     8     9    1
     9     9    10    1
    10    10    11    1
    11     6    11    1
    12     5    12   am
    13    12    13    2
    14    12    14    1
    15    14    15    2
    16    15    16    1
    17    16    17    1
    18    17    18    2
    19    14    18    1
    20    17    19    1
    21    19    20   ar
    22    20    21   ar
    23    21    22   ar
    24    22    23   ar
    25    23    24   ar
    26    19    24   ar
    27     4    25    1
    28     4    26    1
    29     6    27    1
    30     7    28    1
    31     7    29    1
    32     8    30    1
    33     8    31    1
    34    10    32    1
    35    10    33    1
    36    11    34    1
    37    11    35    1
    38    15    36    1
    39    20    37    1
    40    21    38    1
    41    22    39    1
    42    23    40    1
    43    24    41    1
@<TRIPOS>SUBSTRUCTURE
     1 UNL1        1 TEMP              0 ****  ****    0 ROOT


