HTS1710-00617293-01
 OpenBabel03232612353D

 43 44  0  0  1  0  0  0  0  0999 V2000
    3.8420  -11.0936  -32.3058 C   0  0  2  0  0  0  0  0  0  0  0  0
    3.5374  -11.1738  -30.8539 N   0  0  0  0  0  0  0  0  0  0  0  0
    4.8645   -9.9528  -32.3564 C   0  0  0  0  0  0  0  0  0  0  0  0
    2.6047  -10.8192  -33.1567 C   0  0  0  0  0  0  0  0  0  0  0  0
    4.2183  -10.2143  -30.1261 C   0  0  0  0  0  0  0  0  0  0  0  0
    2.7107  -12.2603  -30.2959 C   0  0  0  0  0  0  0  0  0  0  0  0
    5.0048   -9.4615  -31.1105 C   0  0  0  0  0  0  0  0  0  0  0  0
    5.3745   -9.4144  -33.6530 C   0  0  0  0  0  0  0  0  0  0  0  0
    2.0741  -11.8315  -33.9761 C   0  0  0  0  0  0  0  0  0  0  0  0
    1.9711   -9.5612  -33.1145 C   0  0  0  0  0  0  0  0  0  0  0  0
    4.1657  -10.0428  -28.9199 O   0  0  0  0  0  0  0  0  0  0  0  0
    3.4073  -13.6439  -30.3224 C   0  0  0  0  0  0  0  0  0  0  0  0
    5.7495   -8.3964  -30.7385 O   0  5  0  0  0  0  0  0  0  0  0  0
    5.1717  -10.3004  -34.8854 C   0  0  0  0  0  0  0  0  0  0  0  0
    6.0367   -8.3931  -33.7117 O   0  0  0  0  0  0  0  0  0  0  0  0
    0.9254  -11.5901  -34.7467 C   0  0  0  0  0  0  0  0  0  0  0  0
    0.8227   -9.3207  -33.8833 C   0  0  0  0  0  0  0  0  0  0  0  0
    2.8743  -14.6156  -29.2395 C   0  0  0  0  0  0  0  0  0  0  0  0
    0.2995  -10.3347  -34.7014 C   0  0  0  0  0  0  0  0  0  0  0  0
    3.6012  -14.4301  -27.8866 C   0  0  0  0  0  0  0  0  0  0  0  0
    4.9272  -15.2235  -27.8265 C   0  0  0  0  0  0  0  0  0  0  0  0
    6.0971  -14.3462  -27.3692 C   0  0  0  0  0  0  0  0  0  0  0  0
    6.3813  -13.3874  -28.0667 O   0  5  0  0  0  0  0  0  0  0  0  0
    6.6543  -14.6543  -26.3304 O   0  0  0  0  0  0  0  0  0  0  0  0
    4.2098  -12.0117  -32.7141 H   0  0  0  0  0  0  0  0  0  0  0  0
    1.8074  -12.3251  -30.8658 H   0  0  0  0  0  0  0  0  0  0  0  0
    2.5272  -12.0203  -29.2695 H   0  0  0  0  0  0  0  0  0  0  0  0
    2.5312  -12.7561  -34.0111 H   0  0  0  0  0  0  0  0  0  0  0  0
    2.3538   -8.8133  -32.5151 H   0  0  0  0  0  0  0  0  0  0  0  0
    4.4557  -13.5000  -30.1641 H   0  0  0  0  0  0  0  0  0  0  0  0
    3.2020  -14.0855  -31.2751 H   0  0  0  0  0  0  0  0  0  0  0  0
    4.5645  -11.1416  -34.6237 H   0  0  0  0  0  0  0  0  0  0  0  0
    6.1219  -10.6425  -35.2389 H   0  0  0  0  0  0  0  0  0  0  0  0
    4.6871   -9.7361  -35.6544 H   0  0  0  0  0  0  0  0  0  0  0  0
    0.5411  -12.3365  -35.3469 H   0  0  0  0  0  0  0  0  0  0  0  0
    0.3622   -8.3979  -33.8476 H   0  0  0  0  0  0  0  0  0  0  0  0
    3.0204  -15.6209  -29.5752 H   0  0  0  0  0  0  0  0  0  0  0  0
    1.8360  -14.4052  -29.0886 H   0  0  0  0  0  0  0  0  0  0  0  0
   -0.5441  -10.1572  -35.2686 H   0  0  0  0  0  0  0  0  0  0  0  0
    2.9596  -14.7698  -27.1005 H   0  0  0  0  0  0  0  0  0  0  0  0
    3.8328  -13.3913  -27.7761 H   0  0  0  0  0  0  0  0  0  0  0  0
    5.1441  -15.6093  -28.8007 H   0  0  0  0  0  0  0  0  0  0  0  0
    4.8085  -16.0149  -27.1162 H   0  0  0  0  0  0  0  0  0  0  0  0
  1  2  1  0  0  0  0
  1  3  1  0  0  0  0
  1  4  1  0  0  0  0
  1 25  1  6  0  0  0
  2  5  1  0  0  0  0
  2  6  1  0  0  0  0
  3  7  2  0  0  0  0
  3  8  1  0  0  0  0
  4  9  2  0  0  0  0
  4 10  1  0  0  0  0
  5 11  2  0  0  0  0
  5  7  1  0  0  0  0
  6 12  1  0  0  0  0
  6 26  1  0  0  0  0
  6 27  1  0  0  0  0
  7 13  1  0  0  0  0
  8 14  1  0  0  0  0
  8 15  2  0  0  0  0
  9 16  1  0  0  0  0
  9 28  1  0  0  0  0
 10 17  2  0  0  0  0
 10 29  1  0  0  0  0
 12 18  1  0  0  0  0
 12 30  1  0  0  0  0
 12 31  1  0  0  0  0
 14 32  1  0  0  0  0
 14 33  1  0  0  0  0
 14 34  1  0  0  0  0
 16 19  2  0  0  0  0
 16 35  1  0  0  0  0
 17 19  1  0  0  0  0
 17 36  1  0  0  0  0
 18 20  1  0  0  0  0
 18 37  1  0  0  0  0
 18 38  1  0  0  0  0
 19 39  1  0  0  0  0
 20 21  1  0  0  0  0
 20 40  1  0  0  0  0
 20 41  1  0  0  0  0
 21 22  1  0  0  0  0
 21 42  1  0  0  0  0
 21 43  1  0  0  0  0
 22 23  1  0  0  0  0
 22 24  2  0  0  0  0
M  CHG  2  13  -1  23  -1
M  END
$$$$
