##########                                Name: HTS1710-04762230-01
##########                    Molecular_Weight:             324.354
##########                DOCK_Rotatable_Bonds:                   8
##########                       Formal_Charge:                  -2
##########                     HBond_Acceptors:                   7
##########                        HBond_Donors:                   0
##########                         Heavy_Atoms:                  23
##########                          Grid_Score:          -78.090256
##########                     Grid_vdw_energy:          -40.295265
##########                      Grid_es_energy:          -37.794994
##########           Internal_energy_repulsive:           17.206816

@<TRIPOS>MOLECULE
HTS1710-04762230-01
 45 46 1 0 0
SMALL
USER_CHARGES


@<TRIPOS>ATOM
      1 C           0.4226  -11.9824  -34.9057 C.3     1  UNL1       -0.0301
      2 C           1.9219  -12.1030  -34.5256 C.3     1  UNL1        0.1318
      3 O           2.0532  -12.0773  -33.0823 O.3     1  UNL1       -0.3651
      4 C           1.8253  -13.3178  -32.3767 C.3     1  UNL1        0.0748
      5 C           2.3652  -13.1718  -30.9385 C.3     1  UNL1        0.0820
      6 C           2.0919  -14.3881  -30.0300 C.3     1  UNL1       -0.0224
      7 C           3.3394  -14.4800  -29.1345 C.3     1  UNL1       -0.0270
      8 C           4.2745  -13.3711  -29.6532 C.3     1  UNL1        0.0482
      9 O           3.7974  -13.1200  -30.9836 O.3     1  UNL1       -0.3743
     10 C           2.8187  -11.0225  -35.1826 C.2     1  UNL1        0.2442
     11 O           2.3644   -9.9400  -35.5172 O.2     1  UNL1       -0.2728
     12 N           4.1781  -11.3301  -35.3198 N.am    1  UNL1       -0.2992
     13 C           4.7802  -12.5937  -34.8435 C.3     1  UNL1        0.0035
     14 C           5.1250  -10.3744  -35.9318 C.3     1  UNL1        0.0266
     15 C           5.4743   -9.2646  -34.9776 C.2     1  UNL1       -0.0998
     16 C           5.3127   -9.3358  -33.6192 C.2     1  UNL1       -0.0630
     17 C           5.8291   -8.1077  -33.1271 C.2     1  UNL1       -0.0144
     18 C           5.9057   -7.6984  -31.7034 C.2     1  UNL1        0.0708
     19 O           5.6211   -8.5406  -30.8695 O.co2   1  UNL1       -0.5447
     20 O           6.2471   -6.5589  -31.4442 O.co2   1  UNL1       -0.5447
     21 C           6.2281   -7.4376  -34.2663 C.2     1  UNL1       -0.1120
     22 C           6.8338   -6.0583  -34.3090 C.3     1  UNL1       -0.0524
     23 O           6.0359   -8.1103  -35.4457 O.co2   1  UNL1       -0.7845
     24 H          -0.1323  -12.7564  -34.4181 H       1  UNL1        0.0259
     25 H           0.3145  -12.0795  -35.9657 H       1  UNL1        0.0259
     26 H           0.0517  -11.0279  -34.5953 H       1  UNL1        0.0259
     27 H           2.2725  -13.0375  -34.9110 H       1  UNL1        0.0690
     28 H           2.3367  -14.1149  -32.8747 H       1  UNL1        0.0586
     29 H           0.7786  -13.5387  -32.3538 H       1  UNL1        0.0586
     30 H           1.8794  -12.2999  -30.5530 H       1  UNL1        0.0619
     31 H           1.9769  -15.2783  -30.6125 H       1  UNL1        0.0292
     32 H           1.1894  -14.2824  -29.4651 H       1  UNL1        0.0292
     33 H           3.8028  -15.4397  -29.2298 H       1  UNL1        0.0288
     34 H           3.1038  -14.3592  -28.0977 H       1  UNL1        0.0288
     35 H           5.2909  -13.7051  -29.6689 H       1  UNL1        0.0560
     36 H           4.2639  -12.4969  -29.0365 H       1  UNL1        0.0560
     37 H           4.0184  -13.2142  -34.4196 H       1  UNL1        0.0429
     38 H           5.5194  -12.3787  -34.1003 H       1  UNL1        0.0429
     39 H           5.2384  -13.1026  -35.6656 H       1  UNL1        0.0429
     40 H           4.6778   -9.9531  -36.8078 H       1  UNL1        0.0502
     41 H           6.0226  -10.9008  -36.1811 H       1  UNL1        0.0502
     42 H           4.9054  -10.1112  -33.0734 H       1  UNL1        0.0615
     43 H           6.9159   -5.6739  -33.3138 H       1  UNL1        0.0266
     44 H           6.2096   -5.4125  -34.8904 H       1  UNL1        0.0266
     45 H           7.8060   -6.1093  -34.7530 H       1  UNL1        0.0266
@<TRIPOS>BOND
     1     1     2    1
     2     2     3    1
     3     3     4    1
     4     4     5    1
     5     5     6    1
     6     6     7    1
     7     7     8    1
     8     8     9    1
     9     5     9    1
    10     2    10    1
    11    10    11    2
    12    10    12   am
    13    12    13    1
    14    12    14    1
    15    14    15    1
    16    15    16    2
    17    16    17    1
    18    17    18    1
    19    18    19   ar
    20    18    20   ar
    21    17    21    2
    22    21    22    1
    23    21    23    1
    24    15    23    1
    25     1    24    1
    26     1    25    1
    27     1    26    1
    28     2    27    1
    29     4    28    1
    30     4    29    1
    31     5    30    1
    32     6    31    1
    33     6    32    1
    34     7    33    1
    35     7    34    1
    36     8    35    1
    37     8    36    1
    38    13    37    1
    39    13    38    1
    40    13    39    1
    41    14    40    1
    42    14    41    1
    43    16    42    1
    44    22    43    1
    45    22    44    1
    46    22    45    1
@<TRIPOS>SUBSTRUCTURE
     1 UNL1        1 TEMP              0 ****  ****    0 ROOT


