HTS1710-01245478-01
 OpenBabel03232612363D

 38 40  0  0  1  0  0  0  0  0999 V2000
    5.0277   -7.6712  -31.8019 C   0  0  0  0  0  0  0  0  0  0  0  0
    5.2385   -8.6023  -32.8043 C   0  0  0  0  0  0  0  0  0  0  0  0
    4.2558  -10.3155  -31.2539 C   0  0  0  0  0  0  0  0  0  0  0  0
    4.1223   -9.3039  -30.3471 C   0  0  0  0  0  0  0  0  0  0  0  0
    4.3737   -7.9874  -30.6351 O   0  0  0  0  0  0  0  0  0  0  0  0
    4.6767   -9.9929  -32.6921 C   0  0  1  0  0  0  0  0  0  0  0  0
    5.4948   -6.2861  -31.9549 C   0  0  0  0  0  0  0  0  0  0  0  0
    5.8969   -8.3301  -33.9885 O   0  0  0  0  0  0  0  0  0  0  0  0
    6.1773   -6.0432  -33.2238 C   0  0  0  0  0  0  0  0  0  0  0  0
    3.9839  -11.7774  -30.9333 C   0  0  0  0  0  0  0  0  0  0  0  0
    6.3487   -7.0406  -34.1565 C   0  0  0  0  0  0  0  0  0  0  0  0
    3.5039  -10.1634  -33.6564 C   0  0  0  0  0  0  0  0  0  0  0  0
    3.7190   -9.5435  -29.0540 N   0  0  0  0  0  0  0  0  0  0  0  0
    5.3325   -5.4208  -31.1119 O   0  0  0  0  0  0  0  0  0  0  0  0
    3.1486  -12.4719  -31.4910 O   0  0  0  0  0  0  0  0  0  0  0  0
    1.3382  -10.4651  -35.4460 N   0  0  0  0  0  0  0  0  0  0  0  0
    4.7918  -12.2502  -29.9327 O   0  0  0  0  0  0  0  0  0  0  0  0
    7.0496   -6.7415  -35.4566 C   0  0  0  0  0  0  0  0  0  0  0  0
    6.6208   -5.4930  -35.9887 O   0  0  0  0  0  0  0  0  0  0  0  0
    2.5373  -11.0264  -35.7055 C   0  0  0  0  0  0  0  0  0  0  0  0
    1.2044   -9.7547  -34.3081 C   0  0  0  0  0  0  0  0  0  0  0  0
    2.2533   -9.5773  -33.3896 C   0  0  0  0  0  0  0  0  0  0  0  0
    3.6425  -10.9008  -34.8464 C   0  0  0  0  0  0  0  0  0  0  0  0
    4.6696  -13.6181  -29.5021 C   0  0  0  0  0  0  0  0  0  0  0  0
    5.4463  -10.6865  -32.9598 H   0  0  0  0  0  0  0  0  0  0  0  0
    6.5403   -5.0985  -33.4261 H   0  0  0  0  0  0  0  0  0  0  0  0
    3.3105  -10.4076  -28.8178 H   0  0  0  0  0  0  0  0  0  0  0  0
    3.8388   -8.8509  -28.3647 H   0  0  0  0  0  0  0  0  0  0  0  0
    6.8287   -7.5167  -36.1602 H   0  0  0  0  0  0  0  0  0  0  0  0
    8.1027   -6.6918  -35.2739 H   0  0  0  0  0  0  0  0  0  0  0  0
    6.8163   -4.7865  -35.3534 H   0  0  0  0  0  0  0  0  0  0  0  0
    2.6481  -11.5726  -36.5741 H   0  0  0  0  0  0  0  0  0  0  0  0
    0.2906   -9.3216  -34.1021 H   0  0  0  0  0  0  0  0  0  0  0  0
    2.1079   -9.0243  -32.5305 H   0  0  0  0  0  0  0  0  0  0  0  0
    4.5435  -11.3436  -35.0854 H   0  0  0  0  0  0  0  0  0  0  0  0
    5.3735  -13.8098  -28.7194 H   0  0  0  0  0  0  0  0  0  0  0  0
    4.8670  -14.2706  -30.3269 H   0  0  0  0  0  0  0  0  0  0  0  0
    3.6777  -13.7908  -29.1401 H   0  0  0  0  0  0  0  0  0  0  0  0
  1  2  2  0  0  0  0
  1  5  1  0  0  0  0
  1  7  1  0  0  0  0
  2  6  1  0  0  0  0
  2  8  1  0  0  0  0
  3  4  2  0  0  0  0
  3 10  1  0  0  0  0
  3  6  1  0  0  0  0
  4  5  1  0  0  0  0
  4 13  1  0  0  0  0
  6 12  1  0  0  0  0
  6 25  1  6  0  0  0
  7  9  1  0  0  0  0
  7 14  2  0  0  0  0
  8 11  1  0  0  0  0
  9 11  2  0  0  0  0
  9 26  1  0  0  0  0
 10 15  2  0  0  0  0
 10 17  1  0  0  0  0
 11 18  1  0  0  0  0
 12 22  2  0  0  0  0
 12 23  1  0  0  0  0
 13 27  1  0  0  0  0
 13 28  1  0  0  0  0
 16 20  1  0  0  0  0
 16 21  2  0  0  0  0
 17 24  1  0  0  0  0
 18 19  1  0  0  0  0
 18 29  1  0  0  0  0
 18 30  1  0  0  0  0
 19 31  1  0  0  0  0
 20 23  2  0  0  0  0
 20 32  1  0  0  0  0
 21 22  1  0  0  0  0
 21 33  1  0  0  0  0
 22 34  1  0  0  0  0
 23 35  1  0  0  0  0
 24 36  1  0  0  0  0
 24 37  1  0  0  0  0
 24 38  1  0  0  0  0
M  END
$$$$
