##########                                Name: HTS1710-01238644-01
##########                    Molecular_Weight:             266.167
##########                DOCK_Rotatable_Bonds:                   8
##########                       Formal_Charge:                  -2
##########                     HBond_Acceptors:                   8
##########                        HBond_Donors:                   3
##########                         Heavy_Atoms:                  17
##########                          Grid_Score:          -82.043060
##########                     Grid_vdw_energy:          -26.066349
##########                      Grid_es_energy:          -55.976707
##########           Internal_energy_repulsive:           14.035826

@<TRIPOS>MOLECULE
HTS1710-01238644-01
 30 29 1 0 0
SMALL
USER_CHARGES


@<TRIPOS>ATOM
      1 P           4.2606   -8.5311  -31.2346 P.3     1  UNL1        0.1170
      2 C           3.3391   -9.8519  -30.2995 C.3     1  UNL1        0.0522
      3 C           3.0833   -9.4423  -28.8302 C.2     1  UNL1        0.0518
      4 C           5.5882  -14.0241  -27.6165 C.2     1  UNL1        0.0893
      5 O           5.6647   -8.5097  -30.7433 O.2     1  UNL1       -0.4601
      6 O           2.9099  -10.3307  -28.0107 O.co2   1  UNL1       -0.5491
      7 O           6.0478  -13.3004  -28.4815 O.co2   1  UNL1       -0.5442
      8 O           4.1949   -8.8578  -32.6847 O.co2   1  UNL1       -0.3571
      9 O           3.5765   -7.2408  -30.9461 O.co2   1  UNL1       -0.3571
     10 CA          4.2519  -14.7078  -27.9015 C.3     1  UNL1        0.0160
     11 O           3.0542   -8.2481  -28.5834 O.co2   1  UNL1       -0.5491
     12 OXT         6.1132  -14.2771  -26.5473 O.co2   1  UNL1       -0.5442
     13 N           4.5334  -15.9051  -28.7038 N.4     1  UNL1        0.2249
     14 C           4.0482  -11.2345  -30.4236 C.3     1  UNL1       -0.0385
     15 C           3.2479  -13.8040  -28.6611 C.3     1  UNL1       -0.0043
     16 C           3.1119  -12.4134  -30.8091 C.3     1  UNL1       -0.0519
     17 C           3.5073  -13.7775  -30.1857 C.3     1  UNL1       -0.0476
     18 H           2.3753   -9.9590  -30.7518 H       1  UNL1        0.0437
     19 H           3.7910  -14.9448  -26.9654 H       1  UNL1        0.0914
     20 H           4.9707  -15.6299  -29.5833 H       1  UNL1        0.2001
     21 H           3.6614  -16.3976  -28.8971 H       1  UNL1        0.2001
     22 H           5.1638  -16.5194  -28.1883 H       1  UNL1        0.2001
     23 H           4.5004  -11.4628  -29.4812 H       1  UNL1        0.0276
     24 H           4.7571  -11.1397  -31.2194 H       1  UNL1        0.0276
     25 H           3.3299  -12.8066  -28.2821 H       1  UNL1        0.0324
     26 H           2.2684  -14.2057  -28.5058 H       1  UNL1        0.0324
     27 H           3.1246  -12.5162  -31.8741 H       1  UNL1        0.0266
     28 H           2.1432  -12.1717  -30.4242 H       1  UNL1        0.0266
     29 H           2.9315  -14.5510  -30.6493 H       1  UNL1        0.0267
     30 H           4.5538  -13.9293  -30.3496 H       1  UNL1        0.0267
@<TRIPOS>BOND
     1     1     2    1
     2     2     3    1
     3     4    10    1
     4     1     5    2
     5     3     6   ar
     6     4     7   ar
     7     1     8    1
     8     1     9    1
     9    10    15    1
    10     3    11   ar
    11     4    12   ar
    12    10    13    1
    13     2    14    1
    14    15    17    1
    15    14    16    1
    16    16    17    1
    17     2    18    1
    18    10    19    1
    19    13    20    1
    20    13    21    1
    21    13    22    1
    22    14    23    1
    23    14    24    1
    24    15    25    1
    25    15    26    1
    26    16    27    1
    27    16    28    1
    28    17    29    1
    29    17    30    1
@<TRIPOS>SUBSTRUCTURE
     1 UNL1        1 TEMP              0 ****  ****    0 ROOT


