##########                                Name: HTS1710-01295413-01
##########                    Molecular_Weight:               347.3
##########                DOCK_Rotatable_Bonds:                   6
##########                       Formal_Charge:                  -2
##########                     HBond_Acceptors:                   8
##########                        HBond_Donors:                   3
##########                         Heavy_Atoms:                  25
##########                          Grid_Score:          -76.512268
##########                     Grid_vdw_energy:          -37.432125
##########                      Grid_es_energy:          -39.080143
##########           Internal_energy_repulsive:            7.910854

@<TRIPOS>MOLECULE
HTS1710-01295413-01
 39 41 1 0 0
SMALL
USER_CHARGES


@<TRIPOS>ATOM
      1 C           4.4724   -7.2772  -31.4472 C.2     1  UNL1       -0.0555
      2 C           5.0365   -8.2144  -32.2967 C.2     1  UNL1       -0.1091
      3 C           3.8417   -9.9684  -30.9587 C.2     1  UNL1        0.0538
      4 C           3.3665   -8.9472  -30.1879 C.2     1  UNL1       -0.0306
      5 C           4.5905   -9.6505  -32.2568 C.3     1  UNL1        0.0284
      6 O           3.5499   -7.6219  -30.4878 O.co2   1  UNL1       -0.7688
      7 C           4.8405   -5.8586  -31.5459 C.2     1  UNL1        0.1708
      8 O           5.9771   -7.9170  -33.2631 O.co2   1  UNL1       -0.7839
      9 C           5.8356   -5.5899  -32.5825 C.2     1  UNL1       -0.0241
     10 C           3.7280   -9.9661  -33.4806 C.ar    1  UNL1       -0.0338
     11 C           3.6514  -11.4396  -30.6219 C.2     1  UNL1        0.3364
     12 C           6.3513   -6.5958  -33.3701 C.2     1  UNL1       -0.0886
     13 C           2.3955   -9.5146  -33.5486 C.ar    1  UNL1       -0.0224
     14 N           2.6520   -9.1841  -29.0363 N.pl3   1  UNL1       -0.3685
     15 O           4.3709   -4.9868  -30.8349 O.2     1  UNL1       -0.2886
     16 O           2.9478  -11.8640  -29.7194 O.2     1  UNL1       -0.2453
     17 C           1.6074   -9.8120  -34.6715 C.ar    1  UNL1        0.1237
     18 O           4.3688  -12.2605  -31.4514 O.3     1  UNL1       -0.4646
     19 F           0.3328   -9.3754  -34.7293 F       1  UNL1       -0.2055
     20 C           4.2535  -10.7232  -34.5481 C.ar    1  UNL1       -0.0575
     21 C           7.3798   -6.2703  -34.4211 C.3     1  UNL1        0.0566
     22 O           6.7787   -6.1566  -35.7077 O.3     1  UNL1       -0.3915
     23 C           3.4617  -11.0181  -35.6688 C.ar    1  UNL1       -0.0588
     24 C           2.1355  -10.5617  -35.7330 C.ar    1  UNL1       -0.0264
     25 C           4.2320  -13.6884  -31.3329 C.3     1  UNL1        0.0820
     26 H           5.4605  -10.2729  -32.2810 H       1  UNL1        0.0437
     27 H           6.1605   -4.6213  -32.7281 H       1  UNL1        0.0647
     28 H           1.9979   -8.9641  -32.7715 H       1  UNL1        0.0649
     29 H           1.8643   -8.6333  -28.8236 H       1  UNL1        0.1413
     30 H           2.9284   -9.9045  -28.4249 H       1  UNL1        0.1413
     31 H           5.2271  -11.0629  -34.5049 H       1  UNL1        0.0621
     32 H           8.1132   -7.0490  -34.4454 H       1  UNL1        0.0596
     33 H           7.8342   -5.3338  -34.1738 H       1  UNL1        0.0596
     34 H           6.0506   -5.5168  -35.6691 H       1  UNL1        0.2098
     35 H           3.8548  -11.5710  -36.4465 H       1  UNL1        0.0619
     36 H           1.5524  -10.7766  -36.5569 H       1  UNL1        0.0646
     37 H           4.8607  -14.1679  -32.0538 H       1  UNL1        0.0661
     38 H           3.2132  -13.9648  -31.5081 H       1  UNL1        0.0661
     39 H           4.5203  -13.9939  -30.3489 H       1  UNL1        0.0661
@<TRIPOS>BOND
     1     1     2    2
     2     3     4    2
     3     4     6    1
     4     2     5    1
     5     1     6    1
     6     1     7    1
     7     2     8    1
     8     7     9    1
     9     5    10    1
    10     3    11    1
    11     9    12    2
    12    10    13   ar
    13     4    14    1
    14     7    15    2
    15    11    16    2
    16    13    17   ar
    17    11    18    1
    18    17    19    1
    19    10    20   ar
    20    12    21    1
    21    21    22    1
    22    20    23   ar
    23    23    24   ar
    24    18    25    1
    25     3     5    1
    26     8    12    1
    27    17    24   ar
    28     5    26    1
    29     9    27    1
    30    13    28    1
    31    14    29    1
    32    14    30    1
    33    20    31    1
    34    21    32    1
    35    21    33    1
    36    22    34    1
    37    23    35    1
    38    24    36    1
    39    25    37    1
    40    25    38    1
    41    25    39    1
@<TRIPOS>SUBSTRUCTURE
     1 UNL1        1 TEMP              0 ****  ****    0 ROOT


