HTS1710-05335768-01
 OpenBabel03232612353D

 39 40  0  0  0  0  0  0  0  0999 V2000
   -0.2397   -8.5925  -34.8955 C   0  0  0  0  0  0  0  0  0  0  0  0
    0.4135   -9.9782  -35.0843 C   0  0  0  0  0  0  0  0  0  0  0  0
    1.7424   -9.8999  -35.8072 C   0  0  0  0  0  0  0  0  0  0  0  0
    2.0779   -8.9959  -36.7270 N   0  0  0  0  0  0  0  0  0  0  0  0
    3.4223   -9.3242  -37.1528 O   0  0  0  0  0  0  0  0  0  0  0  0
    3.7876  -10.4260  -36.4489 C   0  0  0  0  0  0  0  0  0  0  0  0
    2.8057  -10.8242  -35.6117 C   0  0  0  0  0  0  0  0  0  0  0  0
    2.8314  -12.0230  -34.6927 C   0  0  0  0  0  0  0  0  0  0  0  0
    3.0079  -11.6187  -33.2780 N   0  0  0  0  0  0  0  0  0  0  0  0
    1.9796  -12.1421  -32.3620 C   0  0  0  0  0  0  0  0  0  0  0  0
    4.2634  -11.2644  -32.7826 C   0  0  0  0  0  0  0  0  0  0  0  0
    5.2526  -11.2417  -33.4954 O   0  0  0  0  0  0  0  0  0  0  0  0
    4.3121  -10.8772  -31.3461 C   0  0  0  0  0  0  0  0  0  0  0  0
    4.3904  -11.7580  -30.2347 C   0  0  0  0  0  0  0  0  0  0  0  0
    4.5379  -13.2548  -30.3121 C   0  0  0  0  0  0  0  0  0  0  0  0
    4.3546  -10.9881  -29.1068 C   0  0  0  0  0  0  0  0  0  0  0  0
    4.2207   -9.6515  -29.3639 O   0  0  0  0  0  0  0  0  0  0  0  0
    4.1754   -9.6385  -30.7388 C   0  0  0  0  0  0  0  0  0  0  0  0
    3.7291   -8.3548  -31.4176 C   0  0  0  0  0  0  0  0  0  0  0  0
    4.8358   -7.3093  -31.6208 C   0  0  0  0  0  0  0  0  0  0  0  0
    5.9842   -7.7114  -31.6798 O   0  5  0  0  0  0  0  0  0  0  0  0
    4.4899   -6.1447  -31.7060 O   0  0  0  0  0  0  0  0  0  0  0  0
   -1.1717   -8.7045  -34.3818 H   0  0  0  0  0  0  0  0  0  0  0  0
   -0.4114   -8.1457  -35.8525 H   0  0  0  0  0  0  0  0  0  0  0  0
    0.4110   -7.9666  -34.3213 H   0  0  0  0  0  0  0  0  0  0  0  0
   -0.2503  -10.5958  -35.6525 H   0  0  0  0  0  0  0  0  0  0  0  0
    0.5961  -10.3864  -34.1122 H   0  0  0  0  0  0  0  0  0  0  0  0
    4.6999  -10.8993  -36.5419 H   0  0  0  0  0  0  0  0  0  0  0  0
    3.6425  -12.6609  -34.9759 H   0  0  0  0  0  0  0  0  0  0  0  0
    1.8958  -12.5345  -34.7817 H   0  0  0  0  0  0  0  0  0  0  0  0
    1.0881  -12.3586  -32.9127 H   0  0  0  0  0  0  0  0  0  0  0  0
    1.7659  -11.4111  -31.6104 H   0  0  0  0  0  0  0  0  0  0  0  0
    2.3379  -13.0369  -31.8974 H   0  0  0  0  0  0  0  0  0  0  0  0
    4.5309  -13.5613  -31.3372 H   0  0  0  0  0  0  0  0  0  0  0  0
    3.7251  -13.7205  -29.7951 H   0  0  0  0  0  0  0  0  0  0  0  0
    5.4624  -13.5460  -29.8590 H   0  0  0  0  0  0  0  0  0  0  0  0
    4.4220  -11.3772  -28.1533 H   0  0  0  0  0  0  0  0  0  0  0  0
    2.9606   -7.9125  -30.8187 H   0  0  0  0  0  0  0  0  0  0  0  0
    3.3977   -8.6335  -32.3961 H   0  0  0  0  0  0  0  0  0  0  0  0
  1  2  1  0  0  0  0
  1 23  1  0  0  0  0
  1 24  1  0  0  0  0
  1 25  1  0  0  0  0
  2  3  1  0  0  0  0
  2 26  1  0  0  0  0
  2 27  1  0  0  0  0
  3  4  2  0  0  0  0
  3  7  1  0  0  0  0
  4  5  1  0  0  0  0
  5  6  1  0  0  0  0
  6  7  2  0  0  0  0
  6 28  1  0  0  0  0
  7  8  1  0  0  0  0
  8  9  1  0  0  0  0
  8 29  1  0  0  0  0
  8 30  1  0  0  0  0
  9 10  1  0  0  0  0
  9 11  1  0  0  0  0
 10 31  1  0  0  0  0
 10 32  1  0  0  0  0
 10 33  1  0  0  0  0
 11 12  2  0  0  0  0
 11 13  1  0  0  0  0
 13 14  1  0  0  0  0
 13 18  2  0  0  0  0
 14 15  1  0  0  0  0
 14 16  2  0  0  0  0
 15 34  1  0  0  0  0
 15 35  1  0  0  0  0
 15 36  1  0  0  0  0
 16 17  1  0  0  0  0
 16 37  1  0  0  0  0
 17 18  1  0  0  0  0
 18 19  1  0  0  0  0
 19 20  1  0  0  0  0
 19 38  1  0  0  0  0
 19 39  1  0  0  0  0
 20 21  1  0  0  0  0
 20 22  2  0  0  0  0
M  CHG  1  21  -1
M  END
$$$$
