HTS1710-00346648-01
 OpenBabel03232612363D

 39 40  0  0  0  0  0  0  0  0999 V2000
   -1.2441   -6.1646  -33.2799 C   0  0  0  0  0  0  0  0  0  0  0  0
   -0.0325   -6.7032  -33.8388 O   0  0  0  0  0  0  0  0  0  0  0  0
    0.6085   -7.8115  -33.3169 C   0  0  0  0  0  0  0  0  0  0  0  0
    0.5530   -9.0089  -34.0429 C   0  0  0  0  0  0  0  0  0  0  0  0
    1.1947  -10.1704  -33.5606 C   0  0  0  0  0  0  0  0  0  0  0  0
    1.1029  -11.3719  -34.2412 O   0  0  0  0  0  0  0  0  0  0  0  0
    0.7376  -11.4699  -35.6298 C   0  0  0  0  0  0  0  0  0  0  0  0
    1.9172  -10.1174  -32.3446 C   0  0  0  0  0  0  0  0  0  0  0  0
    2.6070  -11.2240  -31.8813 N   0  0  0  0  0  0  0  0  0  0  0  0
    4.2420  -11.6279  -32.1326 S   0  0  0  0  0  0  0  0  0  0  0  0
    4.2415  -12.9756  -32.7086 O   0  0  0  0  0  0  0  0  0  0  0  0
    4.8621  -11.3046  -30.8431 O   0  0  0  0  0  0  0  0  0  0  0  0
    4.8730  -10.4543  -33.3349 C   0  0  0  0  0  0  0  0  0  0  0  0
    5.3725   -9.1463  -33.1112 C   0  0  0  0  0  0  0  0  0  0  0  0
    5.7549   -8.6653  -34.3366 C   0  0  0  0  0  0  0  0  0  0  0  0
    5.5335   -9.5390  -35.3709 O   0  0  0  0  0  0  0  0  0  0  0  0
    4.9967  -10.6048  -34.6977 C   0  0  0  0  0  0  0  0  0  0  0  0
    4.5799  -11.8256  -35.4760 C   0  0  0  0  0  0  0  0  0  0  0  0
    6.3623   -7.3350  -34.5710 C   0  0  0  0  0  0  0  0  0  0  0  0
    6.5172   -6.6074  -33.6051 O   0  5  0  0  0  0  0  0  0  0  0  0
    6.6734   -7.0472  -35.7146 O   0  0  0  0  0  0  0  0  0  0  0  0
    1.9375   -8.9189  -31.5891 C   0  0  0  0  0  0  0  0  0  0  0  0
    1.2932   -7.7725  -32.0872 C   0  0  0  0  0  0  0  0  0  0  0  0
    2.6643   -8.8169  -30.2705 C   0  0  0  0  0  0  0  0  0  0  0  0
    2.2960   -9.5407  -29.3614 O   0  5  0  0  0  0  0  0  0  0  0  0
    3.5668   -7.9997  -30.2006 O   0  0  0  0  0  0  0  0  0  0  0  0
   -1.5513   -5.3122  -33.8491 H   0  0  0  0  0  0  0  0  0  0  0  0
   -1.0698   -5.8721  -32.2655 H   0  0  0  0  0  0  0  0  0  0  0  0
   -2.0122   -6.9090  -33.3096 H   0  0  0  0  0  0  0  0  0  0  0  0
    0.0389   -9.0419  -34.9372 H   0  0  0  0  0  0  0  0  0  0  0  0
    0.7358  -12.4979  -35.9264 H   0  0  0  0  0  0  0  0  0  0  0  0
    1.4443  -10.9286  -36.2236 H   0  0  0  0  0  0  0  0  0  0  0  0
   -0.2388  -11.0560  -35.7717 H   0  0  0  0  0  0  0  0  0  0  0  0
    2.0863  -11.8583  -31.3374 H   0  0  0  0  0  0  0  0  0  0  0  0
    5.4356   -8.6544  -32.2061 H   0  0  0  0  0  0  0  0  0  0  0  0
    4.7882  -11.6747  -36.5147 H   0  0  0  0  0  0  0  0  0  0  0  0
    3.5313  -11.9924  -35.3432 H   0  0  0  0  0  0  0  0  0  0  0  0
    5.1240  -12.6766  -35.1231 H   0  0  0  0  0  0  0  0  0  0  0  0
    1.3224   -6.8941  -31.5462 H   0  0  0  0  0  0  0  0  0  0  0  0
  1  2  1  0  0  0  0
  1 27  1  0  0  0  0
  1 28  1  0  0  0  0
  1 29  1  0  0  0  0
  2  3  1  0  0  0  0
  3  4  2  0  0  0  0
  3 23  1  0  0  0  0
  4  5  1  0  0  0  0
  4 30  1  0  0  0  0
  5  6  1  0  0  0  0
  5  8  2  0  0  0  0
  6  7  1  0  0  0  0
  7 31  1  0  0  0  0
  7 32  1  0  0  0  0
  7 33  1  0  0  0  0
  8  9  1  0  0  0  0
  8 22  1  0  0  0  0
  9 10  1  0  0  0  0
  9 34  1  0  0  0  0
 10 11  2  0  0  0  0
 10 12  2  0  0  0  0
 10 13  1  0  0  0  0
 13 14  1  0  0  0  0
 13 17  2  0  0  0  0
 14 15  2  0  0  0  0
 14 35  1  0  0  0  0
 15 16  1  0  0  0  0
 15 19  1  0  0  0  0
 16 17  1  0  0  0  0
 17 18  1  0  0  0  0
 18 36  1  0  0  0  0
 18 37  1  0  0  0  0
 18 38  1  0  0  0  0
 19 20  1  0  0  0  0
 19 21  2  0  0  0  0
 22 23  2  0  0  0  0
 22 24  1  0  0  0  0
 23 39  1  0  0  0  0
 24 25  1  0  0  0  0
 24 26  2  0  0  0  0
M  CHG  2  20  -1  25  -1
M  END
$$$$
