##########                                Name: HTS1710-01417868-01
##########                    Molecular_Weight:             343.296
##########                DOCK_Rotatable_Bonds:                   7
##########                       Formal_Charge:                  -2
##########                     HBond_Acceptors:                   9
##########                        HBond_Donors:                   1
##########                         Heavy_Atoms:                  25
##########                          Grid_Score:          -76.986374
##########                     Grid_vdw_energy:          -37.829876
##########                      Grid_es_energy:          -39.156502
##########           Internal_energy_repulsive:           10.889805

@<TRIPOS>MOLECULE
HTS1710-01417868-01
 38 39 1 0 0
SMALL
USER_CHARGES


@<TRIPOS>ATOM
      1 C           2.8399  -10.7449  -31.5653 C.ar    1  UNL1        0.1526
      2 CA          3.8175  -10.5218  -30.5522 C.ar    1  UNL1        0.1165
      3 C           2.2317   -9.6331  -32.3799 C.2     1  UNL1        0.2688
      4 N           1.4763   -9.9966  -33.4928 N.am    1  UNL1       -0.2772
      5 C           0.8258   -9.1418  -34.3834 C.ar    1  UNL1        0.0765
      6 C           4.2544   -9.1421  -30.1192 C.2     1  UNL1        0.0921
      7 C          -2.3509   -7.0020  -34.7333 C.2     1  UNL1        0.0717
      8 C           1.4866   -8.8440  -35.5942 C.ar    1  UNL1        0.1420
      9 C          -1.0205   -7.6542  -35.0362 C.ar    1  UNL1       -0.0007
     10 N           2.4180  -11.9955  -31.8655 N.ar    1  UNL1       -0.2467
     11 C          -0.4180   -8.5289  -34.1063 C.ar    1  UNL1       -0.0280
     12 N           4.3839  -11.5627  -29.8947 N.ar    1  UNL1       -0.2500
     13 O           2.7214   -9.4284  -35.8338 O.3     1  UNL1       -0.4875
     14 O           2.3876   -8.4639  -32.0721 O.2     1  UNL1       -0.2681
     15 O           3.5019   -8.5143  -29.3933 O.co2   1  UNL1       -0.5430
     16 O          -2.9254   -6.4426  -35.6512 O.co2   1  UNL1       -0.5446
     17 C           0.8898   -7.9662  -36.5224 C.ar    1  UNL1       -0.0175
     18 C          -0.3551   -7.3845  -36.2468 C.ar    1  UNL1       -0.0493
     19 OXT         5.3461   -8.7568  -30.5013 O.co2   1  UNL1       -0.5430
     20 O          -2.7679   -7.0765  -33.5893 O.co2   1  UNL1       -0.5446
     21 C           2.9267  -10.6371  -36.5952 C.3     1  UNL1        0.0947
     22 C           3.9671  -12.8004  -30.2179 C.ar    1  UNL1        0.0464
     23 C           2.9805  -13.0147  -31.1911 C.ar    1  UNL1        0.0466
     24 C           1.6779  -11.5414  -36.4488 C.3     1  UNL1       -0.0281
     25 C           4.1896  -11.3232  -36.0328 C.3     1  UNL1       -0.0281
     26 H           1.3923  -10.9614  -33.6701 H       1  UNL1        0.1553
     27 H          -0.8924   -8.7239  -33.2108 H       1  UNL1        0.0644
     28 H           1.3721   -7.7511  -37.4092 H       1  UNL1        0.0655
     29 H          -0.7882   -6.7523  -36.9381 H       1  UNL1        0.0625
     30 H           3.0643  -10.4354  -37.6370 H       1  UNL1        0.0727
     31 H           4.3842  -13.6129  -29.7374 H       1  UNL1        0.0845
     32 H           2.6779  -13.9799  -31.3955 H       1  UNL1        0.0845
     33 H           1.5152  -11.7601  -35.4141 H       1  UNL1        0.0265
     34 H           1.8332  -12.4536  -36.9861 H       1  UNL1        0.0265
     35 H           0.8225  -11.0352  -36.8450 H       1  UNL1        0.0265
     36 H           4.0521  -11.5248  -34.9910 H       1  UNL1        0.0265
     37 H           5.0336  -10.6785  -36.1629 H       1  UNL1        0.0265
     38 H           4.3588  -12.2419  -36.5545 H       1  UNL1        0.0265
@<TRIPOS>BOND
     1     1     2   ar
     2     1     3    1
     3     3     4   am
     4     4     5    1
     5     2     6    1
     6     7     9    1
     7     5     8   ar
     8     9    11   ar
     9     1    10   ar
    10     5    11   ar
    11     2    12   ar
    12     8    13    1
    13     3    14    2
    14     6    15   ar
    15     7    16   ar
    16     8    17   ar
    17     9    18   ar
    18     6    19   ar
    19     7    20   ar
    20    13    21    1
    21    22    23   ar
    22    10    23   ar
    23    21    24    1
    24    21    25    1
    25    12    22   ar
    26    17    18   ar
    27     4    26    1
    28    11    27    1
    29    17    28    1
    30    18    29    1
    31    21    30    1
    32    22    31    1
    33    23    32    1
    34    24    33    1
    35    24    34    1
    36    24    35    1
    37    25    36    1
    38    25    37    1
    39    25    38    1
@<TRIPOS>SUBSTRUCTURE
     1 UNL1        1 TEMP              0 ****  ****    0 ROOT


