##########                                Name: HTS1710-05077824-01
##########                    Molecular_Weight:             345.332
##########                DOCK_Rotatable_Bonds:                   7
##########                       Formal_Charge:                  -2
##########                     HBond_Acceptors:                   8
##########                        HBond_Donors:                   1
##########                         Heavy_Atoms:                  24
##########                          Grid_Score:          -76.255829
##########                     Grid_vdw_energy:          -40.882935
##########                      Grid_es_energy:          -35.372890
##########           Internal_energy_repulsive:            4.837789

@<TRIPOS>MOLECULE
HTS1710-05077824-01
 35 36 1 0 0
SMALL
USER_CHARGES


@<TRIPOS>ATOM
      1 O           3.8272  -10.0095  -30.6671 O.co2   1  UNL1       -0.5446
      2 C           4.7648   -9.3103  -31.0118 C.2     1  UNL1        0.0717
      3 O           5.5269   -8.7410  -30.2490 O.co2   1  UNL1       -0.5446
      4 C           4.9986   -9.1326  -32.4988 C.ar    1  UNL1       -0.0003
      5 C           4.3925  -10.0052  -33.4263 C.ar    1  UNL1       -0.0304
      6 C           4.6170   -9.8511  -34.8078 C.ar    1  UNL1        0.0492
      7 N           4.0411  -10.6984  -35.7349 N.pl3   1  UNL1       -0.2167
      8 S           2.6576  -10.4920  -36.7021 S.O2    1  UNL1        0.0656
      9 O           2.2948  -11.8439  -37.1382 O.2     1  UNL1       -0.1505
     10 O           2.9731   -9.3869  -37.6125 O.2     1  UNL1       -0.1505
     11 C           1.4344   -9.9079  -35.5311 C.2     1  UNL1        0.0729
     12 C           0.9185   -8.6553  -35.5472 C.2     1  UNL1       -0.0353
     13 C          -0.0951   -8.0652  -34.6307 C.ar    1  UNL1       -0.0237
     14 C          -1.2253   -7.3806  -35.1253 C.ar    1  UNL1       -0.0546
     15 C          -2.1662   -6.8289  -34.2394 C.ar    1  UNL1       -0.0612
     16 C          -1.9879   -6.9557  -32.8542 C.ar    1  UNL1       -0.0617
     17 C          -0.8679   -7.6351  -32.3532 C.ar    1  UNL1       -0.0612
     18 C           0.0738   -8.1878  -33.2373 C.ar    1  UNL1       -0.0546
     19 C           5.4489   -8.8174  -35.2662 C.ar    1  UNL1       -0.0304
     20 C           6.0608   -7.9273  -34.3611 C.ar    1  UNL1       -0.0003
     21 C           5.8273   -8.0952  -32.9787 C.ar    1  UNL1       -0.0439
     22 C           6.9539   -6.8126  -34.8674 C.2     1  UNL1        0.0717
     23 O           7.1451   -6.7427  -36.0691 O.co2   1  UNL1       -0.5446
     24 O           7.4289   -6.0524  -34.0407 O.co2   1  UNL1       -0.5446
     25 H           3.7789  -10.7635  -33.0895 H       1  UNL1        0.0643
     26 H           4.5054  -11.5582  -35.8545 H       1  UNL1        0.1737
     27 H           1.1044  -10.5617  -34.8039 H       1  UNL1        0.0838
     28 H           1.2731   -8.0313  -36.2888 H       1  UNL1        0.0637
     29 H          -1.3618   -7.2845  -36.1437 H       1  UNL1        0.0623
     30 H          -2.9902   -6.3294  -34.6089 H       1  UNL1        0.0618
     31 H          -2.6796   -6.5498  -32.2047 H       1  UNL1        0.0618
     32 H          -0.7354   -7.7291  -31.3341 H       1  UNL1        0.0618
     33 H           0.8955   -8.6875  -32.8631 H       1  UNL1        0.0623
     34 H           5.6144   -8.7078  -36.2790 H       1  UNL1        0.0643
     35 H           6.2701   -7.4483  -32.3075 H       1  UNL1        0.0630
@<TRIPOS>BOND
     1     1     2   ar
     2     2     3   ar
     3     2     4    1
     4     4     5   ar
     5     5     6   ar
     6     6     7    1
     7     7     8    1
     8     8     9    2
     9     8    10    2
    10     8    11    1
    11    11    12    2
    12    12    13    1
    13    13    14   ar
    14    14    15   ar
    15    15    16   ar
    16    16    17   ar
    17    17    18   ar
    18    13    18   ar
    19     6    19   ar
    20    19    20   ar
    21    20    21   ar
    22     4    21   ar
    23    20    22    1
    24    22    23   ar
    25    22    24   ar
    26     5    25    1
    27     7    26    1
    28    11    27    1
    29    12    28    1
    30    14    29    1
    31    15    30    1
    32    16    31    1
    33    17    32    1
    34    18    33    1
    35    19    34    1
    36    21    35    1
@<TRIPOS>SUBSTRUCTURE
     1 UNL1        1 TEMP              0 ****  ****    0 ROOT


