HTS1710-00177162-01
 OpenBabel03232612353D

 32 34  0  0  1  0  0  0  0  0999 V2000
    2.6000   -9.8621  -34.6577 C   0  0  0  0  0  0  0  0  0  0  0  0
    1.7709   -9.9295  -33.3271 C   0  0  2  0  0  0  0  0  0  0  0  0
    2.6221   -9.2767  -32.1902 C   0  0  0  0  0  0  0  0  0  0  0  0
    1.5379  -11.4332  -32.9773 C   0  0  0  0  0  0  0  0  0  0  0  0
    3.9688  -10.6059  -34.5230 C   0  0  1  0  0  0  0  0  0  0  0  0
    4.7749   -9.9372  -33.3550 C   0  0  0  0  0  0  0  0  0  0  0  0
    3.6945  -12.0926  -34.1344 C   0  0  0  0  0  0  0  0  0  0  0  0
    3.9961  -10.0078  -32.0012 C   0  0  2  0  0  0  0  0  0  0  0  0
    2.8912  -12.1718  -32.8088 C   0  0  1  0  0  0  0  0  0  0  0  0
    3.7067  -11.5060  -31.6689 C   0  0  0  0  0  0  0  0  0  0  0  0
    4.8494   -9.3756  -30.8655 C   0  0  0  0  0  0  0  0  0  0  0  0
    4.6501   -9.7430  -29.7193 O   0  5  0  0  0  0  0  0  0  0  0  0
    5.6811   -8.5441  -31.1892 O   0  0  0  0  0  0  0  0  0  0  0  0
    0.4015   -9.2025  -33.4485 C   0  0  0  0  0  0  0  0  0  0  0  0
   -0.2462   -9.3549  -34.4710 O   0  5  0  0  0  0  0  0  0  0  0  0
    0.0475   -8.5186  -32.5029 O   0  0  0  0  0  0  0  0  0  0  0  0
    4.7367  -10.5526  -35.8747 C   0  0  0  0  0  0  0  0  0  0  0  0
    4.5927   -9.5710  -36.5839 O   0  5  0  0  0  0  0  0  0  0  0  0
    5.4498  -11.5040  -36.1479 O   0  0  0  0  0  0  0  0  0  0  0  0
    2.7848   -8.8365  -34.8998 H   0  0  0  0  0  0  0  0  0  0  0  0
    2.0338  -10.3416  -35.4288 H   0  0  0  0  0  0  0  0  0  0  0  0
    2.8058   -8.2524  -32.4391 H   0  0  0  0  0  0  0  0  0  0  0  0
    2.0733   -9.3566  -31.2751 H   0  0  0  0  0  0  0  0  0  0  0  0
    0.9811  -11.8952  -33.7655 H   0  0  0  0  0  0  0  0  0  0  0  0
    0.9962  -11.4926  -32.0565 H   0  0  0  0  0  0  0  0  0  0  0  0
    5.7102  -10.4450  -33.2439 H   0  0  0  0  0  0  0  0  0  0  0  0
    4.9251   -8.9066  -33.6003 H   0  0  0  0  0  0  0  0  0  0  0  0
    3.1324  -12.5620  -34.9147 H   0  0  0  0  0  0  0  0  0  0  0  0
    4.6311  -12.5925  -34.0005 H   0  0  0  0  0  0  0  0  0  0  0  0
    2.7083  -13.1973  -32.5642 H   0  0  0  0  0  0  0  0  0  0  0  0
    3.1482  -11.5624  -30.7579 H   0  0  0  0  0  0  0  0  0  0  0  0
    4.6384  -12.0221  -31.5650 H   0  0  0  0  0  0  0  0  0  0  0  0
  1  2  1  0  0  0  0
  1  5  1  0  0  0  0
  1 20  1  0  0  0  0
  1 21  1  0  0  0  0
  2  4  1  0  0  0  0
  2 14  1  6  0  0  0
  2  3  1  0  0  0  0
  3  8  1  0  0  0  0
  3 22  1  0  0  0  0
  3 23  1  0  0  0  0
  4  9  1  0  0  0  0
  4 24  1  0  0  0  0
  4 25  1  0  0  0  0
  5  7  1  0  0  0  0
  5 17  1  6  0  0  0
  5  6  1  0  0  0  0
  6  8  1  0  0  0  0
  6 26  1  0  0  0  0
  6 27  1  0  0  0  0
  7  9  1  0  0  0  0
  7 28  1  0  0  0  0
  7 29  1  0  0  0  0
  8 10  1  0  0  0  0
  8 11  1  1  0  0  0
  9 10  1  0  0  0  0
  9 30  1  1  0  0  0
 10 31  1  0  0  0  0
 10 32  1  0  0  0  0
 11 12  1  0  0  0  0
 11 13  2  0  0  0  0
 14 15  1  0  0  0  0
 14 16  2  0  0  0  0
 17 18  1  0  0  0  0
 17 19  2  0  0  0  0
M  CHG  3  12  -1  15  -1  18  -1
M  END
$$$$
