HTS1710-00585550-01
 OpenBabel03232612353D

 29 30  0  0  1  0  0  0  0  0999 V2000
    5.1024   -9.5785  -33.1725 C   0  0  0  0  0  0  0  0  0  0  0  0
    5.2521   -9.7591  -34.5302 C   0  0  0  0  0  0  0  0  0  0  0  0
    5.6310   -8.2684  -32.8266 C   0  0  0  0  0  0  0  0  0  0  0  0
    4.5176  -10.5749  -32.3744 C   0  0  0  0  0  0  0  0  0  0  0  0
    5.8407   -8.6825  -35.1318 O   0  0  0  0  0  0  0  0  0  0  0  0
    4.8347  -10.9271  -35.1736 C   0  0  0  0  0  0  0  0  0  0  0  0
    6.0467   -7.8180  -34.0767 C   0  0  0  0  0  0  0  0  0  0  0  0
    5.7011   -7.6000  -31.5005 C   0  0  0  0  0  0  0  0  0  0  0  0
    4.0791  -11.7656  -32.9937 C   0  0  0  0  0  0  0  0  0  0  0  0
    4.2420  -11.9389  -34.3950 C   0  0  0  0  0  0  0  0  0  0  0  0
    6.6907   -6.4831  -34.3535 C   0  0  0  0  0  0  0  0  0  0  0  0
    6.0425   -8.2654  -30.5387 O   0  5  0  0  0  0  0  0  0  0  0  0
    5.4131   -6.4182  -31.4466 O   0  0  0  0  0  0  0  0  0  0  0  0
    3.5037  -12.7371  -32.1945 O   0  0  0  0  0  0  0  0  0  0  0  0
    2.9802  -12.4791  -30.8718 C   0  0  2  0  0  0  0  0  0  0  0  0
    4.1090  -12.3823  -29.8270 C   0  0  0  0  0  0  0  0  0  0  0  0
    2.0135  -13.6295  -30.5232 C   0  0  0  0  0  0  0  0  0  0  0  0
    5.1749  -12.9163  -30.0834 O   0  5  0  0  0  0  0  0  0  0  0  0
    3.8808  -11.7111  -28.8360 O   0  0  0  0  0  0  0  0  0  0  0  0
    4.4105  -10.4398  -31.3569 H   0  0  0  0  0  0  0  0  0  0  0  0
    4.9577  -11.0447  -36.1915 H   0  0  0  0  0  0  0  0  0  0  0  0
    3.9238  -12.8118  -34.8443 H   0  0  0  0  0  0  0  0  0  0  0  0
    6.7799   -5.9338  -33.4396 H   0  0  0  0  0  0  0  0  0  0  0  0
    6.0866   -5.9318  -35.0434 H   0  0  0  0  0  0  0  0  0  0  0  0
    7.6627   -6.6363  -34.7738 H   0  0  0  0  0  0  0  0  0  0  0  0
    2.4695  -11.5388  -30.8598 H   0  0  0  0  0  0  0  0  0  0  0  0
    2.5438  -14.5587  -30.5410 H   0  0  0  0  0  0  0  0  0  0  0  0
    1.2198  -13.6581  -31.2403 H   0  0  0  0  0  0  0  0  0  0  0  0
    1.6064  -13.4698  -29.5467 H   0  0  0  0  0  0  0  0  0  0  0  0
  1  2  2  0  0  0  0
  1  3  1  0  0  0  0
  1  4  1  0  0  0  0
  2  5  1  0  0  0  0
  2  6  1  0  0  0  0
  3  7  2  0  0  0  0
  3  8  1  0  0  0  0
  4  9  2  0  0  0  0
  4 20  1  0  0  0  0
  5  7  1  0  0  0  0
  6 10  2  0  0  0  0
  6 21  1  0  0  0  0
  7 11  1  0  0  0  0
  8 12  1  0  0  0  0
  8 13  2  0  0  0  0
  9 14  1  0  0  0  0
  9 10  1  0  0  0  0
 10 22  1  0  0  0  0
 11 23  1  0  0  0  0
 11 24  1  0  0  0  0
 11 25  1  0  0  0  0
 14 15  1  0  0  0  0
 15 16  1  0  0  0  0
 15 17  1  0  0  0  0
 15 26  1  6  0  0  0
 16 18  1  0  0  0  0
 16 19  2  0  0  0  0
 17 27  1  0  0  0  0
 17 28  1  0  0  0  0
 17 29  1  0  0  0  0
M  CHG  2  12  -1  18  -1
M  END
$$$$
