##########                                Name: HTS1710-02591980-01
##########                    Molecular_Weight:             351.361
##########                DOCK_Rotatable_Bonds:                   8
##########                       Formal_Charge:                  -2
##########                     HBond_Acceptors:                   9
##########                        HBond_Donors:                   0
##########                         Heavy_Atoms:                  23
##########                          Grid_Score:          -77.780258
##########                     Grid_vdw_energy:          -37.043701
##########                      Grid_es_energy:          -40.736557
##########           Internal_energy_repulsive:           14.465461

@<TRIPOS>MOLECULE
HTS1710-02591980-01
 32 33 1 0 0
SMALL
USER_CHARGES


@<TRIPOS>ATOM
      1 N           2.4432  -10.6829  -32.2828 N.am    1  UNL1       -0.2463
      2 C           1.4690  -11.1758  -33.1431 C.2     1  UNL1        0.1211
      3 C           2.8508  -11.5919  -31.3036 C.2     1  UNL1        0.2588
      4 C           2.9646   -9.2907  -32.3806 C.3     1  UNL1        0.0765
      5 S           0.9628  -12.8518  -32.7871 S.3     1  UNL1       -0.0610
      6 C           2.1023  -12.8635  -31.4583 C.2     1  UNL1        0.0766
      7 C           4.5159   -9.2608  -32.4918 C.3     1  UNL1        0.0111
      8 C           2.3899   -8.4042  -31.2506 C.2     1  UNL1        0.0629
      9 S           0.7978  -10.3371  -34.4315 S.2     1  UNL1       -0.0272
     10 C           5.1769   -8.4894  -31.3412 C.2     1  UNL1        0.0439
     11 C           5.4023  -14.5760  -28.5286 C.ar    1  UNL1        0.1277
     12 C           2.2433  -13.9875  -30.6736 C.2     1  UNL1       -0.0428
     13 O           3.7099  -11.3654  -30.4692 O.2     1  UNL1       -0.2690
     14 C           3.1215  -14.2253  -29.5233 C.2     1  UNL1       -0.0571
     15 O           6.3693  -13.6299  -28.2870 O.2     1  UNL1       -0.4635
     16 C           4.4676  -14.3399  -29.6237 C.2     1  UNL1       -0.0193
     17 O           1.8719   -7.3420  -31.5532 O.co2   1  UNL1       -0.5479
     18 C           5.4576  -15.6465  -27.6700 C.ar    1  UNL1       -0.0165
     19 C           7.0384  -14.1727  -27.2201 C.ar    1  UNL1        0.0925
     20 C           6.5427  -15.3776  -26.8030 C.ar    1  UNL1       -0.0233
     21 O           5.4875   -7.3304  -31.5543 O.co2   1  UNL1       -0.5497
     22 O           2.4836   -8.8381  -30.1151 O.co2   1  UNL1       -0.5479
     23 O           5.3184   -9.0760  -30.2816 O.co2   1  UNL1       -0.5497
     24 H           2.6163   -8.8586  -33.2954 H       1  UNL1        0.0570
     25 H           4.7840   -8.7931  -33.4162 H       1  UNL1        0.0347
     26 H           4.8632  -10.2718  -32.4450 H       1  UNL1        0.0347
     27 H           1.6394  -14.7825  -30.9351 H       1  UNL1        0.0630
     28 H           2.6916  -14.3097  -28.5889 H       1  UNL1        0.0619
     29 H           4.8722  -14.2514  -30.5689 H       1  UNL1        0.0654
     30 H           4.8387  -16.4722  -27.6595 H       1  UNL1        0.0655
     31 H           7.8455  -13.7124  -26.7711 H       1  UNL1        0.1029
     32 H           6.8856  -15.9629  -26.0253 H       1  UNL1        0.0649
@<TRIPOS>BOND
     1     1     2    1
     2     1     3   am
     3     1     4    1
     4     2     5    1
     5     2     9    2
     6     3     6    1
     7     3    13    2
     8     4     7    1
     9     4     8    1
    10     5     6    1
    11     6    12    2
    12     7    10    1
    13     8    17   ar
    14     8    22   ar
    15    10    21   ar
    16    10    23   ar
    17    11    15   ar
    18    11    16    1
    19    11    18   ar
    20    12    14    1
    21    14    16    2
    22    15    19   ar
    23    18    20   ar
    24    19    20   ar
    25     4    24    1
    26     7    25    1
    27     7    26    1
    28    12    27    1
    29    14    28    1
    30    16    29    1
    31    18    30    1
    32    19    31    1
    33    20    32    1
@<TRIPOS>SUBSTRUCTURE
     1 UNL1        1 TEMP              0 ****  ****    0 ROOT


