##########                                Name: HTS1710-04750149-01
##########                    Molecular_Weight:              291.26
##########                DOCK_Rotatable_Bonds:                   6
##########                       Formal_Charge:                  -2
##########                     HBond_Acceptors:                   7
##########                        HBond_Donors:                   1
##########                         Heavy_Atoms:                  21
##########                          Grid_Score:          -75.029205
##########                     Grid_vdw_energy:          -34.332703
##########                      Grid_es_energy:          -40.696507
##########           Internal_energy_repulsive:           10.200940

@<TRIPOS>MOLECULE
HTS1710-04750149-01
 34 35 1 0 0
SMALL
USER_CHARGES


@<TRIPOS>ATOM
      1 O           5.1699   -9.5722  -30.5283 O.co2   1  UNL1       -0.5475
      2 C           4.1173   -9.7488  -29.9403 C.2     1  UNL1        0.0664
      3 OXT         3.7213   -9.0900  -28.9921 O.co2   1  UNL1       -0.5475
      4 CA          3.2243  -10.8941  -30.4480 C.3     1  UNL1        0.0879
      5 N           3.4429  -11.1341  -31.8821 N.am    1  UNL1       -0.3012
      6 C           2.4196  -11.4939  -32.7480 C.2     1  UNL1        0.2427
      7 O           1.2813  -11.6227  -32.3272 O.2     1  UNL1       -0.2729
      8 C           2.7751  -11.7167  -34.2242 C.3     1  UNL1        0.1352
      9 C           4.1794  -12.3172  -34.4373 C.3     1  UNL1       -0.0153
     10 C           4.6719  -11.6832  -35.7505 C.3     1  UNL1       -0.0185
     11 C           3.5266  -10.7443  -36.1841 C.3     1  UNL1        0.0988
     12 O           2.8359  -10.4767  -34.9496 O.3     1  UNL1       -0.3584
     13 C           4.0322   -9.4569  -36.8562 C.2     1  UNL1        0.0704
     14 O           4.9601   -8.8849  -36.3115 O.co2   1  UNL1       -0.5471
     15 O           3.5253   -9.1254  -37.9153 O.co2   1  UNL1       -0.5471
     16 C           3.4673  -12.1844  -29.6650 C.ar    1  UNL1       -0.0217
     17 C           2.7614  -13.3548  -30.0017 C.ar    1  UNL1       -0.0564
     18 C           2.9778  -14.5441  -29.2880 C.ar    1  UNL1       -0.0614
     19 C           3.9022  -14.5727  -28.2326 C.ar    1  UNL1       -0.0617
     20 C           4.6123  -13.4116  -27.8921 C.ar    1  UNL1       -0.0614
     21 C           4.3980  -12.2220  -28.6070 C.ar    1  UNL1       -0.0564
     22 H           2.2087  -10.5935  -30.2958 H       1  UNL1        0.0611
     23 H           4.3534  -11.0355  -32.2434 H       1  UNL1        0.1497
     24 H           2.0050  -12.3767  -34.5651 H       1  UNL1        0.0693
     25 H           4.1260  -13.3821  -34.5277 H       1  UNL1        0.0296
     26 H           4.8367  -12.1184  -33.6167 H       1  UNL1        0.0296
     27 H           4.8444  -12.4355  -36.4916 H       1  UNL1        0.0295
     28 H           5.5982  -11.1622  -35.6267 H       1  UNL1        0.0295
     29 H           2.8982  -11.1850  -36.9297 H       1  UNL1        0.0658
     30 H           2.0810  -13.3384  -30.7775 H       1  UNL1        0.0621
     31 H           2.4564  -15.3984  -29.5398 H       1  UNL1        0.0618
     32 H           4.0596  -15.4470  -27.7073 H       1  UNL1        0.0618
     33 H           5.2923  -13.4318  -27.1161 H       1  UNL1        0.0618
     34 H           4.9247  -11.3706  -28.3565 H       1  UNL1        0.0621
@<TRIPOS>BOND
     1     1     2   ar
     2     2     3   ar
     3     2     4    1
     4     4     5    1
     5     5     6   am
     6     6     7    2
     7     6     8    1
     8     8     9    1
     9     9    10    1
    10    10    11    1
    11    11    12    1
    12     8    12    1
    13    11    13    1
    14    13    14   ar
    15    13    15   ar
    16     4    16    1
    17    16    17   ar
    18    17    18   ar
    19    18    19   ar
    20    19    20   ar
    21    20    21   ar
    22    16    21   ar
    23     4    22    1
    24     5    23    1
    25     8    24    1
    26     9    25    1
    27     9    26    1
    28    10    27    1
    29    10    28    1
    30    11    29    1
    31    17    30    1
    32    18    31    1
    33    19    32    1
    34    20    33    1
    35    21    34    1
@<TRIPOS>SUBSTRUCTURE
     1 UNL1        1 TEMP              0 ****  ****    0 ROOT


