##########                                Name: HTS1710-00350404-01
##########                    Molecular_Weight:             363.348
##########                DOCK_Rotatable_Bonds:                   6
##########                       Formal_Charge:                  -2
##########                     HBond_Acceptors:                   9
##########                        HBond_Donors:                   2
##########                         Heavy_Atoms:                  25
##########                          Grid_Score:          -76.944778
##########                     Grid_vdw_energy:          -38.507782
##########                      Grid_es_energy:          -38.437000
##########           Internal_energy_repulsive:           14.319492

@<TRIPOS>MOLECULE
HTS1710-00350404-01
 38 39 1 0 0
SMALL
USER_CHARGES


@<TRIPOS>ATOM
      1 C           2.8162  -14.2402  -27.8590 C.3     1  UNL1       -0.0391
      2 C           2.5168  -13.7574  -29.2764 C.ar    1  UNL1       -0.0415
      3 C           2.0916  -14.6927  -30.2382 C.ar    1  UNL1       -0.0564
      4 C           1.7804  -14.2873  -31.5437 C.ar    1  UNL1       -0.0390
      5 C           1.8838  -12.9363  -31.9079 C.ar    1  UNL1        0.0487
      6 N           1.5648  -12.5677  -33.2007 N.pl3   1  UNL1       -0.2162
      7 S           1.2990  -11.0263  -33.8674 S.O2    1  UNL1        0.0726
      8 O           0.3659  -10.3675  -32.9472 O.2     1  UNL1       -0.1500
      9 O           0.9936  -11.2811  -35.2785 O.2     1  UNL1       -0.1500
     10 C           2.9271  -10.2266  -33.7441 C.ar    1  UNL1        0.1122
     11 C           3.0885   -9.1857  -32.8074 C.ar    1  UNL1       -0.0225
     12 C           4.3157   -8.5002  -32.6502 C.ar    1  UNL1        0.0406
     13 C           4.4005   -7.3781  -31.6163 C.2     1  UNL1        0.0752
     14 O           3.4656   -7.2614  -30.8425 O.co2   1  UNL1       -0.5445
     15 O           5.3827   -6.6574  -31.6089 O.co2   1  UNL1       -0.5445
     16 C           5.4053   -8.8946  -33.4724 C.ar    1  UNL1        0.1260
     17 O           6.6327   -8.2959  -33.3989 O.3     1  UNL1       -0.5061
     18 C           5.2487   -9.9367  -34.3998 C.ar    1  UNL1       -0.0148
     19 C           4.0263  -10.6134  -34.5481 C.ar    1  UNL1       -0.0204
     20 C           3.9458  -11.7413  -35.5762 C.3     1  UNL1       -0.0377
     21 C           2.3111  -11.9939  -30.9530 C.ar    1  UNL1       -0.0302
     22 C           2.6392  -12.3934  -29.6414 C.ar    1  UNL1        0.0020
     23 C           3.1093  -11.3458  -28.6679 C.2     1  UNL1        0.0720
     24 O           2.4301  -11.1746  -27.6707 O.co2   1  UNL1       -0.5446
     25 O           4.1233  -10.7296  -28.9495 O.co2   1  UNL1       -0.5446
     26 H           2.6611  -15.2974  -27.8021 H       1  UNL1        0.0278
     27 H           2.1644  -13.7465  -27.1688 H       1  UNL1        0.0278
     28 H           3.8329  -14.0151  -27.6128 H       1  UNL1        0.0278
     29 H           2.0080  -15.6883  -29.9796 H       1  UNL1        0.0621
     30 H           1.4742  -14.9852  -32.2395 H       1  UNL1        0.0637
     31 H           1.4777  -13.3150  -33.8357 H       1  UNL1        0.1737
     32 H           2.2859   -8.9153  -32.2178 H       1  UNL1        0.0645
     33 H           7.3484   -8.6312  -33.9021 H       1  UNL1        0.2922
     34 H           6.0511  -10.2126  -34.9870 H       1  UNL1        0.0657
     35 H           4.8939  -11.8516  -36.0597 H       1  UNL1        0.0278
     36 H           3.1987  -11.5066  -36.3054 H       1  UNL1        0.0278
     37 H           3.6883  -12.6554  -35.0833 H       1  UNL1        0.0278
     38 H           2.3850  -10.9988  -31.2163 H       1  UNL1        0.0643
@<TRIPOS>BOND
     1     1     2    1
     2     2     3   ar
     3     3     4   ar
     4     4     5   ar
     5     5     6    1
     6     6     7    1
     7     7     8    2
     8     7     9    2
     9     7    10    1
    10    10    11   ar
    11    11    12   ar
    12    12    13    1
    13    13    14   ar
    14    13    15   ar
    15    12    16   ar
    16    16    17    1
    17    16    18   ar
    18    18    19   ar
    19    10    19   ar
    20    19    20    1
    21     5    21   ar
    22    21    22   ar
    23     2    22   ar
    24    22    23    1
    25    23    24   ar
    26    23    25   ar
    27     1    26    1
    28     1    27    1
    29     1    28    1
    30     3    29    1
    31     4    30    1
    32     6    31    1
    33    11    32    1
    34    17    33    1
    35    18    34    1
    36    20    35    1
    37    20    36    1
    38    20    37    1
    39    21    38    1
@<TRIPOS>SUBSTRUCTURE
     1 UNL1        1 TEMP              0 ****  ****    0 ROOT


