##########                                Name: HTS1710-01055239-01
##########                    Molecular_Weight:             410.424
##########                DOCK_Rotatable_Bonds:                  16
##########                       Formal_Charge:                  -1
##########                     HBond_Acceptors:                  10
##########                        HBond_Donors:                   5
##########                         Heavy_Atoms:                  29
##########                          Grid_Score:          -76.154526
##########                     Grid_vdw_energy:          -52.657822
##########                      Grid_es_energy:          -23.496704
##########           Internal_energy_repulsive:           10.440771

@<TRIPOS>MOLECULE
HTS1710-01055239-01
 55 56 1 0 0
SMALL
USER_CHARGES


@<TRIPOS>ATOM
      1 C           4.1004  -10.5955  -32.2494 C.2     1  UNL1        0.1541
      2 C           3.9775  -10.0529  -30.9954 C.2     1  UNL1       -0.0020
      3 N           4.6832   -9.6767  -33.0614 N.2     1  UNL1       -0.2540
      4 O           4.5025   -8.7915  -30.9435 O.co2   1  UNL1       -0.7561
      5 C           4.9000   -8.6499  -32.2556 C.2     1  UNL1        0.0110
      6 N           3.4100  -10.5814  -29.8483 N.pl3   1  UNL1       -0.3395
      7 C           3.7407  -11.9629  -32.7033 C.2     1  UNL1        0.3583
      8 C           3.6229  -14.2265  -28.7564 C.3     1  UNL1        0.1108
      9 C           4.2946  -14.6943  -27.4245 C.3     1  UNL1        0.1114
     10 C           3.0421  -12.7797  -28.6717 C.3     1  UNL1        0.0991
     11 C           4.0640  -11.6949  -29.1227 C.3     1  UNL1        0.0395
     12 C           5.5333   -7.3770  -32.6352 C.ar    1  UNL1       -0.0133
     13 C           5.6268  -15.4817  -27.6370 C.3     1  UNL1        0.1065
     14 O           4.5457  -12.6993  -33.2513 O.2     1  UNL1       -0.2432
     15 O           2.5923  -15.1362  -29.1498 O.3     1  UNL1       -0.3865
     16 O           3.3752  -15.4449  -26.6271 O.3     1  UNL1       -0.3865
     17 O           2.5933  -12.4981  -27.3453 O.3     1  UNL1       -0.3876
     18 O           2.4559  -12.3421  -32.4314 O.3     1  UNL1       -0.4604
     19 O           5.5252  -16.8225  -27.1536 O.3     1  UNL1       -0.3869
     20 C           2.5067   -9.7589  -29.0224 C.3     1  UNL1       -0.0002
     21 O           7.0897  -13.5234  -27.5750 O.3     1  UNL1       -0.3924
     22 C           6.8239  -14.7779  -26.9515 C.3     1  UNL1        0.0727
     23 C           5.3297   -6.2107  -31.8660 C.ar    1  UNL1       -0.0537
     24 C           6.3583   -7.3016  -33.7775 C.ar    1  UNL1       -0.0537
     25 C           2.1172  -13.7403  -32.3648 C.3     1  UNL1        0.0900
     26 C           0.5832  -13.8583  -32.3020 C.3     1  UNL1       -0.0306
     27 C           6.9614   -6.0873  -34.1454 C.ar    1  UNL1       -0.0612
     28 C           5.9348   -4.9985  -32.2351 C.ar    1  UNL1       -0.0612
     29 C           6.7492   -4.9356  -33.3748 C.ar    1  UNL1       -0.0617
     30 H           4.3980  -14.2161  -29.4941 H       1  UNL1        0.0646
     31 H           4.5632  -13.8021  -26.8984 H       1  UNL1        0.0647
     32 H           2.2148  -12.7416  -29.3492 H       1  UNL1        0.0636
     33 H           4.7874  -12.1491  -29.7671 H       1  UNL1        0.0489
     34 H           4.5248  -11.2912  -28.2455 H       1  UNL1        0.0489
     35 H           5.8005  -15.5050  -28.6926 H       1  UNL1        0.0643
     36 H           2.9198  -16.0464  -29.0780 H       1  UNL1        0.2100
     37 H           3.0373  -16.1942  -27.1422 H       1  UNL1        0.2100
     38 H           1.9316  -13.1564  -27.0813 H       1  UNL1        0.2100
     39 H           4.7307  -17.2397  -27.5219 H       1  UNL1        0.2100
     40 H           2.0809   -8.9831  -29.6239 H       1  UNL1        0.0427
     41 H           3.0588   -9.3226  -28.2162 H       1  UNL1        0.0427
     42 H           1.7252  -10.3740  -28.6277 H       1  UNL1        0.0427
     43 H           6.2847  -12.9823  -27.5689 H       1  UNL1        0.2095
     44 H           6.5931  -14.6161  -25.9193 H       1  UNL1        0.0584
     45 H           7.6896  -15.4000  -27.0430 H       1  UNL1        0.0584
     46 H           4.7315   -6.2494  -31.0259 H       1  UNL1        0.0624
     47 H           6.5201   -8.1462  -34.3479 H       1  UNL1        0.0624
     48 H           2.5507  -14.1772  -31.4895 H       1  UNL1        0.0695
     49 H           2.4937  -14.2543  -33.2243 H       1  UNL1        0.0695
     50 H           0.2207  -13.3404  -31.4388 H       1  UNL1        0.0262
     51 H           0.3071  -14.8902  -32.2410 H       1  UNL1        0.0262
     52 H           0.1559  -13.4263  -33.1827 H       1  UNL1        0.0262
     53 H           7.5613   -6.0431  -34.9840 H       1  UNL1        0.0618
     54 H           5.7796   -4.1517  -31.6661 H       1  UNL1        0.0618
     55 H           7.1915   -4.0434  -33.6457 H       1  UNL1        0.0618
@<TRIPOS>BOND
     1     1     2    2
     2     1     3    1
     3     2     4    1
     4     3     5    2
     5     2     6    1
     6     1     7    1
     7     8    10    1
     8     8     9    1
     9    10    11    1
    10     6    11    1
    11     5    12    1
    12     9    13    1
    13     7    14    2
    14     8    15    1
    15     9    16    1
    16    10    17    1
    17     7    18    1
    18    13    19    1
    19     6    20    1
    20    21    22    1
    21    13    22    1
    22    12    23   ar
    23    12    24   ar
    24    18    25    1
    25    25    26    1
    26    24    27   ar
    27    23    28   ar
    28    27    29   ar
    29     4     5    1
    30    28    29   ar
    31     8    30    1
    32     9    31    1
    33    10    32    1
    34    11    33    1
    35    11    34    1
    36    13    35    1
    37    15    36    1
    38    16    37    1
    39    17    38    1
    40    19    39    1
    41    20    40    1
    42    20    41    1
    43    20    42    1
    44    21    43    1
    45    22    44    1
    46    22    45    1
    47    23    46    1
    48    24    47    1
    49    25    48    1
    50    25    49    1
    51    26    50    1
    52    26    51    1
    53    26    52    1
    54    27    53    1
    55    28    54    1
    56    29    55    1
@<TRIPOS>SUBSTRUCTURE
     1 UNL1        1 TEMP              0 ****  ****    0 ROOT


