##########                                Name: HTS1710-04286976-01
##########                    Molecular_Weight:             309.342
##########                DOCK_Rotatable_Bonds:                  10
##########                       Formal_Charge:                  -2
##########                     HBond_Acceptors:                   7
##########                        HBond_Donors:                   2
##########                         Heavy_Atoms:                  22
##########                          Grid_Score:          -76.822388
##########                     Grid_vdw_energy:          -36.333763
##########                      Grid_es_energy:          -40.488628
##########           Internal_energy_repulsive:            8.822855

@<TRIPOS>MOLECULE
HTS1710-04286976-01
 43 43 1 0 0
SMALL
USER_CHARGES


@<TRIPOS>ATOM
      1 C           3.5257   -7.8399  -30.6198 C.2     1  UNL1       -0.0144
      2 C           4.7899   -8.2521  -30.9952 C.2     1  UNL1       -0.1120
      3 O           5.1334   -9.5247  -30.6140 O.co2   1  UNL1       -0.7845
      4 C           2.9978   -8.9571  -29.9211 C.2     1  UNL1       -0.0630
      5 C           2.8277   -6.5549  -30.8646 C.2     1  UNL1        0.0708
      6 C           3.9912   -9.8980  -29.9598 C.2     1  UNL1       -0.1000
      7 C           3.3972  -12.5549  -31.5044 C.2     1  UNL1        0.2304
      8 C           4.3683  -11.9542  -34.3864 C.2     1  UNL1        0.2134
      9 N           4.2352  -12.2491  -30.4417 N.am    1  UNL1       -0.3110
     10 N           3.6589  -13.0383  -33.8856 N.am    1  UNL1       -0.3067
     11 O           2.4395   -5.9116  -29.9057 O.co2   1  UNL1       -0.5447
     12 O           5.2084  -11.4039  -33.6917 O.2     1  UNL1       -0.2758
     13 O           2.3175  -11.9988  -31.6161 O.2     1  UNL1       -0.2741
     14 C           3.8568  -11.2894  -29.4011 C.3     1  UNL1        0.0240
     15 C           3.8881  -13.5699  -32.5359 C.3     1  UNL1        0.0881
     16 O           2.6850   -6.2167  -32.0264 O.co2   1  UNL1       -0.5447
     17 C           4.0437  -11.4855  -35.8107 C.3     1  UNL1        0.0242
     18 C           5.7859   -7.4316  -31.7722 C.3     1  UNL1       -0.0524
     19 C           3.1403  -10.2235  -35.8476 C.3     1  UNL1       -0.0424
     20 C           1.7751  -10.4084  -35.1239 C.3     1  UNL1       -0.0463
     21 C           0.9180  -11.5320  -35.7629 C.3     1  UNL1       -0.0627
     22 C           0.9878   -9.0757  -35.1083 C.3     1  UNL1       -0.0627
     23 H           2.0685   -9.0415  -29.4805 H       1  UNL1        0.0615
     24 H           5.1129  -12.6915  -30.3850 H       1  UNL1        0.1490
     25 H           2.9788  -13.4652  -34.4553 H       1  UNL1        0.1492
     26 H           4.5020  -11.4021  -28.5549 H       1  UNL1        0.0500
     27 H           2.8472  -11.4636  -29.0925 H       1  UNL1        0.0500
     28 H           4.9338  -13.7467  -32.3940 H       1  UNL1        0.0558
     29 H           3.3540  -14.4893  -32.4169 H       1  UNL1        0.0558
     30 H           3.5411  -12.2788  -36.3237 H       1  UNL1        0.0358
     31 H           4.9702  -11.2275  -36.2798 H       1  UNL1        0.0358
     32 H           5.3654   -6.4720  -31.9892 H       1  UNL1        0.0266
     33 H           6.0237   -7.9322  -32.6875 H       1  UNL1        0.0266
     34 H           6.6762   -7.3079  -31.1917 H       1  UNL1        0.0266
     35 H           2.9491   -9.9750  -36.8706 H       1  UNL1        0.0272
     36 H           3.6656   -9.4484  -35.3296 H       1  UNL1        0.0272
     37 H           1.9886  -10.7045  -34.1181 H       1  UNL1        0.0296
     38 H           0.6834  -11.2707  -36.7737 H       1  UNL1        0.0232
     39 H           0.0122  -11.6501  -35.2057 H       1  UNL1        0.0232
     40 H           1.4669  -12.4504  -35.7501 H       1  UNL1        0.0232
     41 H           0.7727   -8.7767  -36.1129 H       1  UNL1        0.0232
     42 H           1.5749   -8.3203  -34.6292 H       1  UNL1        0.0232
     43 H           0.0717   -9.2090  -34.5719 H       1  UNL1        0.0232
@<TRIPOS>BOND
     1     1     2    2
     2     2     3    1
     3     1     4    1
     4     1     5    1
     5     4     6    2
     6     7     9   am
     7     8    10   am
     8     9    14    1
     9    10    15    1
    10     5    11   ar
    11     8    12    2
    12     7    13    2
    13     6    14    1
    14     7    15    1
    15     5    16   ar
    16     8    17    1
    17     2    18    1
    18    17    19    1
    19    19    20    1
    20    20    21    1
    21    20    22    1
    22     3     6    1
    23     4    23    1
    24     9    24    1
    25    10    25    1
    26    14    26    1
    27    14    27    1
    28    15    28    1
    29    15    29    1
    30    17    30    1
    31    17    31    1
    32    18    32    1
    33    18    33    1
    34    18    34    1
    35    19    35    1
    36    19    36    1
    37    20    37    1
    38    21    38    1
    39    21    39    1
    40    21    40    1
    41    22    41    1
    42    22    42    1
    43    22    43    1
@<TRIPOS>SUBSTRUCTURE
     1 UNL1        1 TEMP              0 ****  ****    0 ROOT


