HTS1710-04601346-01
 OpenBabel03232612353D

 52 54  0  0  1  0  0  0  0  0999 V2000
    3.0692  -11.7079  -33.0532 N   0  0  0  0  0  0  0  0  0  0  0  0
    3.5036  -12.7258  -32.2083 C   0  0  0  0  0  0  0  0  0  0  0  0
   -1.0766   -7.6390  -33.3398 C   0  0  0  0  0  0  0  0  0  0  0  0
    5.7058   -8.5301  -33.1754 C   0  0  0  0  0  0  0  0  0  0  0  0
    0.1862   -8.2725  -32.9192 C   0  0  0  0  0  0  0  0  0  0  0  0
    3.1546  -11.7747  -34.5226 C   0  0  1  0  0  0  0  0  0  0  0  0
    5.5008   -9.3676  -34.3697 C   0  0  0  0  0  0  0  0  0  0  0  0
    3.2356  -12.4161  -30.8973 O   0  0  0  0  0  0  0  0  0  0  0  0
    2.0059   -9.6946  -33.8762 C   0  0  2  0  0  0  0  0  0  0  0  0
    0.6346   -9.2208  -33.8066 O   0  0  0  0  0  0  0  0  0  0  0  0
    2.2253  -10.6588  -35.0642 C   0  0  0  0  0  0  0  0  0  0  0  0
    2.4129  -10.4694  -32.6050 C   0  0  0  0  0  0  0  0  0  0  0  0
   -1.8341   -6.7309  -32.6430 C   0  0  0  0  0  0  0  0  0  0  0  0
    5.4520   -8.8681  -31.8702 C   0  0  0  0  0  0  0  0  0  0  0  0
    5.3187  -10.6927  -34.0786 O   0  0  0  0  0  0  0  0  0  0  0  0
    4.0535  -13.7427  -32.5996 O   0  0  0  0  0  0  0  0  0  0  0  0
   -1.7737   -7.8356  -34.5569 C   0  0  0  0  0  0  0  0  0  0  0  0
    6.2065   -7.2051  -33.1147 C   0  0  0  0  0  0  0  0  0  0  0  0
   -2.9655   -6.3197  -33.2998 O   0  0  0  0  0  0  0  0  0  0  0  0
    5.7425   -7.8804  -30.9642 O   0  0  0  0  0  0  0  0  0  0  0  0
    4.6213  -11.5649  -34.9946 C   0  0  0  0  0  0  0  0  0  0  0  0
    0.7587   -7.9688  -31.8851 O   0  0  0  0  0  0  0  0  0  0  0  0
    5.4999   -8.9149  -35.5030 O   0  0  0  0  0  0  0  0  0  0  0  0
    6.2028   -6.8822  -31.7836 C   0  0  0  0  0  0  0  0  0  0  0  0
   -2.8780   -7.0295  -34.4696 C   0  0  0  0  0  0  0  0  0  0  0  0
    3.3500  -13.3502  -29.7924 C   0  0  0  0  0  0  0  0  0  0  0  0
    4.7834  -13.9494  -29.7666 C   0  0  0  0  0  0  0  0  0  0  0  0
    2.2561  -14.4470  -29.9212 C   0  0  0  0  0  0  0  0  0  0  0  0
    3.1066  -12.5107  -28.5120 C   0  0  0  0  0  0  0  0  0  0  0  0
    2.8505  -12.7329  -34.8891 H   0  0  0  0  0  0  0  0  0  0  0  0
    2.6002   -8.8121  -33.9898 H   0  0  0  0  0  0  0  0  0  0  0  0
    1.2931  -11.0723  -35.3878 H   0  0  0  0  0  0  0  0  0  0  0  0
    2.6534  -10.1593  -35.9081 H   0  0  0  0  0  0  0  0  0  0  0  0
    1.5462  -10.7020  -32.0221 H   0  0  0  0  0  0  0  0  0  0  0  0
    3.0700   -9.8863  -31.9941 H   0  0  0  0  0  0  0  0  0  0  0  0
   -1.5745   -6.3870  -31.7053 H   0  0  0  0  0  0  0  0  0  0  0  0
    5.0745   -9.7879  -31.5936 H   0  0  0  0  0  0  0  0  0  0  0  0
   -1.5075   -8.4525  -35.3401 H   0  0  0  0  0  0  0  0  0  0  0  0
    6.5086   -6.6119  -33.9032 H   0  0  0  0  0  0  0  0  0  0  0  0
    5.1199  -12.5110  -35.0310 H   0  0  0  0  0  0  0  0  0  0  0  0
    4.6153  -11.1182  -35.9668 H   0  0  0  0  0  0  0  0  0  0  0  0
    6.5192   -5.9665  -31.4282 H   0  0  0  0  0  0  0  0  0  0  0  0
   -3.5834   -6.9624  -35.2198 H   0  0  0  0  0  0  0  0  0  0  0  0
    4.9444  -14.5273  -30.6526 H   0  0  0  0  0  0  0  0  0  0  0  0
    4.8922  -14.5769  -28.9068 H   0  0  0  0  0  0  0  0  0  0  0  0
    5.5006  -13.1565  -29.7225 H   0  0  0  0  0  0  0  0  0  0  0  0
    2.4302  -15.0222  -30.8065 H   0  0  0  0  0  0  0  0  0  0  0  0
    1.2928  -13.9849  -29.9798 H   0  0  0  0  0  0  0  0  0  0  0  0
    2.2923  -15.0890  -29.0659 H   0  0  0  0  0  0  0  0  0  0  0  0
    3.8628  -11.7581  -28.4299 H   0  0  0  0  0  0  0  0  0  0  0  0
    3.1442  -13.1492  -27.6543 H   0  0  0  0  0  0  0  0  0  0  0  0
    2.1449  -12.0451  -28.5683 H   0  0  0  0  0  0  0  0  0  0  0  0
  1  2  1  0  0  0  0
  1  6  1  0  0  0  0
  1 12  1  0  0  0  0
  2  8  1  0  0  0  0
  2 16  2  0  0  0  0
  3  5  1  0  0  0  0
  3 13  2  0  0  0  0
  3 17  1  0  0  0  0
  4  7  1  0  0  0  0
  4 14  2  0  0  0  0
  4 18  1  0  0  0  0
  5 10  1  0  0  0  0
  5 22  2  0  0  0  0
  6 11  1  0  0  0  0
  6 21  1  0  0  0  0
  6 30  1  6  0  0  0
  7 15  1  0  0  0  0
  7 23  2  0  0  0  0
  8 26  1  0  0  0  0
  9 12  1  0  0  0  0
  9 10  1  0  0  0  0
  9 11  1  0  0  0  0
  9 31  1  6  0  0  0
 11 32  1  0  0  0  0
 11 33  1  0  0  0  0
 12 34  1  0  0  0  0
 12 35  1  0  0  0  0
 13 19  1  0  0  0  0
 13 36  1  0  0  0  0
 14 20  1  0  0  0  0
 14 37  1  0  0  0  0
 15 21  1  0  0  0  0
 17 25  2  0  0  0  0
 17 38  1  0  0  0  0
 18 24  2  0  0  0  0
 18 39  1  0  0  0  0
 19 25  1  0  0  0  0
 20 24  1  0  0  0  0
 21 40  1  0  0  0  0
 21 41  1  0  0  0  0
 24 42  1  0  0  0  0
 25 43  1  0  0  0  0
 26 27  1  0  0  0  0
 26 28  1  0  0  0  0
 26 29  1  0  0  0  0
 27 44  1  0  0  0  0
 27 45  1  0  0  0  0
 27 46  1  0  0  0  0
 28 47  1  0  0  0  0
 28 48  1  0  0  0  0
 28 49  1  0  0  0  0
 29 50  1  0  0  0  0
 29 51  1  0  0  0  0
 29 52  1  0  0  0  0
M  END
$$$$
