##########                                Name: HTS1710-00252831-01
##########                    Molecular_Weight:             368.367
##########                DOCK_Rotatable_Bonds:                   8
##########                       Formal_Charge:                  -2
##########                     HBond_Acceptors:                  10
##########                        HBond_Donors:                   1
##########                         Heavy_Atoms:                  25
##########                          Grid_Score:          -77.705643
##########                     Grid_vdw_energy:          -41.888218
##########                      Grid_es_energy:          -35.817425
##########           Internal_energy_repulsive:            6.668936

@<TRIPOS>MOLECULE
HTS1710-00252831-01
 41 42 1 0 0
SMALL
USER_CHARGES


@<TRIPOS>ATOM
      1 S           1.9806  -10.9835  -36.0300 S.O2    1  UNL1        0.0590
      2 N           2.9948  -11.0427  -34.6601 N.3     1  UNL1       -0.1814
      3 N          -1.7053   -6.2572  -35.1665 N.am    1  UNL1       -0.2714
      4 C           3.9660   -9.9549  -34.4117 C.3     1  UNL1        0.0683
      5 C          -3.0869   -6.2882  -35.0779 C.2     1  UNL1        0.2198
      6 C           5.0522   -9.8725  -35.5046 C.2     1  UNL1        0.0603
      7 C           0.8919   -9.5714  -35.7581 C.ar    1  UNL1        0.1054
      8 O           2.8670  -10.7172  -37.1674 O.2     1  UNL1       -0.1530
      9 O           1.1842  -12.2074  -35.9055 O.2     1  UNL1       -0.1530
     10 C          -0.8351   -7.3693  -35.3732 C.ar    1  UNL1        0.0364
     11 C           4.6674   -9.1241  -30.5670 C.2     1  UNL1        0.0418
     12 O          -3.7708   -7.2969  -35.0745 O.2     1  UNL1       -0.2753
     13 C           4.5656  -10.0620  -32.9776 C.3     1  UNL1       -0.0256
     14 O           5.7987  -10.8308  -35.6074 O.co2   1  UNL1       -0.5481
     15 O           4.3367   -9.8537  -29.6486 O.co2   1  UNL1       -0.5498
     16 C          -0.0169   -9.5647  -34.6862 C.ar    1  UNL1       -0.0336
     17 C           0.9388   -8.4739  -36.6354 C.ar    1  UNL1       -0.0336
     18 C          -0.8729   -8.4688  -34.4928 C.ar    1  UNL1       -0.0384
     19 C           0.0822   -7.3785  -36.4425 C.ar    1  UNL1       -0.0384
     20 C           3.8603   -9.2268  -31.8696 C.3     1  UNL1       -0.0114
     21 O           5.1245   -8.8531  -36.1705 O.co2   1  UNL1       -0.5481
     22 C          -1.1924   -4.8856  -35.1818 C.3     1  UNL1        0.0202
     23 O           5.5701   -8.3055  -30.5306 O.co2   1  UNL1       -0.5498
     24 C          -3.6361   -4.8704  -34.9824 C.3     1  UNL1        0.0259
     25 C          -2.4248   -3.9662  -35.2919 C.3     1  UNL1       -0.0285
     26 H           3.5319  -11.9071  -34.7285 H       1  UNL1        0.1487
     27 H           3.4329   -9.0288  -34.4661 H       1  UNL1        0.0538
     28 H           5.5857   -9.7428  -33.0265 H       1  UNL1        0.0288
     29 H           4.4351  -11.0843  -32.6901 H       1  UNL1        0.0288
     30 H          -0.0552  -10.3678  -34.0391 H       1  UNL1        0.0638
     31 H           1.6050   -8.4735  -37.4236 H       1  UNL1        0.0638
     32 H          -1.5342   -8.4685  -33.7005 H       1  UNL1        0.0637
     33 H           0.1247   -6.5747  -37.0883 H       1  UNL1        0.0637
     34 H           3.6963   -8.2381  -32.2444 H       1  UNL1        0.0325
     35 H           2.9462   -9.7299  -31.6326 H       1  UNL1        0.0325
     36 H          -0.5456   -4.7409  -36.0218 H       1  UNL1        0.0469
     37 H          -0.6244   -4.6720  -34.3005 H       1  UNL1        0.0469
     38 H          -4.0123   -4.6757  -33.9998 H       1  UNL1        0.0359
     39 H          -4.4514   -4.7034  -35.6550 H       1  UNL1        0.0359
     40 H          -2.5027   -3.5603  -36.2789 H       1  UNL1        0.0285
     41 H          -2.3646   -3.1360  -34.6196 H       1  UNL1        0.0285
@<TRIPOS>BOND
     1     1     2    1
     2     3    10    1
     3     2     4    1
     4     3     5   am
     5     4     6    1
     6     1     7    1
     7     1     8    2
     8     1     9    2
     9    10    19   ar
    10    11    20    1
    11     5    12    2
    12     4    13    1
    13     6    14   ar
    14    11    15   ar
    15     7    16   ar
    16     7    17   ar
    17    16    18   ar
    18    17    19   ar
    19    13    20    1
    20     6    21   ar
    21     3    22    1
    22    11    23   ar
    23     5    24    1
    24    22    25    1
    25    10    18   ar
    26    24    25    1
    27     2    26    1
    28     4    27    1
    29    13    28    1
    30    13    29    1
    31    16    30    1
    32    17    31    1
    33    18    32    1
    34    19    33    1
    35    20    34    1
    36    20    35    1
    37    22    36    1
    38    22    37    1
    39    24    38    1
    40    24    39    1
    41    25    40    1
    42    25    41    1
@<TRIPOS>SUBSTRUCTURE
     1 UNL1        1 TEMP              0 ****  ****    0 ROOT


