##########                                Name: HTS1710-01240407-01
##########                    Molecular_Weight:             260.203
##########                DOCK_Rotatable_Bonds:                   5
##########                       Formal_Charge:                  -3
##########                     HBond_Acceptors:                   6
##########                        HBond_Donors:                   0
##########                         Heavy_Atoms:                  19
##########                          Grid_Score:          -79.450256
##########                     Grid_vdw_energy:          -28.714016
##########                      Grid_es_energy:          -50.736240
##########           Internal_energy_repulsive:           12.202545

@<TRIPOS>MOLECULE
HTS1710-01240407-01
 27 28 1 0 0
SMALL
USER_CHARGES


@<TRIPOS>ATOM
      1 C           5.4281   -8.6429  -32.8554 C.2     1  UNL1       -0.0113
      2 C           4.9472   -9.1321  -34.0523 C.2     1  UNL1       -0.0711
      3 C           5.0830   -9.0077  -31.4600 C.2     1  UNL1        0.0709
      4 C          -2.0500   -7.3062  -33.5584 C.2     1  UNL1        0.0717
      5 C           6.3691   -7.6571  -33.2521 C.2     1  UNL1       -0.0676
      6 O           5.4785   -8.5541  -35.1765 O.co2   1  UNL1       -0.7854
      7 C           6.3490   -7.6530  -34.6228 C.2     1  UNL1       -0.1334
      8 C          -0.7421   -7.9513  -33.9627 C.ar    1  UNL1       -0.0025
      9 C           3.8944  -10.2000  -34.2132 C.3     1  UNL1        0.1025
     10 O           4.1760   -9.8083  -31.3063 O.co2   1  UNL1       -0.5447
     11 O          -2.2580   -7.1522  -32.3668 O.co2   1  UNL1       -0.5446
     12 C           0.0862   -8.5646  -32.9975 C.ar    1  UNL1       -0.0494
     13 C          -0.3259   -7.9527  -35.3108 C.ar    1  UNL1       -0.0494
     14 O           2.8868   -9.7454  -35.1358 O.3     1  UNL1       -0.4885
     15 O           5.7146   -8.5015  -30.5499 O.co2   1  UNL1       -0.5447
     16 C           1.7059   -9.1617  -34.7202 C.ar    1  UNL1        0.1210
     17 O          -2.8174   -6.9810  -34.4484 O.co2   1  UNL1       -0.5446
     18 C           0.8888   -8.5507  -35.6832 C.ar    1  UNL1       -0.0193
     19 C           1.2989   -9.1672  -33.3703 C.ar    1  UNL1       -0.0193
     20 H           6.9486   -7.0658  -32.6360 H       1  UNL1        0.0612
     21 H           6.9395   -7.0243  -35.1895 H       1  UNL1        0.0455
     22 H           3.4437  -10.4024  -33.2641 H       1  UNL1        0.0736
     23 H           4.3470  -11.0930  -34.5908 H       1  UNL1        0.0736
     24 H          -0.2028   -8.5702  -32.0068 H       1  UNL1        0.0625
     25 H          -0.9195   -7.5102  -36.0297 H       1  UNL1        0.0625
     26 H           1.1827   -8.5407  -36.6724 H       1  UNL1        0.0654
     27 H           1.8930   -9.6147  -32.6549 H       1  UNL1        0.0654
@<TRIPOS>BOND
     1     1     2    2
     2     1     3    1
     3     4     8    1
     4     1     5    1
     5     2     6    1
     6     5     7    2
     7     8    12   ar
     8     2     9    1
     9     3    10   ar
    10     4    11   ar
    11    12    19   ar
    12    13    18   ar
    13     9    14    1
    14     3    15   ar
    15    14    16    1
    16     4    17   ar
    17    16    18   ar
    18    16    19   ar
    19     6     7    1
    20     8    13   ar
    21     5    20    1
    22     7    21    1
    23     9    22    1
    24     9    23    1
    25    12    24    1
    26    13    25    1
    27    18    26    1
    28    19    27    1
@<TRIPOS>SUBSTRUCTURE
     1 UNL1        1 TEMP              0 ****  ****    0 ROOT


