HTS1710-02558743-01
 OpenBabel03232612343D

 31 32  0  0  0  0  0  0  0  0999 V2000
    1.9558  -11.6053  -34.7911 S   0  0  0  0  0  0  0  0  0  0  0  0
    4.0837   -9.8689  -31.7414 C   0  0  0  0  0  0  0  0  0  0  0  0
    2.5788  -11.1845  -33.1540 C   0  0  0  0  0  0  0  0  0  0  0  0
    3.5628  -10.5181  -30.5914 C   0  0  0  0  0  0  0  0  0  0  0  0
    3.5796  -10.2088  -33.0122 C   0  0  0  0  0  0  0  0  0  0  0  0
    5.1798   -8.8385  -31.6663 C   0  0  0  0  0  0  0  0  0  0  0  0
    4.0035  -10.1734  -29.1940 C   0  0  0  0  0  0  0  0  0  0  0  0
    1.1987  -10.0542  -35.3071 C   0  0  0  0  0  0  0  0  0  0  0  0
   -0.5993   -6.2996  -36.5459 C   0  0  0  0  0  0  0  0  0  0  0  0
    2.5751  -11.5098  -30.7473 C   0  0  0  0  0  0  0  0  0  0  0  0
    3.1061  -11.8610  -35.6642 O   0  0  0  0  0  0  0  0  0  0  0  0
    0.8866  -12.5954  -34.6259 O   0  0  0  0  0  0  0  0  0  0  0  0
    0.0302   -7.6056  -36.1124 C   0  0  0  0  0  0  0  0  0  0  0  0
    2.0869  -11.8453  -32.0173 C   0  0  0  0  0  0  0  0  0  0  0  0
    5.6535   -8.4398  -32.7163 O   0  5  0  0  0  0  0  0  0  0  0  0
    4.7815  -10.9417  -28.6550 O   0  5  0  0  0  0  0  0  0  0  0  0
   -0.2895   -5.8622  -37.6406 O   0  5  0  0  0  0  0  0  0  0  0  0
    0.2622   -9.4116  -34.4795 C   0  0  0  0  0  0  0  0  0  0  0  0
    1.5601   -9.4674  -36.5311 C   0  0  0  0  0  0  0  0  0  0  0  0
   -0.3197   -8.1980  -34.8805 C   0  0  0  0  0  0  0  0  0  0  0  0
    0.9796   -8.2538  -36.9315 C   0  0  0  0  0  0  0  0  0  0  0  0
    5.4987   -8.4522  -30.5541 O   0  0  0  0  0  0  0  0  0  0  0  0
    3.5299   -9.1709  -28.6878 O   0  0  0  0  0  0  0  0  0  0  0  0
   -1.3778   -5.7662  -35.7733 O   0  0  0  0  0  0  0  0  0  0  0  0
    3.9504   -9.7345  -33.8504 H   0  0  0  0  0  0  0  0  0  0  0  0
    2.2060  -11.9960  -29.9151 H   0  0  0  0  0  0  0  0  0  0  0  0
    1.3665  -12.5775  -32.1169 H   0  0  0  0  0  0  0  0  0  0  0  0
    0.0012   -9.8328  -33.5743 H   0  0  0  0  0  0  0  0  0  0  0  0
    2.2548   -9.9301  -37.1379 H   0  0  0  0  0  0  0  0  0  0  0  0
   -1.0097   -7.7351  -34.2684 H   0  0  0  0  0  0  0  0  0  0  0  0
    1.2494   -7.8313  -37.8335 H   0  0  0  0  0  0  0  0  0  0  0  0
  1  3  1  0  0  0  0
  1  8  1  0  0  0  0
  1 11  2  0  0  0  0
  1 12  2  0  0  0  0
  2  4  2  0  0  0  0
  2  5  1  0  0  0  0
  2  6  1  0  0  0  0
  3  5  2  0  0  0  0
  3 14  1  0  0  0  0
  4  7  1  0  0  0  0
  4 10  1  0  0  0  0
  5 25  1  0  0  0  0
  6 15  1  0  0  0  0
  6 22  2  0  0  0  0
  7 16  1  0  0  0  0
  7 23  2  0  0  0  0
  8 18  2  0  0  0  0
  8 19  1  0  0  0  0
  9 13  1  0  0  0  0
  9 17  1  0  0  0  0
  9 24  2  0  0  0  0
 10 14  2  0  0  0  0
 10 26  1  0  0  0  0
 13 20  2  0  0  0  0
 13 21  1  0  0  0  0
 14 27  1  0  0  0  0
 18 20  1  0  0  0  0
 18 28  1  0  0  0  0
 19 21  2  0  0  0  0
 19 29  1  0  0  0  0
 20 30  1  0  0  0  0
 21 31  1  0  0  0  0
M  CHG  3  15  -1  16  -1  17  -1
M  END
$$$$
