HTS1710-04740697-01
 OpenBabel03232612363D

 37 39  0  0  1  0  0  0  0  0999 V2000
    3.2611  -11.9661  -35.5415 C   0  0  0  0  0  0  0  0  0  0  0  0
    3.0469  -10.4437  -35.2852 C   0  0  1  0  0  0  0  0  0  0  0  0
    1.5813  -10.0308  -35.5619 C   0  0  0  0  0  0  0  0  0  0  0  0
    1.2267   -8.9844  -34.4901 C   0  0  0  0  0  0  0  0  0  0  0  0
    2.2400   -9.0829  -33.4228 N   0  0  0  0  0  0  0  0  0  0  0  0
    3.2330  -10.1095  -33.7841 C   0  0  0  0  0  0  0  0  0  0  0  0
    2.4195   -8.2376  -32.3178 C   0  0  0  0  0  0  0  0  0  0  0  0
    1.6874   -7.2777  -32.1396 O   0  0  0  0  0  0  0  0  0  0  0  0
    3.5317   -8.5563  -31.3697 C   0  0  0  0  0  0  0  0  0  0  0  0
    3.5584   -9.5383  -30.4264 C   0  0  0  0  0  0  0  0  0  0  0  0
    4.7874   -9.7252  -29.8885 O   0  0  0  0  0  0  0  0  0  0  0  0
    5.6545   -8.7894  -30.5304 N   0  0  0  0  0  0  0  0  0  0  0  0
    4.8941   -8.0901  -31.3683 C   0  0  0  0  0  0  0  0  0  0  0  0
    5.3481   -6.9370  -32.1744 C   0  0  0  0  0  0  0  0  0  0  0  0
    6.3905   -7.1288  -33.1064 C   0  0  0  0  0  0  0  0  0  0  0  0
    6.8836   -6.0580  -33.8703 C   0  0  0  0  0  0  0  0  0  0  0  0
    6.3584   -4.7711  -33.6919 C   0  0  0  0  0  0  0  0  0  0  0  0
    6.9774   -3.4328  -34.6386 Cl  0  0  0  0  0  0  0  0  0  0  0  0
    5.3552   -4.5524  -32.7378 C   0  0  0  0  0  0  0  0  0  0  0  0
    4.8620   -5.6241  -31.9763 C   0  0  0  0  0  0  0  0  0  0  0  0
    4.0080   -9.5658  -36.1417 C   0  0  0  0  0  0  0  0  0  0  0  0
    3.5991   -9.1403  -37.2097 O   0  5  0  0  0  0  0  0  0  0  0  0
    5.1282   -9.3645  -35.7025 O   0  0  0  0  0  0  0  0  0  0  0  0
    2.5827  -12.5288  -34.9348 H   0  0  0  0  0  0  0  0  0  0  0  0
    4.2671  -12.2317  -35.2921 H   0  0  0  0  0  0  0  0  0  0  0  0
    3.0803  -12.1829  -36.5737 H   0  0  0  0  0  0  0  0  0  0  0  0
    0.9343  -10.8793  -35.4816 H   0  0  0  0  0  0  0  0  0  0  0  0
    1.4647   -9.6358  -36.5494 H   0  0  0  0  0  0  0  0  0  0  0  0
    0.2546   -9.1853  -34.0908 H   0  0  0  0  0  0  0  0  0  0  0  0
    1.2176   -8.0009  -34.9117 H   0  0  0  0  0  0  0  0  0  0  0  0
    3.0785  -10.9885  -33.1940 H   0  0  0  0  0  0  0  0  0  0  0  0
    4.2242   -9.7498  -33.6022 H   0  0  0  0  0  0  0  0  0  0  0  0
    2.7274  -10.0842  -30.1497 H   0  0  0  0  0  0  0  0  0  0  0  0
    6.7965   -8.0697  -33.2285 H   0  0  0  0  0  0  0  0  0  0  0  0
    7.6321   -6.2189  -34.5623 H   0  0  0  0  0  0  0  0  0  0  0  0
    4.9785   -3.6023  -32.5947 H   0  0  0  0  0  0  0  0  0  0  0  0
    4.1361   -5.4514  -31.2634 H   0  0  0  0  0  0  0  0  0  0  0  0
  1  2  1  0  0  0  0
  1 24  1  0  0  0  0
  1 25  1  0  0  0  0
  1 26  1  0  0  0  0
  2  3  1  0  0  0  0
  2  6  1  0  0  0  0
  2 21  1  6  0  0  0
  3  4  1  0  0  0  0
  3 27  1  0  0  0  0
  3 28  1  0  0  0  0
  4  5  1  0  0  0  0
  4 29  1  0  0  0  0
  4 30  1  0  0  0  0
  5  6  1  0  0  0  0
  5  7  1  0  0  0  0
  6 31  1  0  0  0  0
  6 32  1  0  0  0  0
  7  8  2  0  0  0  0
  7  9  1  0  0  0  0
  9 10  2  0  0  0  0
  9 13  1  0  0  0  0
 10 11  1  0  0  0  0
 10 33  1  0  0  0  0
 11 12  1  0  0  0  0
 12 13  2  0  0  0  0
 13 14  1  0  0  0  0
 14 15  2  0  0  0  0
 14 20  1  0  0  0  0
 15 16  1  0  0  0  0
 15 34  1  0  0  0  0
 16 17  2  0  0  0  0
 16 35  1  0  0  0  0
 17 18  1  0  0  0  0
 17 19  1  0  0  0  0
 19 20  2  0  0  0  0
 19 36  1  0  0  0  0
 20 37  1  0  0  0  0
 21 22  1  0  0  0  0
 21 23  2  0  0  0  0
M  CHG  1  22  -1
M  END
$$$$
