##########                                Name: HTS1710-00000257-01
##########                    Molecular_Weight:             373.337
##########                DOCK_Rotatable_Bonds:                  10
##########                       Formal_Charge:                  -2
##########                     HBond_Acceptors:                  10
##########                        HBond_Donors:                   5
##########                         Heavy_Atoms:                  26
##########                          Grid_Score:          -76.254333
##########                     Grid_vdw_energy:          -40.937729
##########                      Grid_es_energy:          -35.316608
##########           Internal_energy_repulsive:            9.595859

@<TRIPOS>MOLECULE
HTS1710-00000257-01
 47 49 1 0 0
SMALL
USER_CHARGES


@<TRIPOS>ATOM
      1 C           2.9512   -8.9100  -31.6518 C.2     1  UNL1       -0.0351
      2 C           4.5278  -12.7573  -30.0844 C.3     1  UNL1        0.1873
      3 C           2.1262   -9.8407  -32.5622 C.3     1  UNL1       -0.0038
      4 C           4.1438  -11.4364  -32.0773 C.3     1  UNL1        0.0328
      5 C           4.6374  -12.3722  -28.5840 C.3     1  UNL1        0.1341
      6 C           3.3514  -12.7055  -27.7745 C.3     1  UNL1        0.1141
      7 O           4.0603  -14.1253  -30.2121 O.3     1  UNL1       -0.3406
      8 C           4.2673   -9.1411  -31.4332 C.2     1  UNL1       -0.1299
      9 C           2.9186  -11.1342  -32.9851 C.3     1  UNL1        0.0063
     10 O           3.6600  -11.8471  -30.7808 O.3     1  UNL1       -0.3557
     11 C           2.8173  -14.1463  -28.0580 C.3     1  UNL1        0.1119
     12 C           2.8249  -14.5504  -29.5693 C.3     1  UNL1        0.1130
     13 O           4.9227  -10.2312  -31.9258 O.co2   1  UNL1       -0.7866
     14 C           2.2629   -7.7284  -31.0240 C.2     1  UNL1        0.0669
     15 C           3.2715  -10.8677  -34.4324 C.2     1  UNL1       -0.0432
     16 C           1.7957   -9.1039  -33.8994 C.3     1  UNL1       -0.0270
     17 C           2.6699   -9.7869  -34.9091 C.2     1  UNL1       -0.0817
     18 O           2.9564   -6.9164  -30.4366 O.co2   1  UNL1       -0.5450
     19 O           5.7481  -13.0624  -28.0099 O.3     1  UNL1       -0.3841
     20 O           2.3434  -11.7270  -28.0151 O.3     1  UNL1       -0.3864
     21 O           3.6220  -15.0780  -27.3345 O.3     1  UNL1       -0.3865
     22 O           1.0505   -7.6526  -31.1331 O.co2   1  UNL1       -0.5450
     23 C           1.5466  -14.2087  -30.3993 C.3     1  UNL1        0.0730
     24 C           4.1813  -11.8073  -35.2023 C.3     1  UNL1        0.0656
     25 O           1.4796  -14.8481  -31.6653 O.3     1  UNL1       -0.3924
     26 O           5.4688  -11.2213  -35.3636 O.3     1  UNL1       -0.3907
     27 H           5.4977  -12.6875  -30.5309 H       1  UNL1        0.0937
     28 H           1.2558  -10.1082  -32.0003 H       1  UNL1        0.0358
     29 H           4.7471  -12.2066  -32.5106 H       1  UNL1        0.0483
     30 H           4.7714  -11.3118  -28.5347 H       1  UNL1        0.0671
     31 H           3.6160  -12.6803  -26.7381 H       1  UNL1        0.0648
     32 H           4.7991   -8.4611  -30.8678 H       1  UNL1        0.0457
     33 H           2.3419  -12.0280  -32.8696 H       1  UNL1        0.0368
     34 H           1.7941  -14.1591  -27.7456 H       1  UNL1        0.0647
     35 H           2.7898  -15.6198  -29.5598 H       1  UNL1        0.0647
     36 H           2.0343   -8.0631  -33.8303 H       1  UNL1        0.0313
     37 H           0.7569   -9.1505  -34.1521 H       1  UNL1        0.0313
     38 H           2.7908   -9.4495  -35.8768 H       1  UNL1        0.0573
     39 H           5.5024  -13.9851  -27.8393 H       1  UNL1        0.2101
     40 H           2.1625  -11.6762  -28.9667 H       1  UNL1        0.2100
     41 H           3.2548  -15.9701  -27.4365 H       1  UNL1        0.2100
     42 H           1.5233  -13.1506  -30.5573 H       1  UNL1        0.0584
     43 H           0.7113  -14.5650  -29.8333 H       1  UNL1        0.0584
     44 H           3.7572  -11.9997  -36.1656 H       1  UNL1        0.0604
     45 H           4.2798  -12.7229  -34.6575 H       1  UNL1        0.0604
     46 H           1.6313  -15.7998  -31.5552 H       1  UNL1        0.2095
     47 H           6.0294  -11.8124  -35.8900 H       1  UNL1        0.2098
@<TRIPOS>BOND
     1     2    10    1
     2     1     3    1
     3     4     9    1
     4     2     5    1
     5     5     6    1
     6     2     7    1
     7     1     8    2
     8     3     9    1
     9     4    10    1
    10    11    12    1
    11     7    12    1
    12     8    13    1
    13     1    14    1
    14     9    15    1
    15     3    16    1
    16    16    17    1
    17    14    18   ar
    18     5    19    1
    19     6    20    1
    20    11    21    1
    21    14    22   ar
    22    12    23    1
    23    15    24    1
    24    23    25    1
    25    24    26    1
    26     4    13    1
    27    15    17    2
    28     6    11    1
    29     2    27    1
    30     3    28    1
    31     4    29    1
    32     5    30    1
    33     6    31    1
    34     8    32    1
    35     9    33    1
    36    11    34    1
    37    12    35    1
    38    16    36    1
    39    16    37    1
    40    17    38    1
    41    19    39    1
    42    20    40    1
    43    21    41    1
    44    23    42    1
    45    23    43    1
    46    24    44    1
    47    24    45    1
    48    25    46    1
    49    26    47    1
@<TRIPOS>SUBSTRUCTURE
     1 UNL1        1 TEMP              0 ****  ****    0 ROOT


