##########                                Name: HTS1710-05464737-01
##########                    Molecular_Weight:              348.31
##########                DOCK_Rotatable_Bonds:                   9
##########                       Formal_Charge:                  -2
##########                     HBond_Acceptors:                  11
##########                        HBond_Donors:                   1
##########                         Heavy_Atoms:                  23
##########                          Grid_Score:          -76.448837
##########                     Grid_vdw_energy:          -41.048969
##########                      Grid_es_energy:          -35.399872
##########           Internal_energy_repulsive:            8.349754

@<TRIPOS>MOLECULE
HTS1710-05464737-01
 37 37 1 0 0
SMALL
USER_CHARGES


@<TRIPOS>ATOM
      1 C           1.2970  -15.5653  -25.6551 C.3     1  UNL1        0.0817
      2 O           2.5067  -15.4311  -26.4208 O.3     1  UNL1       -0.4679
      3 C           2.4669  -14.7790  -27.6231 C.2     1  UNL1        0.3087
      4 O           1.4806  -14.2196  -28.0737 O.2     1  UNL1       -0.2508
      5 C           3.8340  -14.7959  -28.3215 C.3     1  UNL1        0.0670
      6 C           4.6957  -13.5295  -28.0512 C.3     1  UNL1        0.0780
      7 N           4.8291  -12.6568  -29.2437 N.3     1  UNL1       -0.1819
      8 S           3.6337  -11.4828  -29.5653 S.O2    1  UNL1        0.0464
      9 O           3.7239  -10.6317  -28.3753 O.2     1  UNL1       -0.1541
     10 O           2.4033  -12.2037  -29.9105 O.2     1  UNL1       -0.1541
     11 C           4.2332  -10.5343  -30.9561 C.2     1  UNL1        0.0445
     12 C           4.0558  -10.8669  -32.2745 C.2     1  UNL1       -0.0360
     13 C           4.6771   -9.8333  -33.0204 C.2     1  UNL1        0.0489
     14 C           4.7365   -9.7545  -34.4989 C.2     1  UNL1        0.3381
     15 O           5.7680   -9.9592  -35.1177 O.2     1  UNL1       -0.2450
     16 O           3.5538   -9.4322  -35.1042 O.3     1  UNL1       -0.4645
     17 C           3.1840  -10.0791  -36.3361 C.3     1  UNL1        0.0820
     18 C           5.1692   -8.9834  -32.0521 C.2     1  UNL1       -0.1059
     19 C           5.9083   -7.6913  -32.2948 C.3     1  UNL1       -0.0522
     20 O           4.9351   -9.3733  -30.7613 O.co2   1  UNL1       -0.7695
     21 C           6.0912  -13.8942  -27.5120 C.2     1  UNL1        0.0608
     22 O           6.9961  -13.1185  -27.7696 O.co2   1  UNL1       -0.5481
     23 O           6.2149  -14.9419  -26.9006 O.co2   1  UNL1       -0.5481
     24 H           1.5048  -16.0967  -24.7500 H       1  UNL1        0.0661
     25 H           0.5711  -16.1049  -26.2268 H       1  UNL1        0.0661
     26 H           0.9147  -14.5942  -25.4189 H       1  UNL1        0.0661
     27 H           3.6724  -14.8745  -29.3763 H       1  UNL1        0.0397
     28 H           4.3748  -15.6298  -27.9254 H       1  UNL1        0.0397
     29 H           4.1678  -12.9769  -27.3023 H       1  UNL1        0.0544
     30 H           4.8682  -13.2707  -30.0573 H       1  UNL1        0.1487
     31 H           3.5704  -11.6979  -32.6470 H       1  UNL1        0.0633
     32 H           2.2356   -9.7072  -36.6634 H       1  UNL1        0.0661
     33 H           3.1179  -11.1353  -36.1784 H       1  UNL1        0.0661
     34 H           3.9237   -9.8754  -37.0820 H       1  UNL1        0.0661
     35 H           6.0096   -7.5307  -33.3478 H       1  UNL1        0.0266
     36 H           6.8787   -7.7460  -31.8474 H       1  UNL1        0.0266
     37 H           5.3609   -6.8805  -31.8614 H       1  UNL1        0.0266
@<TRIPOS>BOND
     1     1     2    1
     2     2     3    1
     3     3     4    2
     4     3     5    1
     5     5     6    1
     6     6     7    1
     7     7     8    1
     8     8     9    2
     9     8    10    2
    10     8    11    1
    11    11    12    2
    12    12    13    1
    13    13    14    1
    14    14    15    2
    15    14    16    1
    16    16    17    1
    17    13    18    2
    18    18    19    1
    19    18    20    1
    20    11    20    1
    21     6    21    1
    22    21    22   ar
    23    21    23   ar
    24     1    24    1
    25     1    25    1
    26     1    26    1
    27     5    27    1
    28     5    28    1
    29     6    29    1
    30     7    30    1
    31    12    31    1
    32    17    32    1
    33    17    33    1
    34    17    34    1
    35    19    35    1
    36    19    36    1
    37    19    37    1
@<TRIPOS>SUBSTRUCTURE
     1 UNL1        1 TEMP              0 ****  ****    0 ROOT


