##########                                Name: HTS1710-00479442-01
##########                    Molecular_Weight:             437.407
##########                DOCK_Rotatable_Bonds:                  11
##########                       Formal_Charge:                  -3
##########                     HBond_Acceptors:                  12
##########                        HBond_Donors:                   1
##########                         Heavy_Atoms:                  30
##########                          Grid_Score:         -102.345459
##########                     Grid_vdw_energy:          -48.405884
##########                      Grid_es_energy:          -53.939571
##########           Internal_energy_repulsive:           15.844943

@<TRIPOS>MOLECULE
HTS1710-00479442-01
 47 48 1 0 0
SMALL
USER_CHARGES


@<TRIPOS>ATOM
      1 C           2.0142  -11.7837  -32.5194 C.ar    1  UNL1        0.0049
      2 C           2.3013  -10.6037  -33.2489 C.ar    1  UNL1        0.0381
      3 C           2.3670  -11.8757  -31.1448 C.ar    1  UNL1        0.0077
      4 C           1.3756  -12.8765  -33.1503 C.ar    1  UNL1       -0.0522
      5 N           1.9566  -10.4689  -34.5939 N.pl3   1  UNL1       -0.3189
      6 C           2.9364   -9.5320  -32.6057 C.ar    1  UNL1       -0.0383
      7 C           3.0100  -10.7778  -30.5060 C.ar    1  UNL1        0.0844
      8 C           2.0623  -13.0699  -30.4463 C.ar    1  UNL1       -0.0522
      9 C           1.0852  -14.0466  -32.4386 C.ar    1  UNL1       -0.0611
     10 C           0.5957  -10.0687  -34.9898 C.3     1  UNL1        0.0527
     11 C           2.8886  -10.8593  -35.6716 C.3     1  UNL1        0.0518
     12 C           3.2870   -9.6160  -31.2554 C.ar    1  UNL1       -0.0355
     13 S           3.4866  -10.8107  -28.7457 S.3     1  UNL1       -0.0506
     14 C           1.4287  -14.1417  -31.0883 C.ar    1  UNL1       -0.0611
     15 C           0.5505   -8.5724  -35.3661 C.3     1  UNL1       -0.0151
     16 C           3.8149   -9.6961  -36.0330 C.2     1  UNL1        0.0589
     17 O           2.2330  -11.1819  -28.0803 O.co2   1  UNL1       -0.7201
     18 O           3.9568   -9.4524  -28.4591 O.2     1  UNL1       -0.1803
     19 O           4.5289  -11.8432  -28.7132 O.2     1  UNL1       -0.1803
     20 N          -0.7783   -7.9772  -35.1020 N.4     1  UNL1        0.2446
     21 O           3.6332   -9.1527  -37.1077 O.co2   1  UNL1       -0.5482
     22 O           4.6686   -9.3923  -35.2190 O.co2   1  UNL1       -0.5482
     23 C          -0.9500   -6.8365  -36.0246 C.3     1  UNL1        0.0091
     24 C          -0.9607   -7.5660  -33.6858 C.3     1  UNL1        0.0091
     25 C          -2.3687   -6.2860  -35.9446 C.2     1  UNL1        0.0863
     26 C           0.0814   -6.5480  -33.2108 C.2     1  UNL1        0.0863
     27 O          -3.2781   -7.0943  -35.9039 O.co2   1  UNL1       -0.5444
     28 O          -2.4871   -5.0749  -35.9208 O.co2   1  UNL1       -0.5444
     29 O           1.0735   -6.9821  -32.6558 O.co2   1  UNL1       -0.5444
     30 O          -0.1516   -5.3725  -33.4321 O.co2   1  UNL1       -0.5444
     31 H           1.1204  -12.8106  -34.1480 H       1  UNL1        0.0624
     32 H           3.1473   -8.6716  -33.1351 H       1  UNL1        0.0637
     33 H           2.3111  -13.1515  -29.4481 H       1  UNL1        0.0624
     34 H           0.6185  -14.8368  -32.9106 H       1  UNL1        0.0618
     35 H          -0.0731  -10.2452  -34.1735 H       1  UNL1        0.0517
     36 H           0.3036  -10.6453  -35.8427 H       1  UNL1        0.0517
     37 H           2.3264  -11.1426  -36.5368 H       1  UNL1        0.0525
     38 H           3.4842  -11.6803  -35.3308 H       1  UNL1        0.0525
     39 H           3.7550   -8.8167  -30.8004 H       1  UNL1        0.0637
     40 H           1.2153  -15.0036  -30.5623 H       1  UNL1        0.0618
     41 H           0.7745   -8.4706  -36.4075 H       1  UNL1        0.0830
     42 H           1.2702   -8.0573  -34.7648 H       1  UNL1        0.0830
     43 H          -1.4968   -8.6824  -35.2656 H       1  UNL1        0.2042
     44 H          -0.7557   -7.1620  -37.0252 H       1  UNL1        0.0879
     45 H          -0.2653   -6.0630  -35.7455 H       1  UNL1        0.0879
     46 H          -0.8912   -8.4367  -33.0678 H       1  UNL1        0.0879
     47 H          -1.9190   -7.0955  -33.6135 H       1  UNL1        0.0879
@<TRIPOS>BOND
     1     1     2   ar
     2     1     3   ar
     3     1     4   ar
     4     2     5    1
     5     2     6   ar
     6     3     7   ar
     7     3     8   ar
     8     4     9   ar
     9     5    10    1
    10     5    11    1
    11     6    12   ar
    12     7    13    1
    13     8    14   ar
    14    10    15    1
    15    11    16    1
    16    13    17    1
    17    13    18    2
    18    13    19    2
    19    15    20    1
    20    16    21   ar
    21    16    22   ar
    22    20    23    1
    23    20    24    1
    24    23    25    1
    25    24    26    1
    26    25    27   ar
    27    25    28   ar
    28    26    29   ar
    29    26    30   ar
    30     7    12   ar
    31     9    14   ar
    32     4    31    1
    33     6    32    1
    34     8    33    1
    35     9    34    1
    36    10    35    1
    37    10    36    1
    38    11    37    1
    39    11    38    1
    40    12    39    1
    41    14    40    1
    42    15    41    1
    43    15    42    1
    44    20    43    1
    45    23    44    1
    46    23    45    1
    47    24    46    1
    48    24    47    1
@<TRIPOS>SUBSTRUCTURE
     1 UNL1        1 TEMP              0 ****  ****    0 ROOT


