##########                                Name: HTS1710-02633111-01
##########                    Molecular_Weight:             240.599
##########                DOCK_Rotatable_Bonds:                   3
##########                       Formal_Charge:                  -3
##########                     HBond_Acceptors:                   6
##########                        HBond_Donors:                   0
##########                         Heavy_Atoms:                  16
##########                          Grid_Score:          -80.720001
##########                     Grid_vdw_energy:          -24.793427
##########                      Grid_es_energy:          -55.926571
##########           Internal_energy_repulsive:            2.154359

@<TRIPOS>MOLECULE
HTS1710-02633111-01
 21 21 1 0 0
SMALL
USER_CHARGES


@<TRIPOS>ATOM
      1 C           4.5145   -8.4192  -30.9581 C.2     1  UNL1       -0.0694
      2 C           4.3850   -9.2945  -29.9193 C.2     1  UNL1       -0.0444
      3 C           3.5249   -7.3348  -31.3017 C.2     1  UNL1        0.0579
      4 O           5.6351   -8.4753  -31.7707 O.co2   1  UNL1       -0.7782
      5 C           3.2741   -9.4200  -28.9196 C.2     1  UNL1        0.0641
      6 C           5.3894   -8.9274  -33.0531 C.ar    1  UNL1       -0.0753
      7 O           3.8918   -6.1796  -31.1647 O.co2   1  UNL1       -0.5458
      8 C           5.9711   -8.2588  -34.1483 C.ar    1  UNL1        0.0343
      9 O           3.0513   -8.4858  -28.1694 O.co2   1  UNL1       -0.5453
     10 O           2.4209   -7.6643  -31.7034 O.co2   1  UNL1       -0.5458
     11 CL          6.9688   -6.8372  -33.8964 Cl      1  UNL1       -0.0841
     12 O           2.6601  -10.4721  -28.9216 O.co2   1  UNL1       -0.5453
     13 C           4.6042  -10.0778  -33.2761 C.ar    1  UNL1       -0.0671
     14 C           5.7526   -8.7254  -35.4558 C.ar    1  UNL1       -0.0439
     15 C           4.3920  -10.5423  -34.5834 C.ar    1  UNL1       -0.0622
     16 C           4.9636   -9.8664  -35.6726 C.ar    1  UNL1       -0.0604
     17 H           5.1613   -9.9649  -29.8054 H       1  UNL1        0.0630
     18 H           4.1851  -10.5786  -32.4769 H       1  UNL1        0.0612
     19 H           6.1723   -8.2290  -36.2573 H       1  UNL1        0.0632
     20 H           3.8147  -11.3825  -34.7441 H       1  UNL1        0.0617
     21 H           4.8039  -10.2081  -36.6331 H       1  UNL1        0.0618
@<TRIPOS>BOND
     1     1     2    2
     2     1     3    1
     3     1     4    1
     4     2     5    1
     5     3     7   ar
     6     3    10   ar
     7     4     6    1
     8     5     9   ar
     9     5    12   ar
    10     6     8   ar
    11     6    13   ar
    12     8    11    1
    13     8    14   ar
    14    13    15   ar
    15    14    16   ar
    16    15    16   ar
    17     2    17    1
    18    13    18    1
    19    14    19    1
    20    15    20    1
    21    16    21    1
@<TRIPOS>SUBSTRUCTURE
     1 UNL1        1 TEMP              0 ****  ****    0 ROOT


