HTS1710-04659062-01
 OpenBabel03232612353D

 37 39  0  0  1  0  0  0  0  0999 V2000
    4.8408  -13.7952  -29.0960 C   0  0  0  0  0  0  0  0  0  0  0  0
    4.8907   -9.4230  -32.1668 C   0  0  0  0  0  0  0  0  0  0  0  0
    3.8168  -10.0405  -30.3176 C   0  0  0  0  0  0  0  0  0  0  0  0
    2.9301  -10.6913  -29.3053 C   0  0  0  0  0  0  0  0  0  0  0  0
    3.0404  -12.0831  -29.1287 N   0  0  0  0  0  0  0  0  0  0  0  0
    3.8206  -10.2153  -31.6841 C   0  0  0  0  0  0  0  0  0  0  0  0
    6.0176  -13.3729  -28.5089 O   0  0  0  0  0  0  0  0  0  0  0  0
    4.4769  -15.1082  -28.8511 C   0  0  0  0  0  0  0  0  0  0  0  0
    4.8286   -9.2190  -29.8762 O   0  0  0  0  0  0  0  0  0  0  0  0
    4.0255  -12.8473  -29.9478 C   0  0  2  0  0  0  0  0  0  0  0  0
    5.4399   -8.8555  -31.0477 C   0  0  0  0  0  0  0  0  0  0  0  0
    5.3271   -9.2621  -33.5663 C   0  0  0  0  0  0  0  0  0  0  0  0
    6.4384  -14.4944  -27.8487 C   0  0  0  0  0  0  0  0  0  0  0  0
    5.5676  -15.5474  -28.0169 C   0  0  0  0  0  0  0  0  0  0  0  0
    2.1523  -10.0223  -28.6444 O   0  0  0  0  0  0  0  0  0  0  0  0
    5.1422  -10.1964  -34.3271 O   0  5  0  0  0  0  0  0  0  0  0  0
    5.8457   -8.2026  -33.8742 O   0  0  0  0  0  0  0  0  0  0  0  0
    2.5472  -12.7794  -27.9159 C   0  0  0  0  0  0  0  0  0  0  0  0
    3.3921  -13.5840  -31.1593 C   0  0  0  0  0  0  0  0  0  0  0  0
    7.6024  -14.6165  -27.0813 C   0  0  0  0  0  0  0  0  0  0  0  0
    5.8045  -16.7959  -27.4293 C   0  0  0  0  0  0  0  0  0  0  0  0
    7.8644  -15.8645  -26.4776 C   0  0  0  0  0  0  0  0  0  0  0  0
    6.9707  -16.9469  -26.6512 C   0  0  0  0  0  0  0  0  0  0  0  0
    3.1780  -10.8012  -32.2398 H   0  0  0  0  0  0  0  0  0  0  0  0
    3.6491  -15.6310  -29.1773 H   0  0  0  0  0  0  0  0  0  0  0  0
    4.6852  -12.1135  -30.3617 H   0  0  0  0  0  0  0  0  0  0  0  0
    6.2443   -8.2101  -31.0836 H   0  0  0  0  0  0  0  0  0  0  0  0
    1.8503  -12.1506  -27.4022 H   0  0  0  0  0  0  0  0  0  0  0  0
    3.3719  -12.9995  -27.2707 H   0  0  0  0  0  0  0  0  0  0  0  0
    2.0633  -13.6906  -28.1997 H   0  0  0  0  0  0  0  0  0  0  0  0
    2.7174  -14.3358  -30.8064 H   0  0  0  0  0  0  0  0  0  0  0  0
    4.1642  -14.0424  -31.7414 H   0  0  0  0  0  0  0  0  0  0  0  0
    2.8584  -12.8815  -31.7647 H   0  0  0  0  0  0  0  0  0  0  0  0
    8.2477  -13.8201  -26.9610 H   0  0  0  0  0  0  0  0  0  0  0  0
    5.1469  -17.5803  -27.5615 H   0  0  0  0  0  0  0  0  0  0  0  0
    8.7142  -15.9884  -25.9053 H   0  0  0  0  0  0  0  0  0  0  0  0
    7.1738  -17.8548  -26.2045 H   0  0  0  0  0  0  0  0  0  0  0  0
  1  7  1  0  0  0  0
  1  8  2  0  0  0  0
  1 10  1  0  0  0  0
  2  6  1  0  0  0  0
  2 12  1  0  0  0  0
  2 11  2  0  0  0  0
  3  4  1  0  0  0  0
  3  6  2  0  0  0  0
  3  9  1  0  0  0  0
  4  5  1  0  0  0  0
  4 15  2  0  0  0  0
  5 10  1  0  0  0  0
  5 18  1  0  0  0  0
  6 24  1  0  0  0  0
  7 13  1  0  0  0  0
  8 14  1  0  0  0  0
  8 25  1  0  0  0  0
  9 11  1  0  0  0  0
 10 19  1  0  0  0  0
 10 26  1  6  0  0  0
 11 27  1  0  0  0  0
 12 16  1  0  0  0  0
 12 17  2  0  0  0  0
 13 20  2  0  0  0  0
 13 14  1  0  0  0  0
 14 21  2  0  0  0  0
 18 28  1  0  0  0  0
 18 29  1  0  0  0  0
 18 30  1  0  0  0  0
 19 31  1  0  0  0  0
 19 32  1  0  0  0  0
 19 33  1  0  0  0  0
 20 22  1  0  0  0  0
 20 34  1  0  0  0  0
 21 23  1  0  0  0  0
 21 35  1  0  0  0  0
 22 23  2  0  0  0  0
 22 36  1  0  0  0  0
 23 37  1  0  0  0  0
M  CHG  1  16  -1
M  END
$$$$
