HTS1710-02590694-01
 OpenBabel03232612363D

 42 44  0  0  0  0  0  0  0  0999 V2000
    0.8967   -7.9226  -32.3145 N   0  0  0  0  0  0  0  0  0  0  0  0
    1.5766   -6.9787  -31.5490 C   0  0  0  0  0  0  0  0  0  0  0  0
    1.2566   -9.2754  -32.3499 C   0  0  0  0  0  0  0  0  0  0  0  0
    2.4206   -9.6579  -31.4897 C   0  0  0  0  0  0  0  0  0  0  0  0
    2.6550   -7.3710  -30.7863 N   0  0  0  0  0  0  0  0  0  0  0  0
    3.0753   -8.6846  -30.7404 C   0  0  0  0  0  0  0  0  0  0  0  0
    4.8669   -9.2505  -34.9256 C   0  0  0  0  0  0  0  0  0  0  0  0
    2.7916  -11.0889  -31.5132 C   0  0  0  0  0  0  0  0  0  0  0  0
    5.8404   -8.0755  -34.8532 C   0  0  0  0  0  0  0  0  0  0  0  0
   -0.2213   -7.4904  -33.0968 C   0  0  0  0  0  0  0  0  0  0  0  0
    3.3435  -11.6931  -32.5219 N   0  0  0  0  0  0  0  0  0  0  0  0
    1.2577   -5.8018  -31.5032 O   0  0  0  0  0  0  0  0  0  0  0  0
    0.6604  -10.0839  -33.0448 O   0  0  0  0  0  0  0  0  0  0  0  0
    4.2748   -9.7074  -36.1384 C   0  0  0  0  0  0  0  0  0  0  0  0
    4.5326   -9.9298  -33.7281 C   0  0  0  0  0  0  0  0  0  0  0  0
    6.0649   -7.6055  -33.7507 O   0  5  0  0  0  0  0  0  0  0  0  0
    3.6514  -11.0248  -33.7269 C   0  0  0  0  0  0  0  0  0  0  0  0
    4.1345   -8.9338  -29.9452 O   0  5  0  0  0  0  0  0  0  0  0  0
   -0.1455   -7.4874  -34.5019 C   0  0  0  0  0  0  0  0  0  0  0  0
   -1.4073   -7.0626  -32.4695 C   0  0  0  0  0  0  0  0  0  0  0  0
    3.3893  -10.7991  -36.1265 C   0  0  0  0  0  0  0  0  0  0  0  0
    6.3450   -7.6649  -35.8834 O   0  0  0  0  0  0  0  0  0  0  0  0
   -2.4222   -6.6291  -34.6451 C   0  0  0  0  0  0  0  0  0  0  0  0
    3.0784  -11.4556  -34.9305 C   0  0  0  0  0  0  0  0  0  0  0  0
   -2.5038   -6.6334  -33.2356 C   0  0  0  0  0  0  0  0  0  0  0  0
   -1.2392   -7.0584  -35.2695 C   0  0  0  0  0  0  0  0  0  0  0  0
    4.5325   -9.1191  -37.3457 O   0  0  0  0  0  0  0  0  0  0  0  0
   -3.4694   -6.2147  -35.4444 O   0  0  0  0  0  0  0  0  0  0  0  0
   -4.1582   -4.9668  -35.2486 C   0  0  0  0  0  0  0  0  0  0  0  0
    3.1393   -6.6951  -30.2593 H   0  0  0  0  0  0  0  0  0  0  0  0
    2.5982  -11.6479  -30.6675 H   0  0  0  0  0  0  0  0  0  0  0  0
    4.9453   -9.6135  -32.8366 H   0  0  0  0  0  0  0  0  0  0  0  0
    0.7186   -7.8021  -34.9702 H   0  0  0  0  0  0  0  0  0  0  0  0
   -1.4715   -7.0645  -31.4395 H   0  0  0  0  0  0  0  0  0  0  0  0
    2.9635  -11.1200  -37.0101 H   0  0  0  0  0  0  0  0  0  0  0  0
    2.4275  -12.2565  -34.9350 H   0  0  0  0  0  0  0  0  0  0  0  0
   -3.3692   -6.3211  -32.7680 H   0  0  0  0  0  0  0  0  0  0  0  0
   -1.1741   -7.0583  -36.2994 H   0  0  0  0  0  0  0  0  0  0  0  0
    4.1514   -9.4676  -38.1275 H   0  0  0  0  0  0  0  0  0  0  0  0
   -4.9274   -4.8646  -35.9854 H   0  0  0  0  0  0  0  0  0  0  0  0
   -3.4643   -4.1578  -35.3429 H   0  0  0  0  0  0  0  0  0  0  0  0
   -4.5951   -4.9500  -34.2720 H   0  0  0  0  0  0  0  0  0  0  0  0
  1  2  1  0  0  0  0
  1  3  1  0  0  0  0
  1 10  1  0  0  0  0
  2  5  1  0  0  0  0
  2 12  2  0  0  0  0
  3  4  1  0  0  0  0
  3 13  2  0  0  0  0
  4  6  2  0  0  0  0
  4  8  1  0  0  0  0
  5  6  1  0  0  0  0
  5 30  1  0  0  0  0
  6 18  1  0  0  0  0
  7  9  1  0  0  0  0
  7 14  2  0  0  0  0
  7 15  1  0  0  0  0
  8 11  2  0  0  0  0
  8 31  1  0  0  0  0
  9 16  1  0  0  0  0
  9 22  2  0  0  0  0
 10 19  2  0  0  0  0
 10 20  1  0  0  0  0
 11 17  1  0  0  0  0
 14 21  1  0  0  0  0
 14 27  1  0  0  0  0
 15 17  2  0  0  0  0
 15 32  1  0  0  0  0
 17 24  1  0  0  0  0
 19 26  1  0  0  0  0
 19 33  1  0  0  0  0
 20 25  2  0  0  0  0
 20 34  1  0  0  0  0
 21 24  2  0  0  0  0
 21 35  1  0  0  0  0
 23 25  1  0  0  0  0
 23 26  2  0  0  0  0
 23 28  1  0  0  0  0
 24 36  1  0  0  0  0
 25 37  1  0  0  0  0
 26 38  1  0  0  0  0
 27 39  1  0  0  0  0
 28 29  1  0  0  0  0
 29 40  1  0  0  0  0
 29 41  1  0  0  0  0
 29 42  1  0  0  0  0
M  CHG  2  16  -1  18  -1
M  END
$$$$
