HTS1710-00105334-01
 OpenBabel03232612353D

 34 33  0  0  1  0  0  0  0  0999 V2000
    1.9843  -10.5845  -35.7943 C   0  0  2  0  0  0  0  0  0  0  0  0
    3.2092  -10.9436  -29.7216 C   0  0  2  0  0  0  0  0  0  0  0  0
    3.0320   -9.6453  -36.4152 C   0  0  0  0  0  0  0  0  0  0  0  0
    4.0144   -9.6886  -29.3498 C   0  0  0  0  0  0  0  0  0  0  0  0
    4.0322  -12.1387  -29.4867 N   0  0  0  0  0  0  0  0  0  0  0  0
    0.7261   -9.8625  -35.5459 N   0  0  0  0  0  0  0  0  0  0  0  0
    0.6354   -8.7896  -34.6707 C   0  0  0  0  0  0  0  0  0  0  0  0
    3.9403  -12.9007  -28.3317 C   0  0  0  0  0  0  0  0  0  0  0  0
    4.0746   -9.4729  -35.8060 O   0  5  0  0  0  0  0  0  0  0  0  0
    5.0611   -9.5053  -29.9480 O   0  5  0  0  0  0  0  0  0  0  0  0
    1.6189   -8.4038  -34.0615 O   0  0  0  0  0  0  0  0  0  0  0  0
    3.1538  -12.5941  -27.4513 O   0  0  0  0  0  0  0  0  0  0  0  0
    2.5148  -11.1812  -34.4708 C   0  0  0  0  0  0  0  0  0  0  0  0
    2.7567  -10.9192  -31.2008 C   0  0  0  0  0  0  0  0  0  0  0  0
    2.0984  -12.5603  -31.7212 S   0  0  0  0  0  0  0  0  0  0  0  0
    1.2544  -12.1970  -33.5811 S   0  0  0  0  0  0  0  0  0  0  0  0
    2.7387   -9.1161  -37.4739 O   0  0  0  0  0  0  0  0  0  0  0  0
    3.5519   -8.9510  -28.4958 O   0  0  0  0  0  0  0  0  0  0  0  0
    4.8491  -14.1200  -28.2045 C   0  0  0  0  0  0  0  0  0  0  0  0
   -0.7270   -8.1220  -34.4977 C   0  0  0  0  0  0  0  0  0  0  0  0
    1.7957  -11.3797  -36.4849 H   0  0  0  0  0  0  0  0  0  0  0  0
    2.3330  -10.9652  -29.1077 H   0  0  0  0  0  0  0  0  0  0  0  0
    4.6769  -12.4099  -30.1796 H   0  0  0  0  0  0  0  0  0  0  0  0
   -0.0858  -10.1531  -36.0210 H   0  0  0  0  0  0  0  0  0  0  0  0
    2.8183  -10.3781  -33.8322 H   0  0  0  0  0  0  0  0  0  0  0  0
    3.3319  -11.8272  -34.7156 H   0  0  0  0  0  0  0  0  0  0  0  0
    3.5936  -10.6668  -31.8180 H   0  0  0  0  0  0  0  0  0  0  0  0
    1.9787  -10.1923  -31.3060 H   0  0  0  0  0  0  0  0  0  0  0  0
    5.4553  -14.2061  -29.0820 H   0  0  0  0  0  0  0  0  0  0  0  0
    4.2512  -15.0008  -28.0963 H   0  0  0  0  0  0  0  0  0  0  0  0
    5.4779  -14.0082  -27.3460 H   0  0  0  0  0  0  0  0  0  0  0  0
   -1.4462   -8.6128  -35.1197 H   0  0  0  0  0  0  0  0  0  0  0  0
   -0.6574   -7.0916  -34.7777 H   0  0  0  0  0  0  0  0  0  0  0  0
   -1.0321   -8.1938  -33.4746 H   0  0  0  0  0  0  0  0  0  0  0  0
  1  3  1  0  0  0  0
  1  6  1  0  0  0  0
  1 13  1  0  0  0  0
  1 21  1  6  0  0  0
  2 14  1  0  0  0  0
  2  4  1  0  0  0  0
  2  5  1  0  0  0  0
  2 22  1  1  0  0  0
  3  9  1  0  0  0  0
  3 17  2  0  0  0  0
  4 10  1  0  0  0  0
  4 18  2  0  0  0  0
  5  8  1  0  0  0  0
  5 23  1  0  0  0  0
  6  7  1  0  0  0  0
  6 24  1  0  0  0  0
  7 11  2  0  0  0  0
  7 20  1  0  0  0  0
  8 12  2  0  0  0  0
  8 19  1  0  0  0  0
 13 16  1  0  0  0  0
 13 25  1  0  0  0  0
 13 26  1  0  0  0  0
 14 15  1  0  0  0  0
 14 27  1  0  0  0  0
 14 28  1  0  0  0  0
 15 16  1  0  0  0  0
 19 29  1  0  0  0  0
 19 30  1  0  0  0  0
 19 31  1  0  0  0  0
 20 32  1  0  0  0  0
 20 33  1  0  0  0  0
 20 34  1  0  0  0  0
M  CHG  2   9  -1  10  -1
M  END
$$$$
