##########                                Name: HTS1710-00109839-01
##########                    Molecular_Weight:             368.391
##########                DOCK_Rotatable_Bonds:                   5
##########                       Formal_Charge:                  -2
##########                     HBond_Acceptors:                  10
##########                        HBond_Donors:                   4
##########                         Heavy_Atoms:                  24
##########                          Grid_Score:          -77.609085
##########                     Grid_vdw_energy:          -41.611397
##########                      Grid_es_energy:          -35.997688
##########           Internal_energy_repulsive:            9.212683

@<TRIPOS>MOLECULE
HTS1710-00109839-01
 36 37 1 0 0
SMALL
USER_CHARGES


@<TRIPOS>ATOM
      1 N          -0.5490   -6.4245  -37.0311 N.pl3   1  UNL1       -0.3579
      2 C          -0.0578   -7.4241  -36.2256 C.ar    1  UNL1        0.0264
      3 C           1.0244   -8.2064  -36.6523 C.ar    1  UNL1       -0.0166
      4 C           1.5546   -9.2375  -35.8418 C.ar    1  UNL1        0.0855
      5 C           0.9361   -9.5119  -34.5792 C.ar    1  UNL1       -0.0010
      6 C           1.2857  -10.6158  -33.6236 C.2     1  UNL1       -0.0522
      7 C           1.9359  -10.6034  -32.4315 C.2     1  UNL1       -0.0522
      8 C           2.2780  -11.7178  -31.4869 C.ar    1  UNL1       -0.0010
      9 C           1.7735  -12.9850  -31.8516 C.ar    1  UNL1       -0.0511
     10 C           1.9226  -14.1021  -31.0224 C.ar    1  UNL1       -0.0404
     11 C           2.5924  -13.9780  -29.8026 C.ar    1  UNL1        0.0264
     12 N           2.7231  -15.0658  -28.9716 N.pl3   1  UNL1       -0.3579
     13 C           3.1476  -12.7437  -29.4390 C.ar    1  UNL1       -0.0166
     14 C           3.0335  -11.6094  -30.2748 C.ar    1  UNL1        0.0855
     15 S           3.9815  -10.1378  -29.7616 S.3     1  UNL1       -0.0506
     16 O           4.6984  -10.5789  -28.5599 O.co2   1  UNL1       -0.7201
     17 O           2.9233   -9.1558  -29.5047 O.2     1  UNL1       -0.1803
     18 O           4.8463   -9.8491  -30.9090 O.2     1  UNL1       -0.1803
     19 C          -0.1258   -8.6803  -34.1585 C.ar    1  UNL1       -0.0511
     20 C          -0.6231   -7.6530  -34.9689 C.ar    1  UNL1       -0.0404
     21 S           3.0632  -10.0525  -36.4659 S.3     1  UNL1       -0.0506
     22 O           3.4899   -9.1443  -37.5351 O.co2   1  UNL1       -0.7201
     23 O           2.5987  -11.3705  -36.9073 O.2     1  UNL1       -0.1803
     24 O           3.9620  -10.0838  -35.3078 O.2     1  UNL1       -0.1803
     25 H          -0.1493   -6.2646  -37.9164 H       1  UNL1        0.1423
     26 H          -1.3006   -5.8684  -36.7226 H       1  UNL1        0.1423
     27 H           1.4435   -8.0261  -37.5779 H       1  UNL1        0.0655
     28 H           0.9762  -11.5523  -33.9273 H       1  UNL1        0.0624
     29 H           2.2476   -9.6693  -32.1230 H       1  UNL1        0.0624
     30 H           1.2821  -13.0901  -32.7529 H       1  UNL1        0.0625
     31 H           1.5388  -15.0155  -31.3111 H       1  UNL1        0.0636
     32 H           2.3322  -15.9319  -29.2294 H       1  UNL1        0.1423
     33 H           3.2076  -14.9787  -28.1191 H       1  UNL1        0.1423
     34 H           3.6507  -12.6610  -28.5417 H       1  UNL1        0.0655
     35 H          -0.5461   -8.8344  -33.2286 H       1  UNL1        0.0625
     36 H          -1.4054   -7.0663  -34.6388 H       1  UNL1        0.0636
@<TRIPOS>BOND
     1     1     2    1
     2     2     3   ar
     3     3     4   ar
     4     4     5   ar
     5     5     6    1
     6     6     7    2
     7     7     8    1
     8     8     9   ar
     9     9    10   ar
    10    10    11   ar
    11    11    12    1
    12    11    13   ar
    13    13    14   ar
    14     8    14   ar
    15    14    15    1
    16    15    16    1
    17    15    17    2
    18    15    18    2
    19     5    19   ar
    20    19    20   ar
    21     2    20   ar
    22     4    21    1
    23    21    22    1
    24    21    23    2
    25    21    24    2
    26     1    25    1
    27     1    26    1
    28     3    27    1
    29     6    28    1
    30     7    29    1
    31     9    30    1
    32    10    31    1
    33    12    32    1
    34    12    33    1
    35    13    34    1
    36    19    35    1
    37    20    36    1
@<TRIPOS>SUBSTRUCTURE
     1 UNL1        1 TEMP              0 ****  ****    0 ROOT


