##########                                Name: HTS1710-00208646-01
##########                    Molecular_Weight:              366.33
##########                DOCK_Rotatable_Bonds:                   6
##########                       Formal_Charge:                  -2
##########                     HBond_Acceptors:                   8
##########                        HBond_Donors:                   0
##########                         Heavy_Atoms:                  27
##########                          Grid_Score:          -79.562576
##########                     Grid_vdw_energy:          -41.804649
##########                      Grid_es_energy:          -37.757931
##########           Internal_energy_repulsive:            8.844504

@<TRIPOS>MOLECULE
HTS1710-00208646-01
 41 43 1 0 0
SMALL
USER_CHARGES


@<TRIPOS>ATOM
      1 C           1.7856   -8.9606  -35.9697 C.ar    1  UNL1        0.0432
      2 C           1.3711   -9.0659  -34.5910 C.ar    1  UNL1        0.1055
      3 N           0.3274   -8.2919  -34.3364 N.ar    1  UNL1       -0.1656
      4 N           0.0122   -7.7857  -35.5668 N.ar    1  UNL1       -0.2386
      5 C           0.8525   -8.1771  -36.5908 C.ar    1  UNL1        0.0407
      6 C           2.0759   -9.9160  -33.6118 C.ar    1  UNL1        0.0452
      7 C           3.6539  -10.0435  -31.7155 C.ar    1  UNL1        0.0398
      8 C           2.9423   -9.3027  -32.6883 C.ar    1  UNL1       -0.0366
      9 C           3.0175   -9.4442  -36.6555 C.2     1  UNL1        0.0752
     10 C           3.4515  -11.4510  -31.6614 C.ar    1  UNL1        0.1324
     11 C           1.8221  -11.2985  -33.4938 C.ar    1  UNL1        0.1328
     12 C           4.6013   -9.2971  -30.7761 C.2     1  UNL1        0.0752
     13 C           2.5277  -12.0595  -32.5400 C.ar    1  UNL1        0.0231
     14 C          -1.0460   -6.9077  -35.7991 C.ar    1  UNL1        0.0654
     15 O           3.8228  -10.1072  -36.0264 O.co2   1  UNL1       -0.5445
     16 O           5.4917   -8.6407  -31.2887 O.co2   1  UNL1       -0.5445
     17 O           3.1691   -9.1069  -37.8171 O.co2   1  UNL1       -0.5445
     18 O           4.4311   -9.3878  -29.5728 O.co2   1  UNL1       -0.5445
     19 O           4.1365  -12.2162  -30.7313 O.3     1  UNL1       -0.4943
     20 O           0.8103  -11.8617  -34.2546 O.3     1  UNL1       -0.4943
     21 C          -0.8622   -5.7832  -36.6279 C.ar    1  UNL1       -0.0363
     22 C          -2.2987   -7.1498  -35.2048 C.ar    1  UNL1       -0.0363
     23 C           0.9766  -12.2868  -35.6176 C.3     1  UNL1        0.0788
     24 C           4.0110  -13.6430  -30.6038 C.3     1  UNL1        0.0788
     25 C          -3.3641   -6.2639  -35.4357 C.ar    1  UNL1       -0.0598
     26 C          -1.9313   -4.9019  -36.8556 C.ar    1  UNL1       -0.0598
     27 C          -3.1808   -5.1417  -36.2596 C.ar    1  UNL1       -0.0616
     28 H           0.7905   -7.9348  -37.5920 H       1  UNL1        0.0837
     29 H           3.0628   -8.2783  -32.7217 H       1  UNL1        0.0633
     30 H           2.3669  -13.0773  -32.4825 H       1  UNL1        0.0691
     31 H           0.0555   -5.6077  -37.0662 H       1  UNL1        0.0639
     32 H          -2.4341   -7.9759  -34.6012 H       1  UNL1        0.0639
     33 H           0.0531  -12.6860  -35.9819 H       1  UNL1        0.0660
     34 H           1.7347  -13.0404  -35.6662 H       1  UNL1        0.0660
     35 H           1.2657  -11.4506  -36.2193 H       1  UNL1        0.0660
     36 H           4.6442  -13.9875  -29.8131 H       1  UNL1        0.0660
     37 H           4.3008  -14.1100  -31.5219 H       1  UNL1        0.0660
     38 H           2.9946  -13.8933  -30.3816 H       1  UNL1        0.0660
     39 H          -4.2828   -6.4380  -34.9992 H       1  UNL1        0.0618
     40 H          -1.7991   -4.0771  -37.4616 H       1  UNL1        0.0618
     41 H          -3.9649   -4.4922  -36.4276 H       1  UNL1        0.0618
@<TRIPOS>BOND
     1     1     2   ar
     2     2     3   ar
     3     4     5   ar
     4     1     5   ar
     5     2     6    1
     6     7     8   ar
     7     6     8   ar
     8     1     9    1
     9    10    13   ar
    10     6    11   ar
    11     7    12    1
    12    11    13   ar
    13     4    14    1
    14     9    15   ar
    15    12    16   ar
    16     9    17   ar
    17    12    18   ar
    18    10    19    1
    19    11    20    1
    20    14    21   ar
    21    14    22   ar
    22    20    23    1
    23    19    24    1
    24    22    25   ar
    25    21    26   ar
    26    25    27   ar
    27     3     4   ar
    28     7    10   ar
    29    26    27   ar
    30     5    28    1
    31     8    29    1
    32    13    30    1
    33    21    31    1
    34    22    32    1
    35    23    33    1
    36    23    34    1
    37    23    35    1
    38    24    36    1
    39    24    37    1
    40    24    38    1
    41    25    39    1
    42    26    40    1
    43    27    41    1
@<TRIPOS>SUBSTRUCTURE
     1 UNL1        1 TEMP              0 ****  ****    0 ROOT


