##########                                Name: HTS1710-04578865-01
##########                    Molecular_Weight:             356.312
##########                DOCK_Rotatable_Bonds:                   5
##########                       Formal_Charge:                  -2
##########                     HBond_Acceptors:                   8
##########                        HBond_Donors:                   1
##########                         Heavy_Atoms:                  26
##########                          Grid_Score:          -75.320419
##########                     Grid_vdw_energy:          -41.469971
##########                      Grid_es_energy:          -33.850449
##########           Internal_energy_repulsive:            7.904424

@<TRIPOS>MOLECULE
HTS1710-04578865-01
 40 42 1 0 0
SMALL
USER_CHARGES


@<TRIPOS>ATOM
      1 C           2.8258  -12.1253  -31.7210 C.ar    1  UNL1        0.0393
      2 C           3.5048  -11.9512  -30.5287 C.ar    1  UNL1        0.0350
      3 C           3.2769  -12.8950  -29.4401 C.ar    1  UNL1        0.0893
      4 C           3.0329  -11.1362  -32.8474 C.3     1  UNL1        0.0205
      5 C           1.8928  -13.2392  -31.9212 C.ar    1  UNL1        0.2536
      6 C           2.3878  -13.9455  -29.6702 C.ar    1  UNL1        0.0201
      7 O           4.3467  -10.8829  -30.3331 O.co2   1  UNL1       -0.5810
      8 N           1.7208  -14.1142  -30.8736 N.ar    1  UNL1       -0.3280
      9 C           3.9530  -12.7683  -28.1143 C.2     1  UNL1        0.3417
     10 C           4.7452  -10.0096  -31.3097 C.2     1  UNL1        0.0335
     11 C          -1.2370   -7.0900  -33.0678 C.2     1  UNL1        0.0717
     12 C           4.4296  -10.4870  -32.7328 C.3     1  UNL1       -0.0029
     13 C           1.9083  -10.0967  -32.9167 C.ar    1  UNL1       -0.0394
     14 C          -0.1478   -8.1375  -33.0151 C.ar    1  UNL1       -0.0027
     15 O           1.2657  -13.4314  -32.9483 O.2     1  UNL1       -0.2676
     16 O           5.3078   -8.9558  -31.0683 O.2     1  UNL1       -0.5506
     17 O           3.3629  -12.5234  -27.0739 O.2     1  UNL1       -0.2449
     18 O          -1.9679   -7.0852  -34.0429 O.co2   1  UNL1       -0.5446
     19 C           1.0416  -10.0216  -34.0248 C.ar    1  UNL1       -0.0574
     20 C           1.7377   -9.1825  -31.8602 C.ar    1  UNL1       -0.0574
     21 C           0.0238   -9.0557  -34.0720 C.ar    1  UNL1       -0.0526
     22 C           0.7216   -8.2154  -31.9081 C.ar    1  UNL1       -0.0526
     23 O          -1.3157   -6.3126  -32.1308 O.co2   1  UNL1       -0.5446
     24 O           5.3119  -12.9450  -28.1702 O.3     1  UNL1       -0.4614
     25 C           5.9852  -13.8490  -27.2680 C.3     1  UNL1        0.0900
     26 C           5.5244  -15.2975  -27.5487 C.3     1  UNL1       -0.0306
     27 H           2.9924  -11.6693  -33.7742 H       1  UNL1        0.0403
     28 H           2.2197  -14.6257  -28.9124 H       1  UNL1        0.0816
     29 H           1.1094  -14.8783  -30.9812 H       1  UNL1        0.1683
     30 H           5.1664  -11.2062  -33.0240 H       1  UNL1        0.0334
     31 H           4.4405   -9.6287  -33.3716 H       1  UNL1        0.0334
     32 H           1.1560  -10.6826  -34.8090 H       1  UNL1        0.0621
     33 H           2.3658   -9.2236  -31.0424 H       1  UNL1        0.0621
     34 H          -0.6057   -9.0170  -34.8889 H       1  UNL1        0.0624
     35 H           0.6097   -7.5538  -31.1240 H       1  UNL1        0.0624
     36 H           5.7462  -13.5884  -26.2581 H       1  UNL1        0.0695
     37 H           7.0426  -13.7768  -27.4149 H       1  UNL1        0.0695
     38 H           4.4670  -15.3702  -27.4019 H       1  UNL1        0.0262
     39 H           6.0242  -15.9667  -26.8799 H       1  UNL1        0.0262
     40 H           5.7631  -15.5583  -28.5586 H       1  UNL1        0.0262
@<TRIPOS>BOND
     1     1     2   ar
     2     2     3   ar
     3     1     4    1
     4     1     5   ar
     5     6     8   ar
     6     2     7    1
     7     5     8   ar
     8     3     9    1
     9    10    12    1
    10    11    14    1
    11     4    12    1
    12     4    13    1
    13    14    21   ar
    14     5    15    2
    15    10    16    2
    16     9    17    2
    17    11    18   ar
    18    13    19   ar
    19    13    20   ar
    20    19    21   ar
    21    20    22   ar
    22    11    23   ar
    23     9    24    1
    24    24    25    1
    25    25    26    1
    26     3     6   ar
    27     7    10    1
    28    14    22   ar
    29     4    27    1
    30     6    28    1
    31     8    29    1
    32    12    30    1
    33    12    31    1
    34    19    32    1
    35    20    33    1
    36    21    34    1
    37    22    35    1
    38    25    36    1
    39    25    37    1
    40    26    38    1
    41    26    39    1
    42    26    40    1
@<TRIPOS>SUBSTRUCTURE
     1 UNL1        1 TEMP              0 ****  ****    0 ROOT


