##########                                Name: HTS1710-01189020-01
##########                    Molecular_Weight:             349.321
##########                DOCK_Rotatable_Bonds:                   6
##########                       Formal_Charge:                  -2
##########                     HBond_Acceptors:                   9
##########                        HBond_Donors:                   1
##########                         Heavy_Atoms:                  24
##########                          Grid_Score:          -77.644119
##########                     Grid_vdw_energy:          -41.273582
##########                      Grid_es_energy:          -36.370533
##########           Internal_energy_repulsive:            6.281457

@<TRIPOS>MOLECULE
HTS1710-01189020-01
 35 36 1 0 0
SMALL
USER_CHARGES


@<TRIPOS>ATOM
      1 S           4.5726  -10.5898  -35.5384 S.O2    1  UNL1        0.0724
      2 C           4.4777  -10.5242  -31.4282 C.ar    1  UNL1        0.0408
      3 C           4.4267  -11.1036  -33.8164 C.ar    1  UNL1        0.1093
      4 C           4.5585  -10.1539  -32.7922 C.ar    1  UNL1       -0.0227
      5 N           2.9833  -10.5649  -36.1442 N.pl3   1  UNL1       -0.2163
      6 C           4.6424   -9.4358  -30.3683 C.2     1  UNL1        0.0752
      7 C          -1.4318   -7.2164  -34.7044 C.2     1  UNL1        0.0717
      8 O           5.0962   -9.2262  -35.6656 O.2     1  UNL1       -0.1500
      9 O           5.1463  -11.7286  -36.2617 O.2     1  UNL1       -0.1500
     10 C           4.2493  -11.8955  -31.1125 C.ar    1  UNL1        0.1290
     11 C          -0.2601   -8.0978  -35.0747 C.ar    1  UNL1       -0.0026
     12 O           3.9167   -9.4973  -29.3903 O.co2   1  UNL1       -0.5445
     13 O          -1.3901   -6.0481  -35.0532 O.co2   1  UNL1       -0.5446
     14 C           4.2017  -12.4481  -33.4959 C.ar    1  UNL1       -0.0316
     15 C           4.1119  -12.8414  -32.1560 C.ar    1  UNL1       -0.0175
     16 C           1.9248   -9.7614  -35.7748 C.ar    1  UNL1        0.0481
     17 C           0.2041   -9.0898  -34.1836 C.ar    1  UNL1       -0.0511
     18 C           0.3951   -7.9437  -36.3155 C.ar    1  UNL1       -0.0511
     19 O           5.4794   -8.5673  -30.5426 O.co2   1  UNL1       -0.5445
     20 O          -2.3456   -7.7261  -34.0787 O.co2   1  UNL1       -0.5446
     21 C           1.4805   -8.7653  -36.6590 C.ar    1  UNL1       -0.0387
     22 C           1.2880   -9.9118  -34.5287 C.ar    1  UNL1       -0.0387
     23 O           4.1634  -12.3012  -29.7911 O.3     1  UNL1       -0.4945
     24 C           4.2251  -13.6728  -29.3627 C.3     1  UNL1        0.0788
     25 H           4.7178   -9.1644  -33.0383 H       1  UNL1        0.0645
     26 H           2.7922  -11.2150  -36.8584 H       1  UNL1        0.1737
     27 H           4.1021  -13.1484  -34.2474 H       1  UNL1        0.0638
     28 H           3.9434  -13.8333  -31.9261 H       1  UNL1        0.0655
     29 H          -0.2585   -9.2117  -33.2692 H       1  UNL1        0.0625
     30 H           0.0730   -7.2200  -36.9769 H       1  UNL1        0.0625
     31 H           1.9545   -8.6363  -37.5666 H       1  UNL1        0.0637
     32 H           1.6197  -10.6297  -33.8657 H       1  UNL1        0.0637
     33 H           4.1356  -13.7181  -28.2974 H       1  UNL1        0.0660
     34 H           5.1611  -14.0976  -29.6603 H       1  UNL1        0.0660
     35 H           3.4249  -14.2231  -29.8117 H       1  UNL1        0.0660
@<TRIPOS>BOND
     1     2     4   ar
     2     1     3    1
     3     3     4   ar
     4     1     5    1
     5     2     6    1
     6     7    11    1
     7     1     8    2
     8     1     9    2
     9    10    15   ar
    10    11    17   ar
    11     6    12   ar
    12     7    13   ar
    13     3    14   ar
    14    14    15   ar
    15     5    16    1
    16    17    22   ar
    17    18    21   ar
    18     6    19   ar
    19     7    20   ar
    20    16    21   ar
    21    16    22   ar
    22    10    23    1
    23    23    24    1
    24    11    18   ar
    25     2    10   ar
    26     4    25    1
    27     5    26    1
    28    14    27    1
    29    15    28    1
    30    17    29    1
    31    18    30    1
    32    21    31    1
    33    22    32    1
    34    24    33    1
    35    24    34    1
    36    24    35    1
@<TRIPOS>SUBSTRUCTURE
     1 UNL1        1 TEMP              0 ****  ****    0 ROOT


