##########                                Name: HTS1710-03590769-01
##########                    Molecular_Weight:             385.313
##########                DOCK_Rotatable_Bonds:                   2
##########                       Formal_Charge:                  -2
##########                     HBond_Acceptors:                  11
##########                        HBond_Donors:                   3
##########                         Heavy_Atoms:                  28
##########                          Grid_Score:          -79.219917
##########                     Grid_vdw_energy:          -44.505230
##########                      Grid_es_energy:          -34.714687
##########           Internal_energy_repulsive:            7.068142

@<TRIPOS>MOLECULE
HTS1710-03590769-01
 41 44 1 0 0
SMALL
USER_CHARGES


@<TRIPOS>ATOM
      1 C           4.3138  -10.5124  -31.2775 C.ar    1  UNL1        0.0387
      2 C           3.7178  -10.4662  -33.7283 C.ar    1  UNL1        0.0377
      3 C           2.5576   -9.7071  -33.7696 C.ar    1  UNL1       -0.0224
      4 C           4.2655   -9.5090  -30.3240 C.ar    1  UNL1       -0.0111
      5 C           3.8839  -11.9047  -30.9800 C.ar    1  UNL1        0.2598
      6 N           1.5890   -9.9879  -34.7430 N.ar    1  UNL1       -0.3102
      7 N           3.4289  -12.0918  -29.6719 N.ar    1  UNL1       -0.2639
      8 N           3.7877   -9.7993  -29.0602 N.ar    1  UNL1       -0.3196
      9 C           3.9119  -11.5675  -34.6987 C.ar    1  UNL1        0.2574
     10 C           3.3672  -11.0711  -28.7195 C.ar    1  UNL1        0.3287
     11 C           1.7748  -11.0175  -35.6754 C.ar    1  UNL1        0.3286
     12 C           4.8041  -10.2120  -32.6810 C.3     1  UNL1        0.0456
     13 N           2.9253  -11.7874  -35.6398 N.ar    1  UNL1       -0.2747
     14 O           4.6644   -8.2185  -30.5631 O.co2   1  UNL1       -0.7684
     15 C           5.2435   -7.8785  -31.7671 C.ar    1  UNL1       -0.0857
     16 C           5.3531   -8.8026  -32.8226 C.ar    1  UNL1       -0.0417
     17 O           2.3156   -8.7029  -32.8949 O.co2   1  UNL1       -0.8611
     18 C           5.7373   -6.5717  -31.9205 C.ar    1  UNL1       -0.0266
     19 O           3.9216  -12.8060  -31.8033 O.2     1  UNL1       -0.2672
     20 C           5.9737   -8.4093  -34.0249 C.ar    1  UNL1       -0.0548
     21 O           2.9557  -11.2341  -27.5838 O.2     1  UNL1       -0.2465
     22 O           0.9607  -11.2867  -36.5423 O.2     1  UNL1       -0.2465
     23 O           4.8867  -12.2978  -34.7208 O.2     1  UNL1       -0.2674
     24 C           0.3499   -9.1735  -34.7812 C.3     1  UNL1        0.0155
     25 C           2.9777  -13.4544  -29.2969 C.3     1  UNL1        0.0196
     26 C           6.3486   -6.1838  -33.1229 C.ar    1  UNL1        0.1163
     27 C           6.4689   -7.1051  -34.1752 C.ar    1  UNL1       -0.0199
     28 O           6.8281   -4.9131  -33.2664 O.3     1  UNL1       -0.5068
     29 H           3.7457   -9.0828  -28.3862 H       1  UNL1        0.1693
     30 H           5.6124  -10.8902  -32.8587 H       1  UNL1        0.0450
     31 H           3.0426  -12.5079  -36.3004 H       1  UNL1        0.1734
     32 H           5.6501   -5.8950  -31.1463 H       1  UNL1        0.0648
     33 H           6.0646   -9.0848  -34.7998 H       1  UNL1        0.0622
     34 H           0.3805   -8.4408  -34.0020 H       1  UNL1        0.0457
     35 H          -0.4992   -9.8092  -34.6398 H       1  UNL1        0.0457
     36 H           0.2745   -8.6832  -35.7291 H       1  UNL1        0.0457
     37 H           3.0905  -14.1106  -30.1345 H       1  UNL1        0.0458
     38 H           1.9488  -13.4217  -29.0053 H       1  UNL1        0.0458
     39 H           3.5686  -13.8136  -28.4803 H       1  UNL1        0.0458
     40 H           6.9213   -6.8233  -35.0588 H       1  UNL1        0.0654
     41 H           6.7598   -4.3037  -32.5579 H       1  UNL1        0.2921
@<TRIPOS>BOND
     1     2    12    1
     2     2     3   ar
     3     1     4   ar
     4     1     5   ar
     5     3     6   ar
     6     5     7   ar
     7     4     8   ar
     8     2     9   ar
     9     7    10   ar
    10    11    13   ar
    11     1    12    1
    12     9    13   ar
    13     4    14    1
    14    15    16   ar
    15    12    16    1
    16     3    17    1
    17    15    18   ar
    18     5    19    2
    19    16    20   ar
    20    10    21    2
    21    11    22    2
    22     9    23    2
    23     6    24    1
    24     7    25    1
    25    26    27   ar
    26    20    27   ar
    27    26    28    1
    28    14    15    1
    29     8    10   ar
    30    18    26   ar
    31     6    11   ar
    32     8    29    1
    33    12    30    1
    34    13    31    1
    35    18    32    1
    36    20    33    1
    37    24    34    1
    38    24    35    1
    39    24    36    1
    40    25    37    1
    41    25    38    1
    42    25    39    1
    43    27    40    1
    44    28    41    1
@<TRIPOS>SUBSTRUCTURE
     1 UNL1        1 TEMP              0 ****  ****    0 ROOT


