HTS1710-00099256-01
 OpenBabel03232612343D

 46 45  0  0  0  0  0  0  0  0999 V2000
    3.2040  -12.0183  -27.9401 C   0  0  0  0  0  0  0  0  0  0  0  0
    6.1317  -14.2931  -27.4443 C   0  0  0  0  0  0  0  0  0  0  0  0
    4.0094   -9.4595  -36.1641 C   0  0  0  0  0  0  0  0  0  0  0  0
    4.8608   -8.9949  -32.1399 C   0  0  0  0  0  0  0  0  0  0  0  0
    3.8928  -14.3249  -28.4702 N   0  3  0  0  0  0  0  0  0  0  0  0
    3.7966  -10.4309  -33.8160 N   0  3  0  0  0  0  0  0  0  0  0  0
    6.4651  -13.3535  -28.1423 O   0  5  0  0  0  0  0  0  0  0  0  0
    4.0417  -11.6133  -28.7248 O   0  5  0  0  0  0  0  0  0  0  0  0
    5.1421   -9.1650  -35.8280 O   0  5  0  0  0  0  0  0  0  0  0  0
    5.2095   -9.4616  -31.0717 O   0  5  0  0  0  0  0  0  0  0  0  0
    4.9960  -15.1683  -27.9598 C   0  0  0  0  0  0  0  0  0  0  0  0
    3.3768  -13.4351  -27.4101 C   0  0  0  0  0  0  0  0  0  0  0  0
    3.1143  -10.0701  -35.0862 C   0  0  0  0  0  0  0  0  0  0  0  0
    3.5360   -9.4836  -32.7127 C   0  0  0  0  0  0  0  0  0  0  0  0
    3.5322   -9.2909  -37.2716 O   0  0  0  0  0  0  0  0  0  0  0  0
    2.2391  -11.3938  -27.5376 O   0  0  0  0  0  0  0  0  0  0  0  0
    5.4732   -8.1698  -32.7947 O   0  0  0  0  0  0  0  0  0  0  0  0
    6.6138  -14.5914  -26.3675 O   0  0  0  0  0  0  0  0  0  0  0  0
    3.6542  -11.8521  -33.4063 C   0  0  0  0  0  0  0  0  0  0  0  0
    2.7945  -15.1192  -29.0781 C   0  0  0  0  0  0  0  0  0  0  0  0
    1.9241  -14.3249  -30.0914 C   0  0  0  0  0  0  0  0  0  0  0  0
    2.2060  -12.4232  -33.3933 C   0  0  0  0  0  0  0  0  0  0  0  0
    2.1176  -13.7498  -32.6002 C   0  0  0  0  0  0  0  0  0  0  0  0
    2.7807  -13.6692  -31.1992 C   0  0  0  0  0  0  0  0  0  0  0  0
    4.2847  -13.7509  -29.2167 H   0  0  0  0  0  0  0  0  0  0  0  0
    4.7862  -10.3330  -34.0432 H   0  0  0  0  0  0  0  0  0  0  0  0
    4.6322  -15.7816  -27.1621 H   0  0  0  0  0  0  0  0  0  0  0  0
    5.3622  -15.7833  -28.7551 H   0  0  0  0  0  0  0  0  0  0  0  0
    4.0675  -13.4235  -26.5930 H   0  0  0  0  0  0  0  0  0  0  0  0
    2.4256  -13.8009  -27.0841 H   0  0  0  0  0  0  0  0  0  0  0  0
    2.6742  -10.9588  -35.4879 H   0  0  0  0  0  0  0  0  0  0  0  0
    2.4025   -9.3127  -34.8322 H   0  0  0  0  0  0  0  0  0  0  0  0
    2.9782   -8.6491  -33.0834 H   0  0  0  0  0  0  0  0  0  0  0  0
    2.9750   -9.9748  -31.9455 H   0  0  0  0  0  0  0  0  0  0  0  0
    4.0515  -11.9479  -32.4174 H   0  0  0  0  0  0  0  0  0  0  0  0
    4.1777  -12.4174  -34.1488 H   0  0  0  0  0  0  0  0  0  0  0  0
    2.1591  -15.4709  -28.2923 H   0  0  0  0  0  0  0  0  0  0  0  0
    3.2550  -15.9158  -29.6242 H   0  0  0  0  0  0  0  0  0  0  0  0
    1.3937  -13.5587  -29.5654 H   0  0  0  0  0  0  0  0  0  0  0  0
    1.2489  -15.0117  -30.5576 H   0  0  0  0  0  0  0  0  0  0  0  0
    1.8949  -12.6012  -34.4016 H   0  0  0  0  0  0  0  0  0  0  0  0
    1.5706  -11.7072  -32.9154 H   0  0  0  0  0  0  0  0  0  0  0  0
    2.6062  -14.5166  -33.1642 H   0  0  0  0  0  0  0  0  0  0  0  0
    1.0797  -13.9618  -32.4493 H   0  0  0  0  0  0  0  0  0  0  0  0
    2.9306  -12.6393  -30.9508 H   0  0  0  0  0  0  0  0  0  0  0  0
    3.7059  -14.2044  -31.2498 H   0  0  0  0  0  0  0  0  0  0  0  0
  1  8  1  0  0  0  0
  1 12  1  0  0  0  0
  1 16  2  0  0  0  0
  2 11  1  0  0  0  0
  2  7  1  0  0  0  0
  2 18  2  0  0  0  0
  3 13  1  0  0  0  0
  3  9  1  0  0  0  0
  3 15  2  0  0  0  0
  4 14  1  0  0  0  0
  4 10  1  0  0  0  0
  4 17  2  0  0  0  0
  5 12  1  0  0  0  0
  5 11  1  0  0  0  0
  5 20  1  0  0  0  0
  5 25  1  0  0  0  0
  6 19  1  0  0  0  0
  6 13  1  0  0  0  0
  6 14  1  0  0  0  0
  6 26  1  0  0  0  0
 11 27  1  0  0  0  0
 11 28  1  0  0  0  0
 12 29  1  0  0  0  0
 12 30  1  0  0  0  0
 13 31  1  0  0  0  0
 13 32  1  0  0  0  0
 14 33  1  0  0  0  0
 14 34  1  0  0  0  0
 19 22  1  0  0  0  0
 19 35  1  0  0  0  0
 19 36  1  0  0  0  0
 20 21  1  0  0  0  0
 20 37  1  0  0  0  0
 20 38  1  0  0  0  0
 21 24  1  0  0  0  0
 21 39  1  0  0  0  0
 21 40  1  0  0  0  0
 22 23  1  0  0  0  0
 22 41  1  0  0  0  0
 22 42  1  0  0  0  0
 23 24  1  0  0  0  0
 23 43  1  0  0  0  0
 23 44  1  0  0  0  0
 24 45  1  0  0  0  0
 24 46  1  0  0  0  0
M  CHG  6   5   1   6   1   7  -1   8  -1   9  -1  10  -1
M  END
$$$$
