HTS1710-01553850-01
 OpenBabel03232612363D

 33 34  0  0  1  0  0  0  0  0999 V2000
    2.5977  -10.2468  -32.3676 N   0  0  0  0  0  0  0  0  0  0  0  0
    2.5143  -11.5763  -32.7675 C   0  0  0  0  0  0  0  0  0  0  0  0
    1.7769   -9.3811  -33.0910 C   0  0  0  0  0  0  0  0  0  0  0  0
    1.0481  -10.1360  -34.1401 C   0  0  0  0  0  0  0  0  0  0  0  0
    1.3275  -11.8629  -34.0716 S   0  0  0  0  0  0  0  0  0  0  0  0
    3.4911   -9.7577  -31.2815 C   0  0  2  0  0  0  0  0  0  0  0  0
    2.7066   -8.9581  -30.1994 C   0  0  0  0  0  0  0  0  0  0  0  0
    0.1730   -9.6162  -35.0710 C   0  0  0  0  0  0  0  0  0  0  0  0
    4.7082   -9.0102  -31.8735 C   0  0  0  0  0  0  0  0  0  0  0  0
    3.4601  -12.8383  -32.1964 S   0  0  0  0  0  0  0  0  0  0  0  0
    2.9431   -9.5131  -28.7874 C   0  0  0  0  0  0  0  0  0  0  0  0
   -1.9296   -6.4543  -35.0409 C   0  0  0  0  0  0  0  0  0  0  0  0
    1.6558   -8.1942  -32.8442 O   0  0  0  0  0  0  0  0  0  0  0  0
   -0.3327   -8.2650  -35.4550 C   0  0  0  0  0  0  0  0  0  0  0  0
   -1.4051   -5.7321  -36.1275 C   0  0  0  0  0  0  0  0  0  0  0  0
   -1.4027   -7.7169  -34.7179 C   0  0  0  0  0  0  0  0  0  0  0  0
    4.7461   -8.8259  -33.0788 O   0  5  0  0  0  0  0  0  0  0  0  0
    2.1991  -10.3974  -28.4012 O   0  5  0  0  0  0  0  0  0  0  0  0
   -0.3689   -6.2871  -36.8925 C   0  0  0  0  0  0  0  0  0  0  0  0
    5.5623   -8.6425  -31.0846 O   0  0  0  0  0  0  0  0  0  0  0  0
    0.1567   -7.5470  -36.5652 C   0  0  0  0  0  0  0  0  0  0  0  0
    3.8491   -9.0177  -28.1392 O   0  0  0  0  0  0  0  0  0  0  0  0
   -2.9536   -5.9395  -34.2955 O   0  0  0  0  0  0  0  0  0  0  0  0
   -1.9093   -4.5042  -36.4589 O   0  0  0  0  0  0  0  0  0  0  0  0
    3.8899  -10.5998  -30.7554 H   0  0  0  0  0  0  0  0  0  0  0  0
    1.6611   -9.0120  -30.4208 H   0  0  0  0  0  0  0  0  0  0  0  0
    3.0556   -7.9468  -30.2190 H   0  0  0  0  0  0  0  0  0  0  0  0
   -0.2419  -10.3574  -35.6570 H   0  0  0  0  0  0  0  0  0  0  0  0
   -1.8043   -8.2499  -33.9307 H   0  0  0  0  0  0  0  0  0  0  0  0
    0.0090   -5.7668  -37.6998 H   0  0  0  0  0  0  0  0  0  0  0  0
    0.9094   -7.9520  -37.1435 H   0  0  0  0  0  0  0  0  0  0  0  0
   -3.2725   -5.0761  -34.4707 H   0  0  0  0  0  0  0  0  0  0  0  0
   -2.5564   -4.1009  -35.9142 H   0  0  0  0  0  0  0  0  0  0  0  0
  1  2  1  0  0  0  0
  1  3  1  0  0  0  0
  1  6  1  0  0  0  0
  2  5  1  0  0  0  0
  2 10  2  0  0  0  0
  3  4  1  0  0  0  0
  3 13  2  0  0  0  0
  4  8  2  0  0  0  0
  4  5  1  0  0  0  0
  6  7  1  0  0  0  0
  6  9  1  0  0  0  0
  6 25  1  1  0  0  0
  7 11  1  0  0  0  0
  7 26  1  0  0  0  0
  7 27  1  0  0  0  0
  8 14  1  0  0  0  0
  8 28  1  0  0  0  0
  9 17  1  0  0  0  0
  9 20  2  0  0  0  0
 11 18  1  0  0  0  0
 11 22  2  0  0  0  0
 12 16  2  0  0  0  0
 12 23  1  0  0  0  0
 12 15  1  0  0  0  0
 14 16  1  0  0  0  0
 14 21  2  0  0  0  0
 15 19  2  0  0  0  0
 15 24  1  0  0  0  0
 16 29  1  0  0  0  0
 19 21  1  0  0  0  0
 19 30  1  0  0  0  0
 21 31  1  0  0  0  0
 23 32  1  0  0  0  0
 24 33  1  0  0  0  0
M  CHG  2  17  -1  18  -1
M  END
$$$$
