HTS1710-03215314-01
 OpenBabel03232612363D

 47 48  0  0  0  0  0  0  0  0999 V2000
    3.0659   -8.8662  -32.4195 C   0  0  0  0  0  0  0  0  0  0  0  0
    3.6131  -10.5376  -32.8384 S   0  0  0  0  0  0  0  0  0  0  0  0
    3.7773   -7.7498  -31.9750 C   0  0  0  0  0  0  0  0  0  0  0  0
    2.8714   -6.6310  -31.7333 C   0  0  0  0  0  0  0  0  0  0  0  0
    1.3536   -8.5343  -32.5941 S   0  0  0  0  0  0  0  0  0  0  0  0
    1.5448   -6.8762  -32.0676 C   0  0  0  0  0  0  0  0  0  0  0  0
    3.3811  -11.4209  -31.3975 N   0  0  0  0  0  0  0  0  0  0  0  0
    3.5944  -12.9286  -28.8952 N   0  0  0  0  0  0  0  0  0  0  0  0
    3.4962  -13.6366  -27.6887 C   0  0  0  0  0  0  0  0  0  0  0  0
    5.2773   -7.7071  -31.7929 C   0  0  0  0  0  0  0  0  0  0  0  0
    0.3592   -5.9669  -32.0507 C   0  0  0  0  0  0  0  0  0  0  0  0
    5.0525  -10.5183  -33.1207 O   0  0  0  0  0  0  0  0  0  0  0  0
    2.6530  -11.0551  -33.8190 O   0  0  0  0  0  0  0  0  0  0  0  0
    3.7133  -10.7156  -30.1470 C   0  0  0  0  0  0  0  0  0  0  0  0
    3.9311  -12.7855  -31.4101 C   0  0  0  0  0  0  0  0  0  0  0  0
    3.2241  -11.4905  -28.9019 C   0  0  0  0  0  0  0  0  0  0  0  0
    3.4353  -13.6141  -30.2059 C   0  0  0  0  0  0  0  0  0  0  0  0
    3.8861  -15.1291  -27.7060 C   0  0  0  0  0  0  0  0  0  0  0  0
    3.2030  -13.0924  -26.6371 O   0  0  0  0  0  0  0  0  0  0  0  0
    5.9641   -7.1767  -32.6467 O   0  5  0  0  0  0  0  0  0  0  0  0
   -0.7624   -6.4329  -31.9785 O   0  5  0  0  0  0  0  0  0  0  0  0
    3.3788   -5.3231  -31.1369 C   0  0  0  0  0  0  0  0  0  0  0  0
    5.7612   -8.2220  -30.8044 O   0  0  0  0  0  0  0  0  0  0  0  0
    0.5890   -4.7700  -32.0965 O   0  0  0  0  0  0  0  0  0  0  0  0
    5.4086  -15.3661  -27.9337 C   0  0  0  0  0  0  0  0  0  0  0  0
    5.8031  -16.8066  -27.5272 C   0  0  0  0  0  0  0  0  0  0  0  0
    6.2656  -14.3278  -27.1666 C   0  0  0  0  0  0  0  0  0  0  0  0
    3.2489   -9.7518  -30.1594 H   0  0  0  0  0  0  0  0  0  0  0  0
    4.7782  -10.6294  -30.0873 H   0  0  0  0  0  0  0  0  0  0  0  0
    4.9990  -12.7289  -31.3754 H   0  0  0  0  0  0  0  0  0  0  0  0
    3.6005  -13.2692  -32.3055 H   0  0  0  0  0  0  0  0  0  0  0  0
    3.6474  -11.0310  -28.0331 H   0  0  0  0  0  0  0  0  0  0  0  0
    2.1551  -11.4484  -28.9141 H   0  0  0  0  0  0  0  0  0  0  0  0
    2.3970  -13.8292  -30.3497 H   0  0  0  0  0  0  0  0  0  0  0  0
    4.0369  -14.4983  -30.1688 H   0  0  0  0  0  0  0  0  0  0  0  0
    3.3459  -15.6121  -28.4933 H   0  0  0  0  0  0  0  0  0  0  0  0
    3.6433  -15.5310  -26.7446 H   0  0  0  0  0  0  0  0  0  0  0  0
    4.4339   -5.3915  -30.9728 H   0  0  0  0  0  0  0  0  0  0  0  0
    2.8842   -5.1400  -30.2059 H   0  0  0  0  0  0  0  0  0  0  0  0
    3.1744   -4.5197  -31.8134 H   0  0  0  0  0  0  0  0  0  0  0  0
    5.6045  -15.2409  -28.9781 H   0  0  0  0  0  0  0  0  0  0  0  0
    5.6128  -16.9475  -26.4836 H   0  0  0  0  0  0  0  0  0  0  0  0
    6.8436  -16.9604  -27.7239 H   0  0  0  0  0  0  0  0  0  0  0  0
    5.2257  -17.5076  -28.0929 H   0  0  0  0  0  0  0  0  0  0  0  0
    6.0913  -14.4280  -26.1157 H   0  0  0  0  0  0  0  0  0  0  0  0
    5.9957  -13.3411  -27.4804 H   0  0  0  0  0  0  0  0  0  0  0  0
    7.3015  -14.4974  -27.3742 H   0  0  0  0  0  0  0  0  0  0  0  0
  1  2  1  0  0  0  0
  1  3  2  0  0  0  0
  1  5  1  0  0  0  0
  2  7  1  0  0  0  0
  2 12  2  0  0  0  0
  2 13  2  0  0  0  0
  3  4  1  0  0  0  0
  3 10  1  0  0  0  0
  4  6  2  0  0  0  0
  4 22  1  0  0  0  0
  5  6  1  0  0  0  0
  6 11  1  0  0  0  0
  7 14  1  0  0  0  0
  7 15  1  0  0  0  0
  8  9  1  0  0  0  0
  8 16  1  0  0  0  0
  8 17  1  0  0  0  0
  9 18  1  0  0  0  0
  9 19  2  0  0  0  0
 10 20  1  0  0  0  0
 10 23  2  0  0  0  0
 11 21  1  0  0  0  0
 11 24  2  0  0  0  0
 14 16  1  0  0  0  0
 14 28  1  0  0  0  0
 14 29  1  0  0  0  0
 15 17  1  0  0  0  0
 15 30  1  0  0  0  0
 15 31  1  0  0  0  0
 16 32  1  0  0  0  0
 16 33  1  0  0  0  0
 17 34  1  0  0  0  0
 17 35  1  0  0  0  0
 18 25  1  0  0  0  0
 18 36  1  0  0  0  0
 18 37  1  0  0  0  0
 22 38  1  0  0  0  0
 22 39  1  0  0  0  0
 22 40  1  0  0  0  0
 25 26  1  0  0  0  0
 25 27  1  0  0  0  0
 25 41  1  0  0  0  0
 26 42  1  0  0  0  0
 26 43  1  0  0  0  0
 26 44  1  0  0  0  0
 27 45  1  0  0  0  0
 27 46  1  0  0  0  0
 27 47  1  0  0  0  0
M  CHG  2  20  -1  21  -1
M  END
$$$$
