##########                                Name: HTS1710-02905540-01
##########                    Molecular_Weight:             390.373
##########                DOCK_Rotatable_Bonds:                   7
##########                       Formal_Charge:                  -2
##########                     HBond_Acceptors:                  10
##########                        HBond_Donors:                   1
##########                         Heavy_Atoms:                  27
##########                          Grid_Score:          -77.439766
##########                     Grid_vdw_energy:          -45.764297
##########                      Grid_es_energy:          -31.675468
##########           Internal_energy_repulsive:           16.281279

@<TRIPOS>MOLECULE
HTS1710-02905540-01
 41 43 1 0 0
SMALL
USER_CHARGES


@<TRIPOS>ATOM
      1 S           0.7523  -10.4911  -34.9467 S.O2    1  UNL1        0.0596
      2 N           2.9807  -12.7772  -29.8498 N.am    1  UNL1       -0.2671
      3 C           3.3833  -11.5916  -29.2287 C.2     1  UNL1        0.2515
      4 C           2.4091  -12.4512  -31.1062 C.ar    1  UNL1        0.0451
      5 C           2.4499  -11.0926  -31.2843 C.ar    1  UNL1        0.0175
      6 C           3.0254  -10.4969  -30.1887 C.ar    1  UNL1        0.0468
      7 C           1.4104  -11.2213  -33.4285 C.ar    1  UNL1        0.1131
      8 N           2.0904   -9.6493  -35.5846 N.3     1  UNL1       -0.1810
      9 C           2.9750  -10.3086  -36.5675 C.3     1  UNL1        0.0730
     10 C           1.9758  -10.4211  -32.3986 C.ar    1  UNL1        0.0110
     11 C           4.0710  -11.1186  -35.8211 C.3     1  UNL1        0.0090
     12 C           3.5838   -9.3027  -37.5689 C.2     1  UNL1        0.0606
     13 C           1.8528  -13.2688  -32.0939 C.ar    1  UNL1       -0.0378
     14 C           1.3518  -12.6378  -33.2590 C.ar    1  UNL1       -0.0330
     15 O           0.4894  -11.5342  -35.9423 O.2     1  UNL1       -0.1530
     16 O          -0.2568   -9.4888  -34.5868 O.2     1  UNL1       -0.1530
     17 C           4.6965  -10.3784  -34.6269 C.2     1  UNL1        0.0436
     18 O           3.9130  -11.4756  -28.1379 O.2     1  UNL1       -0.2696
     19 O           2.9632   -9.0560  -38.5902 O.co2   1  UNL1       -0.5481
     20 O           4.6350   -9.1613  -34.6284 O.co2   1  UNL1       -0.5498
     21 C           3.0974  -14.1331  -29.2942 C.3     1  UNL1        0.0173
     22 O           4.6770   -8.8432  -37.2843 O.co2   1  UNL1       -0.5481
     23 C           3.1653   -9.1059  -30.1397 C.ar    1  UNL1       -0.0490
     24 C           2.1010   -9.0103  -32.3736 C.ar    1  UNL1       -0.0521
     25 O           5.1745  -11.0605  -33.7355 O.co2   1  UNL1       -0.5498
     26 C           2.6932   -8.3658  -31.2521 C.ar    1  UNL1       -0.0604
     27 C           1.8982  -14.4934  -28.3968 C.3     1  UNL1       -0.0489
     28 H           2.6760   -9.3829  -34.7930 H       1  UNL1        0.1487
     29 H           2.3869  -10.9853  -37.1515 H       1  UNL1        0.0542
     30 H           4.8495  -11.3510  -36.5173 H       1  UNL1        0.0344
     31 H           3.5942  -11.9916  -35.4269 H       1  UNL1        0.0344
     32 H           1.8086  -14.2934  -31.9787 H       1  UNL1        0.0637
     33 H           0.9340  -13.2166  -34.0042 H       1  UNL1        0.0638
     34 H           3.9939  -14.1926  -28.7132 H       1  UNL1        0.0466
     35 H           3.1192  -14.8245  -30.1106 H       1  UNL1        0.0466
     36 H           3.5948   -8.6378  -29.3265 H       1  UNL1        0.0625
     37 H           1.7620   -8.4489  -33.1704 H       1  UNL1        0.0624
     38 H           2.7808   -7.3375  -31.2485 H       1  UNL1        0.0618
     39 H           1.8542  -13.8147  -27.5708 H       1  UNL1        0.0245
     40 H           2.0133  -15.4926  -28.0318 H       1  UNL1        0.0245
     41 H           0.9940  -14.4231  -28.9647 H       1  UNL1        0.0245
@<TRIPOS>BOND
     1     1     7    1
     2     1     8    1
     3     1    15    2
     4     1    16    2
     5     2     3   am
     6     2     4    1
     7     2    21    1
     8     3     6    1
     9     3    18    2
    10     4     5   ar
    11     4    13   ar
    12     5     6   ar
    13     5    10   ar
    14     6    23   ar
    15     7    10   ar
    16     7    14   ar
    17     8     9    1
    18     9    11    1
    19     9    12    1
    20    10    24   ar
    21    11    17    1
    22    12    19   ar
    23    12    22   ar
    24    13    14   ar
    25    17    20   ar
    26    17    25   ar
    27    21    27    1
    28    23    26   ar
    29    24    26   ar
    30     8    28    1
    31     9    29    1
    32    11    30    1
    33    11    31    1
    34    13    32    1
    35    14    33    1
    36    21    34    1
    37    21    35    1
    38    23    36    1
    39    24    37    1
    40    26    38    1
    41    27    39    1
    42    27    40    1
    43    27    41    1
@<TRIPOS>SUBSTRUCTURE
     1 UNL1        1 TEMP              0 ****  ****    0 ROOT


