##########                                Name: HTS1710-02609194-01
##########                    Molecular_Weight:             344.409
##########                DOCK_Rotatable_Bonds:                  12
##########                       Formal_Charge:                  -2
##########                     HBond_Acceptors:                   8
##########                        HBond_Donors:                   0
##########                         Heavy_Atoms:                  22
##########                          Grid_Score:          -74.866882
##########                     Grid_vdw_energy:          -41.559311
##########                      Grid_es_energy:          -33.307575
##########           Internal_energy_repulsive:            4.823720

@<TRIPOS>MOLECULE
HTS1710-02609194-01
 38 38 1 0 0
SMALL
USER_CHARGES


@<TRIPOS>ATOM
      1 C           3.8873   -9.3522  -37.0363 C.2     1  UNL1        0.0515
      2 C           7.4396  -16.9695  -25.4353 C.2     1  UNL1        0.0515
      3 O           3.6766   -8.8584  -38.1312 O.co2   1  UNL1       -0.5490
      4 O           6.3032  -17.2727  -25.1154 O.co2   1  UNL1       -0.5490
      5 C           2.3761  -11.8603  -31.3729 C.ar    1  UNL1        0.1208
      6 C           3.3222  -12.9562  -28.9478 C.ar    1  UNL1        0.1208
      7 O           8.4445  -17.2429  -24.8035 O.co2   1  UNL1       -0.5490
      8 O           4.8663   -9.1362  -36.3451 O.co2   1  UNL1       -0.5490
      9 S           6.5477  -14.6948  -26.8660 S.3     1  UNL1       -0.1515
     10 S           1.8525   -9.5983  -35.0831 S.3     1  UNL1       -0.1515
     11 C           2.7167  -11.0215  -30.2991 C.ar    1  UNL1       -0.0165
     12 C           2.9853  -13.8040  -30.0253 C.ar    1  UNL1       -0.0165
     13 C           3.1859  -11.5660  -29.0933 C.ar    1  UNL1       -0.0165
     14 C           2.5177  -13.2580  -31.2334 C.ar    1  UNL1       -0.0165
     15 C           7.6473  -16.1768  -26.7355 C.3     1  UNL1        0.0333
     16 C           2.8508  -10.3290  -36.4610 C.3     1  UNL1        0.0333
     17 O           1.9218  -11.2702  -32.5390 O.3     1  UNL1       -0.4911
     18 O           3.7889  -13.4425  -27.7424 O.3     1  UNL1       -0.4911
     19 C           0.7315  -11.0078  -34.6726 C.3     1  UNL1        0.0283
     20 C           5.1661  -15.4284  -27.8420 C.3     1  UNL1        0.0283
     21 C           1.3619  -11.9920  -33.6551 C.3     1  UNL1        0.0985
     22 C           3.8054  -14.8439  -27.4129 C.3     1  UNL1        0.0985
     23 H           2.6214   -9.9987  -30.3972 H       1  UNL1        0.0655
     24 H           3.0825  -14.8266  -29.9258 H       1  UNL1        0.0655
     25 H           3.4320  -10.9414  -28.3095 H       1  UNL1        0.0655
     26 H           2.2772  -13.8807  -32.0205 H       1  UNL1        0.0655
     27 H           7.4470  -16.8234  -27.5642 H       1  UNL1        0.0437
     28 H           8.6579  -15.8252  -26.7367 H       1  UNL1        0.0437
     29 H           3.3645  -11.1910  -36.0896 H       1  UNL1        0.0437
     30 H           2.1725  -10.5767  -37.2506 H       1  UNL1        0.0437
     31 H           0.5079  -11.5415  -35.5726 H       1  UNL1        0.0410
     32 H          -0.1517  -10.6008  -34.2262 H       1  UNL1        0.0410
     33 H           5.1547  -16.4873  -27.6885 H       1  UNL1        0.0410
     34 H           5.3224  -15.1975  -28.8750 H       1  UNL1        0.0410
     35 H           0.6076  -12.6623  -33.2990 H       1  UNL1        0.0705
     36 H           2.1418  -12.5410  -34.1402 H       1  UNL1        0.0705
     37 H           3.0162  -15.3466  -27.9321 H       1  UNL1        0.0705
     38 H           3.6637  -14.9760  -26.3606 H       1  UNL1        0.0705
@<TRIPOS>BOND
     1     1     3   ar
     2     1     8   ar
     3     1    16    1
     4     2     4   ar
     5     2     7   ar
     6     2    15    1
     7     5    11   ar
     8     5    14   ar
     9     5    17    1
    10     6    12   ar
    11     6    13   ar
    12     6    18    1
    13     9    15    1
    14     9    20    1
    15    10    16    1
    16    10    19    1
    17    11    13   ar
    18    12    14   ar
    19    17    21    1
    20    18    22    1
    21    19    21    1
    22    20    22    1
    23    11    23    1
    24    12    24    1
    25    13    25    1
    26    14    26    1
    27    15    27    1
    28    15    28    1
    29    16    29    1
    30    16    30    1
    31    19    31    1
    32    19    32    1
    33    20    33    1
    34    20    34    1
    35    21    35    1
    36    21    36    1
    37    22    37    1
    38    22    38    1
@<TRIPOS>SUBSTRUCTURE
     1 UNL1        1 TEMP              0 ****  ****    0 ROOT


