##########                                Name: HTS1710-00617429-01
##########                    Molecular_Weight:             395.368
##########                DOCK_Rotatable_Bonds:                   8
##########                       Formal_Charge:                  -2
##########                     HBond_Acceptors:                   8
##########                        HBond_Donors:                   1
##########                         Heavy_Atoms:                  29
##########                          Grid_Score:          -81.581245
##########                     Grid_vdw_energy:          -39.701427
##########                      Grid_es_energy:          -41.879818
##########           Internal_energy_repulsive:           12.314609

@<TRIPOS>MOLECULE
HTS1710-00617429-01
 46 48 1 0 0
SMALL
USER_CHARGES


@<TRIPOS>ATOM
      1 C           4.3986  -11.7001  -31.2564 C.3     1  UNL1        0.0800
      2 C           3.9891  -11.0913  -29.9115 C.2     1  UNL1        0.0218
      3 N           4.8579  -10.5083  -32.0118 N.am    1  UNL1       -0.2870
      4 C           3.2408  -12.4309  -31.9329 C.ar    1  UNL1       -0.0188
      5 C           3.4984  -11.9781  -28.8073 C.2     1  UNL1        0.1909
      6 C           4.1830   -9.7561  -29.9789 C.2     1  UNL1       -0.0354
      7 C           4.7222   -9.3424  -31.2816 C.2     1  UNL1        0.2329
      8 C           5.3651  -10.6168  -33.3890 C.3     1  UNL1        0.0209
      9 C           2.3223  -11.7150  -32.7225 C.ar    1  UNL1       -0.0110
     10 C           3.0960  -13.8246  -31.7924 C.ar    1  UNL1       -0.0528
     11 C           4.3763  -13.0885  -28.3154 C.ar    1  UNL1        0.0220
     12 O           2.4064  -11.8003  -28.2949 O.2     1  UNL1       -0.2869
     13 O           3.9820   -8.8434  -29.0004 O.co2   1  UNL1       -0.8701
     14 O           5.0043   -8.2154  -31.6509 O.2     1  UNL1       -0.2712
     15 C           4.5703   -9.7266  -34.3695 C.3     1  UNL1        0.0027
     16 C           1.2610  -12.3860  -33.3704 C.ar    1  UNL1        0.1616
     17 C           2.0395  -14.4938  -32.4256 C.ar    1  UNL1       -0.0162
     18 C           3.9875  -14.4325  -28.4757 C.ar    1  UNL1       -0.0509
     19 C           5.6262  -12.7937  -27.7391 C.ar    1  UNL1       -0.0509
     20 C           5.4654   -8.6651  -35.0160 C.2     1  UNL1        0.0432
     21 C           1.1236  -13.7788  -33.2128 C.ar    1  UNL1        0.1585
     22 O           0.3487  -11.7163  -34.1655 O.3     1  UNL1       -0.4914
     23 C           4.8271  -15.4685  -28.0366 C.ar    1  UNL1       -0.0611
     24 C           6.4651  -13.8304  -27.2999 C.ar    1  UNL1       -0.0611
     25 O           6.1424   -7.9786  -34.2700 O.co2   1  UNL1       -0.5498
     26 O           5.4532   -8.5896  -36.2319 O.co2   1  UNL1       -0.5498
     27 O           0.1015  -14.4424  -33.8306 O.3     1  UNL1       -0.5033
     28 C           0.4413  -10.3104  -34.4552 C.3     1  UNL1        0.0790
     29 C           6.0644  -15.1687  -27.4461 C.ar    1  UNL1       -0.0617
     30 H           5.1500  -12.4579  -31.1785 H       1  UNL1        0.0602
     31 H           5.2872  -11.6356  -33.7066 H       1  UNL1        0.0468
     32 H           6.3829  -10.2871  -33.3936 H       1  UNL1        0.0468
     33 H           2.4243  -10.6936  -32.8290 H       1  UNL1        0.0659
     34 H           3.7710  -14.3559  -31.2206 H       1  UNL1        0.0622
     35 H           3.7824   -9.2383  -33.8350 H       1  UNL1        0.0340
     36 H           4.1757  -10.3500  -35.1443 H       1  UNL1        0.0340
     37 H           1.9349  -15.5143  -32.3128 H       1  UNL1        0.0655
     38 H           3.0821  -14.6566  -28.9175 H       1  UNL1        0.0625
     39 H           5.9272  -11.8116  -27.6390 H       1  UNL1        0.0625
     40 H           4.5340  -16.4518  -28.1482 H       1  UNL1        0.0618
     41 H           7.3765  -13.6090  -26.8695 H       1  UNL1        0.0618
     42 H          -0.4933  -13.9756  -34.3840 H       1  UNL1        0.2923
     43 H          -0.3728  -10.0221  -35.0870 H       1  UNL1        0.0660
     44 H           1.3672  -10.1088  -34.9521 H       1  UNL1        0.0660
     45 H           0.3982   -9.7544  -33.5419 H       1  UNL1        0.0660
     46 H           6.6792  -15.9306  -27.1196 H       1  UNL1        0.0618
@<TRIPOS>BOND
     1     1     2    1
     2     1     3    1
     3     1     4    1
     4     2     5    1
     5     2     6    2
     6     3     7   am
     7     3     8    1
     8     4     9   ar
     9     4    10   ar
    10     5    11    1
    11     5    12    2
    12     6    13    1
    13     7    14    2
    14     8    15    1
    15     9    16   ar
    16    10    17   ar
    17    11    18   ar
    18    11    19   ar
    19    15    20    1
    20    16    21   ar
    21    16    22    1
    22    18    23   ar
    23    19    24   ar
    24    20    25   ar
    25    20    26   ar
    26    21    27    1
    27    22    28    1
    28    23    29   ar
    29     6     7    1
    30    17    21   ar
    31    24    29   ar
    32     1    30    1
    33     8    31    1
    34     8    32    1
    35     9    33    1
    36    10    34    1
    37    15    35    1
    38    15    36    1
    39    17    37    1
    40    18    38    1
    41    19    39    1
    42    23    40    1
    43    24    41    1
    44    27    42    1
    45    28    43    1
    46    28    44    1
    47    28    45    1
    48    29    46    1
@<TRIPOS>SUBSTRUCTURE
     1 UNL1        1 TEMP              0 ****  ****    0 ROOT


