##########                                Name: HTS1710-02590694-01
##########                    Molecular_Weight:             395.328
##########                DOCK_Rotatable_Bonds:                   7
##########                       Formal_Charge:                  -2
##########                     HBond_Acceptors:                  10
##########                        HBond_Donors:                   2
##########                         Heavy_Atoms:                  29
##########                          Grid_Score:          -75.994621
##########                     Grid_vdw_energy:          -38.158504
##########                      Grid_es_energy:          -37.836117
##########           Internal_energy_repulsive:           11.204644

@<TRIPOS>MOLECULE
HTS1710-02590694-01
 42 44 1 0 0
SMALL
USER_CHARGES


@<TRIPOS>ATOM
      1 N           0.8967   -7.9226  -32.3145 N.ar    1  UNL1       -0.2287
      2 C           1.5766   -6.9787  -31.5490 C.ar    1  UNL1        0.3335
      3 C           1.2566   -9.2754  -32.3499 C.ar    1  UNL1        0.2690
      4 C           2.4206   -9.6579  -31.4897 C.ar    1  UNL1        0.0666
      5 N           2.6550   -7.3710  -30.7863 N.ar    1  UNL1       -0.3200
      6 C           3.0753   -8.6846  -30.7404 C.ar    1  UNL1       -0.0206
      7 C           4.8669   -9.2505  -34.9256 C.ar    1  UNL1        0.0407
      8 C           2.7916  -11.0889  -31.5132 C.2     1  UNL1        0.0414
      9 C           5.8404   -8.0755  -34.8532 C.2     1  UNL1        0.0752
     10 C          -0.2213   -7.4904  -33.0968 C.ar    1  UNL1        0.0546
     11 N           3.3435  -11.6931  -32.5219 N.2     1  UNL1       -0.2548
     12 O           1.2577   -5.8018  -31.5032 O.2     1  UNL1       -0.2461
     13 O           0.6604  -10.0839  -33.0448 O.2     1  UNL1       -0.2665
     14 C           4.2748   -9.7074  -36.1384 C.ar    1  UNL1        0.1258
     15 C           4.5326   -9.9298  -33.7281 C.ar    1  UNL1       -0.0240
     16 O           6.0649   -7.6055  -33.7507 O.co2   1  UNL1       -0.5445
     17 C           3.6514  -11.0248  -33.7269 C.ar    1  UNL1        0.0647
     18 O           4.1345   -8.9338  -29.9452 O.co2   1  UNL1       -0.8610
     19 C          -0.1455   -7.4874  -34.5019 C.ar    1  UNL1       -0.0341
     20 C          -1.4073   -7.0626  -32.4695 C.ar    1  UNL1       -0.0341
     21 C           3.3893  -10.7991  -36.1265 C.ar    1  UNL1       -0.0175
     22 O           6.3450   -7.6649  -35.8834 O.co2   1  UNL1       -0.5445
     23 C          -2.4222   -6.6291  -34.6451 C.ar    1  UNL1        0.1202
     24 C           3.0784  -11.4556  -34.9305 C.ar    1  UNL1       -0.0328
     25 C          -2.5038   -6.6334  -33.2356 C.ar    1  UNL1       -0.0180
     26 C          -1.2392   -7.0584  -35.2695 C.ar    1  UNL1       -0.0180
     27 O           4.5325   -9.1191  -37.3457 O.3     1  UNL1       -0.5061
     28 O          -3.4694   -6.2147  -35.4444 O.3     1  UNL1       -0.4951
     29 C          -4.1582   -4.9668  -35.2486 C.3     1  UNL1        0.0788
     30 H           3.1393   -6.6951  -30.2593 H       1  UNL1        0.1692
     31 H           2.5982  -11.6479  -30.6675 H       1  UNL1        0.0838
     32 H           4.9453   -9.6135  -32.8366 H       1  UNL1        0.0646
     33 H           0.7186   -7.8021  -34.9702 H       1  UNL1        0.0639
     34 H          -1.4715   -7.0645  -31.4395 H       1  UNL1        0.0639
     35 H           2.9635  -11.1200  -37.0101 H       1  UNL1        0.0655
     36 H           2.4275  -12.2565  -34.9350 H       1  UNL1        0.0640
     37 H          -3.3692   -6.3211  -32.7680 H       1  UNL1        0.0655
     38 H          -1.1741   -7.0583  -36.2994 H       1  UNL1        0.0655
     39 H           4.1514   -9.4676  -38.1275 H       1  UNL1        0.2922
     40 H          -4.9274   -4.8646  -35.9854 H       1  UNL1        0.0660
     41 H          -3.4643   -4.1578  -35.3429 H       1  UNL1        0.0660
     42 H          -4.5951   -4.9500  -34.2720 H       1  UNL1        0.0660
@<TRIPOS>BOND
     1     1     2   ar
     2     1     3   ar
     3     1    10    1
     4     2     5   ar
     5     2    12    2
     6     3     4   ar
     7     3    13    2
     8     4     6   ar
     9     4     8    1
    10     5     6   ar
    11     6    18    1
    12     7     9    1
    13     7    14   ar
    14     7    15   ar
    15     8    11    2
    16     9    16   ar
    17     9    22   ar
    18    10    19   ar
    19    10    20   ar
    20    11    17    1
    21    14    21   ar
    22    14    27    1
    23    15    17   ar
    24    17    24   ar
    25    19    26   ar
    26    20    25   ar
    27    21    24   ar
    28    23    25   ar
    29    23    26   ar
    30    23    28    1
    31    28    29    1
    32     5    30    1
    33     8    31    1
    34    15    32    1
    35    19    33    1
    36    20    34    1
    37    21    35    1
    38    24    36    1
    39    25    37    1
    40    26    38    1
    41    27    39    1
    42    29    40    1
    43    29    41    1
    44    29    42    1
@<TRIPOS>SUBSTRUCTURE
     1 UNL1        1 TEMP              0 ****  ****    0 ROOT


