HTS1710-00482174-01
 OpenBabel03232612343D

 32 32  0  0  0  0  0  0  0  0999 V2000
    2.8520  -10.7136  -33.2001 C   0  0  0  0  0  0  0  0  0  0  0  0
    2.7179  -10.9314  -34.5737 N   0  0  0  0  0  0  0  0  0  0  0  0
    2.8131   -9.4115  -32.6665 C   0  0  0  0  0  0  0  0  0  0  0  0
    3.0188  -11.8008  -32.3249 C   0  0  0  0  0  0  0  0  0  0  0  0
    3.8377  -11.5702  -35.2980 C   0  0  0  0  0  0  0  0  0  0  0  0
    1.3864  -11.2132  -35.1651 C   0  0  0  0  0  0  0  0  0  0  0  0
    2.9448   -9.2008  -31.2846 C   0  0  0  0  0  0  0  0  0  0  0  0
    3.1500  -11.5934  -30.9424 C   0  0  0  0  0  0  0  0  0  0  0  0
    5.1723  -10.8054  -35.1106 C   0  0  0  0  0  0  0  0  0  0  0  0
    0.4102  -10.0147  -35.0496 C   0  0  0  0  0  0  0  0  0  0  0  0
    3.1146  -10.2896  -30.4036 C   0  0  0  0  0  0  0  0  0  0  0  0
    5.0959   -9.3447  -35.5723 C   0  0  0  0  0  0  0  0  0  0  0  0
    0.9296   -8.7619  -35.7622 C   0  0  0  0  0  0  0  0  0  0  0  0
    3.2553  -10.0610  -28.9127 C   0  0  0  0  0  0  0  0  0  0  0  0
    4.5634   -9.1271  -36.6465 O   0  5  0  0  0  0  0  0  0  0  0  0
    5.5558   -8.4970  -34.8269 O   0  0  0  0  0  0  0  0  0  0  0  0
    1.6228   -8.9263  -36.7511 O   0  5  0  0  0  0  0  0  0  0  0  0
    0.6422   -7.6842  -35.2695 O   0  0  0  0  0  0  0  0  0  0  0  0
    3.0217  -11.0016  -28.1737 O   0  5  0  0  0  0  0  0  0  0  0  0
    3.5921   -8.9500  -28.5422 O   0  0  0  0  0  0  0  0  0  0  0  0
    2.6867   -8.6042  -33.2969 H   0  0  0  0  0  0  0  0  0  0  0  0
    3.0450  -12.7610  -32.7022 H   0  0  0  0  0  0  0  0  0  0  0  0
    3.6011  -11.5987  -36.3412 H   0  0  0  0  0  0  0  0  0  0  0  0
    3.9660  -12.5548  -34.8992 H   0  0  0  0  0  0  0  0  0  0  0  0
    0.9582  -12.0526  -34.6580 H   0  0  0  0  0  0  0  0  0  0  0  0
    1.5323  -11.4098  -36.2067 H   0  0  0  0  0  0  0  0  0  0  0  0
    2.9170   -8.2397  -30.9095 H   0  0  0  0  0  0  0  0  0  0  0  0
    3.2735  -12.4026  -30.3139 H   0  0  0  0  0  0  0  0  0  0  0  0
    5.9324  -11.3025  -35.6762 H   0  0  0  0  0  0  0  0  0  0  0  0
    5.3932  -10.7991  -34.0636 H   0  0  0  0  0  0  0  0  0  0  0  0
    0.2689   -9.7861  -34.0138 H   0  0  0  0  0  0  0  0  0  0  0  0
   -0.5083  -10.2980  -35.5196 H   0  0  0  0  0  0  0  0  0  0  0  0
  1  2  1  0  0  0  0
  1  3  2  0  0  0  0
  1  4  1  0  0  0  0
  2  5  1  0  0  0  0
  2  6  1  0  0  0  0
  3  7  1  0  0  0  0
  3 21  1  0  0  0  0
  4  8  2  0  0  0  0
  4 22  1  0  0  0  0
  5  9  1  0  0  0  0
  5 23  1  0  0  0  0
  5 24  1  0  0  0  0
  6 10  1  0  0  0  0
  6 25  1  0  0  0  0
  6 26  1  0  0  0  0
  7 11  2  0  0  0  0
  7 27  1  0  0  0  0
  8 11  1  0  0  0  0
  8 28  1  0  0  0  0
  9 12  1  0  0  0  0
  9 29  1  0  0  0  0
  9 30  1  0  0  0  0
 10 13  1  0  0  0  0
 10 31  1  0  0  0  0
 10 32  1  0  0  0  0
 11 14  1  0  0  0  0
 12 15  1  0  0  0  0
 12 16  2  0  0  0  0
 13 17  1  0  0  0  0
 13 18  2  0  0  0  0
 14 19  1  0  0  0  0
 14 20  2  0  0  0  0
M  CHG  3  15  -1  17  -1  19  -1
M  END
$$$$
