##########                                Name: HTS1710-00285909-01
##########                    Molecular_Weight:             386.404
##########                DOCK_Rotatable_Bonds:                   7
##########                       Formal_Charge:                  -2
##########                     HBond_Acceptors:                   8
##########                        HBond_Donors:                   0
##########                         Heavy_Atoms:                  28
##########                          Grid_Score:          -76.097000
##########                     Grid_vdw_energy:          -42.880520
##########                      Grid_es_energy:          -33.216484
##########           Internal_energy_repulsive:           17.013844

@<TRIPOS>MOLECULE
HTS1710-00285909-01
 50 52 1 0 0
SMALL
USER_CHARGES


@<TRIPOS>ATOM
      1 N           3.0200  -10.1724  -30.8788 N.am    1  UNL1       -0.2963
      2 C           3.0519   -9.8691  -29.5104 C.2     1  UNL1        0.2619
      3 C           0.4973   -7.8807  -33.0237 C.2     1  UNL1        0.0436
      4 C          -0.0279   -7.1108  -34.2013 C.ar    1  UNL1       -0.0007
      5 N           0.3963   -7.3909  -31.8271 N.2     1  UNL1       -0.2873
      6 C           3.3841  -11.0534  -28.5473 C.2     1  UNL1        0.1276
      7 C           2.5895   -9.3579  -33.2607 C.3     1  UNL1       -0.0166
      8 C           3.1964   -9.0714  -31.8620 C.3     1  UNL1        0.0184
      9 C          -0.8506   -5.9894  -33.9670 C.ar    1  UNL1       -0.0333
     10 C           1.0251   -9.3042  -33.2226 C.3     1  UNL1       -0.0057
     11 C           3.1683  -10.7005  -33.7961 C.3     1  UNL1       -0.0299
     12 C           3.1958   -9.9580  -36.2582 C.2     1  UNL1        0.0420
     13 C           0.2528   -7.4816  -35.5332 C.ar    1  UNL1       -0.0492
     14 C           3.2908  -11.5539  -31.3670 C.3     1  UNL1        0.0153
     15 C           2.7260  -11.0219  -35.2553 C.3     1  UNL1       -0.0100
     16 O           2.8364   -8.7555  -29.0576 O.2     1  UNL1       -0.2687
     17 C          -1.3798   -5.2502  -35.0409 C.ar    1  UNL1       -0.0161
     18 O           2.4419  -11.5678  -27.9696 O.co2   1  UNL1       -0.5405
     19 C           2.8286  -11.8485  -32.8168 C.3     1  UNL1       -0.0337
     20 O           4.2675   -9.4196  -36.0412 O.co2   1  UNL1       -0.5498
     21 C          -1.0852   -5.6232  -36.3690 C.ar    1  UNL1        0.1204
     22 C          -0.0532   -6.0058  -31.5720 C.3     1  UNL1        0.0440
     23 O           4.5591  -11.3606  -28.4465 O.co2   1  UNL1       -0.5405
     24 C          -0.2686   -6.7399  -36.6047 C.ar    1  UNL1       -0.0193
     25 O           2.4747   -9.7385  -37.2160 O.co2   1  UNL1       -0.5498
     26 C          -1.1963   -5.6212  -32.5340 C.3     1  UNL1       -0.0074
     27 O          -1.5773   -4.9304  -37.4578 O.3     1  UNL1       -0.4951
     28 C          -2.4942   -3.8294  -37.3363 C.3     1  UNL1        0.0788
     29 H           2.8705   -8.5923  -33.9534 H       1  UNL1        0.0322
     30 H           2.7293   -8.1930  -31.4681 H       1  UNL1        0.0467
     31 H           4.2504   -8.9551  -32.0045 H       1  UNL1        0.0467
     32 H           0.6451   -9.6861  -34.1471 H       1  UNL1        0.0332
     33 H           0.6975   -9.8940  -32.3922 H       1  UNL1        0.0332
     34 H           4.2320  -10.5957  -33.8454 H       1  UNL1        0.0308
     35 H           0.8461   -8.3047  -35.7213 H       1  UNL1        0.0625
     36 H           2.7898  -12.2387  -30.7150 H       1  UNL1        0.0465
     37 H           4.3552  -11.6629  -31.3687 H       1  UNL1        0.0465
     38 H           3.1390  -11.9673  -35.5390 H       1  UNL1        0.0328
     39 H           1.6564  -11.0388  -35.2754 H       1  UNL1        0.0328
     40 H          -1.9842   -4.4343  -34.8567 H       1  UNL1        0.0657
     41 H           3.3113  -12.7414  -33.1553 H       1  UNL1        0.0283
     42 H           1.7641  -11.9560  -32.8013 H       1  UNL1        0.0283
     43 H           0.7690   -5.3366  -31.7172 H       1  UNL1        0.0511
     44 H          -0.4112   -5.9386  -30.5659 H       1  UNL1        0.0511
     45 H          -0.0496   -7.0181  -37.5740 H       1  UNL1        0.0654
     46 H          -1.3632   -4.5659  -32.4746 H       1  UNL1        0.0331
     47 H          -2.0770   -6.1573  -32.2477 H       1  UNL1        0.0331
     48 H          -2.7325   -3.4546  -38.3098 H       1  UNL1        0.0660
     49 H          -2.0433   -3.0522  -36.7554 H       1  UNL1        0.0660
     50 H          -3.3891   -4.1622  -36.8534 H       1  UNL1        0.0660
@<TRIPOS>BOND
     1     1     2   am
     2     3    10    1
     3     3     4    1
     4     3     5    2
     5     2     6    1
     6     7     8    1
     7     1     8    1
     8     4     9   ar
     9     7    10    1
    10    11    19    1
    11    12    15    1
    12     4    13   ar
    13     1    14    1
    14    11    15    1
    15     2    16    2
    16     9    17   ar
    17     6    18   ar
    18    14    19    1
    19    12    20   ar
    20    21    24   ar
    21     5    22    1
    22     6    23   ar
    23    13    24   ar
    24    12    25   ar
    25    22    26    1
    26    21    27    1
    27    27    28    1
    28     7    11    1
    29     9    26    1
    30    17    21   ar
    31     7    29    1
    32     8    30    1
    33     8    31    1
    34    10    32    1
    35    10    33    1
    36    11    34    1
    37    13    35    1
    38    14    36    1
    39    14    37    1
    40    15    38    1
    41    15    39    1
    42    17    40    1
    43    19    41    1
    44    19    42    1
    45    22    43    1
    46    22    44    1
    47    24    45    1
    48    26    46    1
    49    26    47    1
    50    28    48    1
    51    28    49    1
    52    28    50    1
@<TRIPOS>SUBSTRUCTURE
     1 UNL1        1 TEMP              0 ****  ****    0 ROOT


