HTS1710-00621983-01
 OpenBabel03232612363D

 37 37  0  0  0  0  0  0  0  0999 V2000
    4.4828   -9.9414  -33.2798 C   0  0  0  0  0  0  0  0  0  0  0  0
    5.0973   -8.8339  -32.7639 C   0  0  0  0  0  0  0  0  0  0  0  0
    4.8779   -9.9952  -34.6115 N   0  0  0  0  0  0  0  0  0  0  0  0
    3.6226  -10.7893  -32.6067 N   0  0  0  0  0  0  0  0  0  0  0  0
    5.8744   -8.2714  -33.8117 C   0  0  0  0  0  0  0  0  0  0  0  0
    5.0150   -8.2873  -31.3865 C   0  0  0  0  0  0  0  0  0  0  0  0
    5.7395   -8.9700  -34.9272 N   0  0  0  0  0  0  0  0  0  0  0  0
    4.4536  -10.9333  -35.6572 C   0  0  0  0  0  0  0  0  0  0  0  0
    4.0599  -11.4734  -31.4340 N   0  0  0  0  0  0  0  0  0  0  0  0
    4.0427   -7.6026  -31.1190 O   0  5  0  0  0  0  0  0  0  0  0  0
    5.9116   -8.5465  -30.6018 O   0  0  0  0  0  0  0  0  0  0  0  0
    4.1628  -12.8565  -31.3803 C   0  0  0  0  0  0  0  0  0  0  0  0
    4.6429  -13.5159  -30.0763 C   0  0  0  0  0  0  0  0  0  0  0  0
    3.8202  -13.5255  -32.3418 O   0  0  0  0  0  0  0  0  0  0  0  0
    3.5408  -13.7424  -28.9869 C   0  0  0  0  0  0  0  0  0  0  0  0
    3.6369  -12.6168  -27.9020 C   0  0  0  0  0  0  0  0  0  0  0  0
    3.8011  -15.1317  -28.3343 C   0  0  0  0  0  0  0  0  0  0  0  0
    2.1275  -13.7677  -29.6404 C   0  0  0  0  0  0  0  0  0  0  0  0
    3.5634  -11.1846  -28.4564 C   0  0  0  0  0  0  0  0  0  0  0  0
    2.4550  -10.6960  -28.5995 O   0  5  0  0  0  0  0  0  0  0  0  0
    4.6187  -10.6171  -28.6765 O   0  0  0  0  0  0  0  0  0  0  0  0
    2.7050  -10.9212  -32.9380 H   0  0  0  0  0  0  0  0  0  0  0  0
    6.4649   -7.4305  -33.7157 H   0  0  0  0  0  0  0  0  0  0  0  0
    3.7896  -11.6595  -35.2368 H   0  0  0  0  0  0  0  0  0  0  0  0
    5.3118  -11.4272  -36.0628 H   0  0  0  0  0  0  0  0  0  0  0  0
    3.9501  -10.3973  -36.4344 H   0  0  0  0  0  0  0  0  0  0  0  0
    4.2965  -10.9472  -30.6364 H   0  0  0  0  0  0  0  0  0  0  0  0
    5.4018  -12.8923  -29.6521 H   0  0  0  0  0  0  0  0  0  0  0  0
    4.9876  -14.4909  -30.3511 H   0  0  0  0  0  0  0  0  0  0  0  0
    4.5684  -12.7280  -27.3876 H   0  0  0  0  0  0  0  0  0  0  0  0
    2.7871  -12.7383  -27.2633 H   0  0  0  0  0  0  0  0  0  0  0  0
    4.7692  -15.1358  -27.8785 H   0  0  0  0  0  0  0  0  0  0  0  0
    3.7573  -15.8924  -29.0854 H   0  0  0  0  0  0  0  0  0  0  0  0
    3.0558  -15.3216  -27.5904 H   0  0  0  0  0  0  0  0  0  0  0  0
    1.9281  -12.8201  -30.0958 H   0  0  0  0  0  0  0  0  0  0  0  0
    1.3909  -13.9647  -28.8898 H   0  0  0  0  0  0  0  0  0  0  0  0
    2.0924  -14.5356  -30.3848 H   0  0  0  0  0  0  0  0  0  0  0  0
  1  2  2  0  0  0  0
  1  3  1  0  0  0  0
  1  4  1  0  0  0  0
  2  5  1  0  0  0  0
  2  6  1  0  0  0  0
  3  7  1  0  0  0  0
  3  8  1  0  0  0  0
  4  9  1  0  0  0  0
  4 22  1  0  0  0  0
  5  7  2  0  0  0  0
  5 23  1  0  0  0  0
  6 10  1  0  0  0  0
  6 11  2  0  0  0  0
  8 24  1  0  0  0  0
  8 25  1  0  0  0  0
  8 26  1  0  0  0  0
  9 12  1  0  0  0  0
  9 27  1  0  0  0  0
 12 13  1  0  0  0  0
 12 14  2  0  0  0  0
 13 15  1  0  0  0  0
 13 28  1  0  0  0  0
 13 29  1  0  0  0  0
 15 16  1  0  0  0  0
 15 17  1  0  0  0  0
 15 18  1  0  0  0  0
 16 19  1  0  0  0  0
 16 30  1  0  0  0  0
 16 31  1  0  0  0  0
 17 32  1  0  0  0  0
 17 33  1  0  0  0  0
 17 34  1  0  0  0  0
 18 35  1  0  0  0  0
 18 36  1  0  0  0  0
 18 37  1  0  0  0  0
 19 20  1  0  0  0  0
 19 21  2  0  0  0  0
M  CHG  2  10  -1  20  -1
M  END
$$$$
