HTS1710-01055239-01
 OpenBabel03232612363D

 55 56  0  0  1  0  0  0  0  0999 V2000
    4.1004  -10.5955  -32.2494 C   0  0  0  0  0  0  0  0  0  0  0  0
    3.9775  -10.0529  -30.9954 C   0  0  0  0  0  0  0  0  0  0  0  0
    4.6832   -9.6767  -33.0614 N   0  0  0  0  0  0  0  0  0  0  0  0
    4.5025   -8.7915  -30.9435 O   0  0  0  0  0  0  0  0  0  0  0  0
    4.9000   -8.6499  -32.2556 C   0  0  0  0  0  0  0  0  0  0  0  0
    3.4100  -10.5814  -29.8483 N   0  0  0  0  0  0  0  0  0  0  0  0
    3.7407  -11.9629  -32.7033 C   0  0  0  0  0  0  0  0  0  0  0  0
    3.6229  -14.2265  -28.7564 C   0  0  2  0  0  0  0  0  0  0  0  0
    4.2946  -14.6943  -27.4245 C   0  0  2  0  0  0  0  0  0  0  0  0
    3.0421  -12.7797  -28.6717 C   0  0  2  0  0  0  0  0  0  0  0  0
    4.0640  -11.6949  -29.1227 C   0  0  0  0  0  0  0  0  0  0  0  0
    5.5333   -7.3770  -32.6352 C   0  0  0  0  0  0  0  0  0  0  0  0
    5.6268  -15.4817  -27.6370 C   0  0  2  0  0  0  0  0  0  0  0  0
    4.5457  -12.6993  -33.2513 O   0  0  0  0  0  0  0  0  0  0  0  0
    2.5923  -15.1362  -29.1498 O   0  0  0  0  0  0  0  0  0  0  0  0
    3.3752  -15.4449  -26.6271 O   0  0  0  0  0  0  0  0  0  0  0  0
    2.5933  -12.4981  -27.3453 O   0  0  0  0  0  0  0  0  0  0  0  0
    2.4559  -12.3421  -32.4314 O   0  0  0  0  0  0  0  0  0  0  0  0
    5.5252  -16.8225  -27.1536 O   0  0  0  0  0  0  0  0  0  0  0  0
    2.5067   -9.7589  -29.0224 C   0  0  0  0  0  0  0  0  0  0  0  0
    7.0897  -13.5234  -27.5750 O   0  0  0  0  0  0  0  0  0  0  0  0
    6.8239  -14.7779  -26.9515 C   0  0  0  0  0  0  0  0  0  0  0  0
    5.3297   -6.2107  -31.8660 C   0  0  0  0  0  0  0  0  0  0  0  0
    6.3583   -7.3016  -33.7775 C   0  0  0  0  0  0  0  0  0  0  0  0
    2.1172  -13.7403  -32.3648 C   0  0  0  0  0  0  0  0  0  0  0  0
    0.5832  -13.8583  -32.3020 C   0  0  0  0  0  0  0  0  0  0  0  0
    6.9614   -6.0873  -34.1454 C   0  0  0  0  0  0  0  0  0  0  0  0
    5.9348   -4.9985  -32.2351 C   0  0  0  0  0  0  0  0  0  0  0  0
    6.7492   -4.9356  -33.3748 C   0  0  0  0  0  0  0  0  0  0  0  0
    4.3980  -14.2161  -29.4941 H   0  0  0  0  0  0  0  0  0  0  0  0
    4.5632  -13.8021  -26.8984 H   0  0  0  0  0  0  0  0  0  0  0  0
    2.2148  -12.7416  -29.3492 H   0  0  0  0  0  0  0  0  0  0  0  0
    4.7874  -12.1491  -29.7671 H   0  0  0  0  0  0  0  0  0  0  0  0
    4.5248  -11.2912  -28.2455 H   0  0  0  0  0  0  0  0  0  0  0  0
    5.8005  -15.5050  -28.6926 H   0  0  0  0  0  0  0  0  0  0  0  0
    2.9198  -16.0464  -29.0780 H   0  0  0  0  0  0  0  0  0  0  0  0
    3.0373  -16.1942  -27.1422 H   0  0  0  0  0  0  0  0  0  0  0  0
    1.9316  -13.1564  -27.0813 H   0  0  0  0  0  0  0  0  0  0  0  0
    4.7307  -17.2397  -27.5219 H   0  0  0  0  0  0  0  0  0  0  0  0
    2.0809   -8.9831  -29.6239 H   0  0  0  0  0  0  0  0  0  0  0  0
    3.0588   -9.3226  -28.2162 H   0  0  0  0  0  0  0  0  0  0  0  0
    1.7252  -10.3740  -28.6277 H   0  0  0  0  0  0  0  0  0  0  0  0
    6.2847  -12.9823  -27.5689 H   0  0  0  0  0  0  0  0  0  0  0  0
    6.5931  -14.6161  -25.9193 H   0  0  0  0  0  0  0  0  0  0  0  0
    7.6896  -15.4000  -27.0430 H   0  0  0  0  0  0  0  0  0  0  0  0
    4.7315   -6.2494  -31.0259 H   0  0  0  0  0  0  0  0  0  0  0  0
    6.5201   -8.1462  -34.3479 H   0  0  0  0  0  0  0  0  0  0  0  0
    2.5507  -14.1772  -31.4895 H   0  0  0  0  0  0  0  0  0  0  0  0
    2.4937  -14.2543  -33.2243 H   0  0  0  0  0  0  0  0  0  0  0  0
    0.2207  -13.3404  -31.4388 H   0  0  0  0  0  0  0  0  0  0  0  0
    0.3071  -14.8902  -32.2410 H   0  0  0  0  0  0  0  0  0  0  0  0
    0.1559  -13.4263  -33.1827 H   0  0  0  0  0  0  0  0  0  0  0  0
    7.5613   -6.0431  -34.9840 H   0  0  0  0  0  0  0  0  0  0  0  0
    5.7796   -4.1517  -31.6661 H   0  0  0  0  0  0  0  0  0  0  0  0
    7.1915   -4.0434  -33.6457 H   0  0  0  0  0  0  0  0  0  0  0  0
  1  2  2  0  0  0  0
  1  3  1  0  0  0  0
  1  7  1  0  0  0  0
  2  4  1  0  0  0  0
  2  6  1  0  0  0  0
  3  5  2  0  0  0  0
  4  5  1  0  0  0  0
  5 12  1  0  0  0  0
  6 11  1  0  0  0  0
  6 20  1  0  0  0  0
  7 14  2  0  0  0  0
  7 18  1  0  0  0  0
  8 10  1  0  0  0  0
  8  9  1  0  0  0  0
  8 15  1  0  0  0  0
  8 30  1  6  0  0  0
  9 13  1  0  0  0  0
  9 16  1  0  0  0  0
  9 31  1  1  0  0  0
 10 11  1  0  0  0  0
 10 17  1  0  0  0  0
 10 32  1  6  0  0  0
 11 33  1  0  0  0  0
 11 34  1  0  0  0  0
 12 23  2  0  0  0  0
 12 24  1  0  0  0  0
 13 19  1  0  0  0  0
 13 22  1  0  0  0  0
 13 35  1  6  0  0  0
 15 36  1  0  0  0  0
 16 37  1  0  0  0  0
 17 38  1  0  0  0  0
 18 25  1  0  0  0  0
 19 39  1  0  0  0  0
 20 40  1  0  0  0  0
 20 41  1  0  0  0  0
 20 42  1  0  0  0  0
 21 22  1  0  0  0  0
 21 43  1  0  0  0  0
 22 44  1  0  0  0  0
 22 45  1  0  0  0  0
 23 28  1  0  0  0  0
 23 46  1  0  0  0  0
 24 27  2  0  0  0  0
 24 47  1  0  0  0  0
 25 26  1  0  0  0  0
 25 48  1  0  0  0  0
 25 49  1  0  0  0  0
 26 50  1  0  0  0  0
 26 51  1  0  0  0  0
 26 52  1  0  0  0  0
 27 29  1  0  0  0  0
 27 53  1  0  0  0  0
 28 29  2  0  0  0  0
 28 54  1  0  0  0  0
 29 55  1  0  0  0  0
M  END
$$$$
