##########                                Name: HTS1710-01574530-01
##########                    Molecular_Weight:             363.348
##########                DOCK_Rotatable_Bonds:                   7
##########                       Formal_Charge:                  -2
##########                     HBond_Acceptors:                   9
##########                        HBond_Donors:                   1
##########                         Heavy_Atoms:                  25
##########                          Grid_Score:          -77.310410
##########                     Grid_vdw_energy:          -42.440681
##########                      Grid_es_energy:          -34.869732
##########           Internal_energy_repulsive:            8.120073

@<TRIPOS>MOLECULE
HTS1710-01574530-01
 38 39 1 0 0
SMALL
USER_CHARGES


@<TRIPOS>ATOM
      1 C           3.2233   -9.5526  -37.4670 C.3     1  UNL1        0.0789
      2 O           3.4952  -10.4454  -36.3729 O.3     1  UNL1       -0.4931
      3 C           3.9758  -10.0159  -35.1487 C.ar    1  UNL1        0.1466
      4 C           5.1824   -9.2937  -35.0466 C.ar    1  UNL1       -0.0174
      5 C           5.6371   -8.8447  -33.7995 C.ar    1  UNL1       -0.0493
      6 C           4.8991   -9.1048  -32.6274 C.ar    1  UNL1       -0.0006
      7 C           3.6915   -9.8259  -32.7321 C.ar    1  UNL1       -0.0226
      8 C           3.2256  -10.2812  -33.9798 C.ar    1  UNL1        0.1505
      9 S           1.6253  -11.1292  -34.0669 S.O2    1  UNL1        0.0759
     10 O           1.1090  -11.1693  -35.4390 O.2     1  UNL1       -0.1499
     11 O           0.8230  -10.6560  -32.9344 O.2     1  UNL1       -0.1499
     12 N           1.9456  -12.7438  -33.6336 N.pl3   1  UNL1       -0.2161
     13 C           2.4706  -13.1806  -32.4370 C.ar    1  UNL1        0.0481
     14 C           1.6251  -13.3212  -31.3230 C.ar    1  UNL1       -0.0391
     15 C           2.1606  -13.6574  -30.0709 C.ar    1  UNL1       -0.0564
     16 C           3.5443  -13.8706  -29.9234 C.ar    1  UNL1       -0.0418
     17 C           4.1359  -14.1788  -28.5512 C.3     1  UNL1        0.0120
     18 C           5.0011  -13.0352  -27.9949 C.2     1  UNL1        0.0460
     19 O           4.7422  -11.8943  -28.3399 O.co2   1  UNL1       -0.5495
     20 O           5.8981  -13.3528  -27.2325 O.co2   1  UNL1       -0.5495
     21 C           4.3823  -13.7711  -31.0487 C.ar    1  UNL1       -0.0564
     22 C           3.8487  -13.4312  -32.3010 C.ar    1  UNL1       -0.0391
     23 C           5.3860   -8.6094  -31.2844 C.2     1  UNL1        0.0717
     24 O           5.9938   -7.5526  -31.2596 O.co2   1  UNL1       -0.5446
     25 O           5.1404   -9.2962  -30.3080 O.co2   1  UNL1       -0.5446
     26 H           2.8620  -10.1134  -38.3036 H       1  UNL1        0.0660
     27 H           4.1221   -9.0412  -37.7419 H       1  UNL1        0.0660
     28 H           2.4835   -8.8390  -37.1698 H       1  UNL1        0.0660
     29 H           5.7343   -9.0946  -35.8956 H       1  UNL1        0.0655
     30 H           6.5223   -8.3177  -33.7387 H       1  UNL1        0.0625
     31 H           3.1413  -10.0226  -31.8814 H       1  UNL1        0.0645
     32 H           1.7351  -13.4335  -34.3039 H       1  UNL1        0.1737
     33 H           0.6084  -13.1768  -31.4265 H       1  UNL1        0.0636
     34 H           1.5370  -13.7490  -29.2537 H       1  UNL1        0.0621
     35 H           4.7426  -15.0564  -28.6316 H       1  UNL1        0.0373
     36 H           3.3179  -14.3170  -27.8755 H       1  UNL1        0.0373
     37 H           5.3944  -13.9490  -30.9527 H       1  UNL1        0.0621
     38 H           4.4679  -13.3649  -33.1239 H       1  UNL1        0.0636
@<TRIPOS>BOND
     1     1     2    1
     2     2     3    1
     3     3     4   ar
     4     4     5   ar
     5     5     6   ar
     6     6     7   ar
     7     7     8   ar
     8     3     8   ar
     9     8     9    1
    10     9    10    2
    11     9    11    2
    12     9    12    1
    13    12    13    1
    14    13    14   ar
    15    14    15   ar
    16    15    16   ar
    17    16    17    1
    18    17    18    1
    19    18    19   ar
    20    18    20   ar
    21    16    21   ar
    22    21    22   ar
    23    13    22   ar
    24     6    23    1
    25    23    24   ar
    26    23    25   ar
    27     1    26    1
    28     1    27    1
    29     1    28    1
    30     4    29    1
    31     5    30    1
    32     7    31    1
    33    12    32    1
    34    14    33    1
    35    15    34    1
    36    17    35    1
    37    17    36    1
    38    21    37    1
    39    22    38    1
@<TRIPOS>SUBSTRUCTURE
     1 UNL1        1 TEMP              0 ****  ****    0 ROOT


