##########                                Name: HTS1710-01164312-01
##########                    Molecular_Weight:             373.319
##########                DOCK_Rotatable_Bonds:                   6
##########                       Formal_Charge:                  -2
##########                     HBond_Acceptors:                   9
##########                        HBond_Donors:                   3
##########                         Heavy_Atoms:                  27
##########                          Grid_Score:          -80.726273
##########                     Grid_vdw_energy:          -41.852341
##########                      Grid_es_energy:          -38.873932
##########           Internal_energy_repulsive:            9.539148

@<TRIPOS>MOLECULE
HTS1710-01164312-01
 42 45 1 0 0
SMALL
USER_CHARGES


@<TRIPOS>ATOM
      1 C           4.2746   -7.5644  -31.2217 C.2     1  UNL1       -0.0555
      2 C           5.0323   -8.4975  -31.9083 C.2     1  UNL1       -0.1091
      3 C           3.9625  -10.2506  -30.4666 C.2     1  UNL1        0.0538
      4 C           3.2890   -9.2288  -29.8595 C.2     1  UNL1       -0.0306
      5 C           4.7794   -9.9706  -31.7325 C.3     1  UNL1        0.0284
      6 O           3.3221   -7.9313  -30.3002 O.co2   1  UNL1       -0.7688
      7 C           4.4610   -6.1270  -31.4575 C.2     1  UNL1        0.1708
      8 O           6.0106   -8.1749  -32.8300 O.co2   1  UNL1       -0.7839
      9 C           4.0840  -10.5405  -32.9700 C.ar    1  UNL1       -0.0328
     10 C           5.5012   -5.8314  -32.4396 C.2     1  UNL1       -0.0241
     11 C           3.9373  -11.6880  -29.9715 C.2     1  UNL1        0.3364
     12 C           6.2162   -6.8323  -33.0606 C.2     1  UNL1       -0.0886
     13 C           2.6855  -10.7584  -32.9606 C.ar    1  UNL1       -0.0121
     14 C           2.0980  -11.2816  -34.1165 C.ar    1  UNL1        0.1665
     15 C           2.8299  -11.5844  -35.2292 C.ar    1  UNL1        0.1662
     16 O           0.7813  -11.5626  -34.3171 O.3     1  UNL1       -0.4526
     17 O           2.0303  -12.0781  -36.2121 O.3     1  UNL1       -0.4526
     18 N           2.5118   -9.4390  -28.7442 N.pl3   1  UNL1       -0.3685
     19 C           4.8391  -10.8608  -34.1301 C.ar    1  UNL1       -0.0540
     20 C           0.6756  -12.0881  -35.6741 C.3     1  UNL1        0.2332
     21 O           3.8173   -5.2595  -30.8912 O.2     1  UNL1       -0.2886
     22 O           3.3993  -12.0633  -28.9415 O.2     1  UNL1       -0.2453
     23 C           4.2125  -11.3886  -35.2790 C.ar    1  UNL1       -0.0159
     24 O           4.5959  -12.5415  -30.8162 O.3     1  UNL1       -0.4646
     25 C           7.2874   -6.4773  -34.0587 C.3     1  UNL1        0.0566
     26 O           6.7690   -6.4755  -35.3863 O.3     1  UNL1       -0.3915
     27 C           4.5872  -13.9555  -30.5493 C.3     1  UNL1        0.0820
     28 H           5.7245  -10.4589  -31.6175 H       1  UNL1        0.0437
     29 H           5.7058   -4.8476  -32.6745 H       1  UNL1        0.0647
     30 H           2.1178  -10.5383  -32.1274 H       1  UNL1        0.0658
     31 H           2.0060   -8.6925  -28.3490 H       1  UNL1        0.1413
     32 H           2.4615  -10.3357  -28.3411 H       1  UNL1        0.1413
     33 H           5.8594  -10.7055  -34.1325 H       1  UNL1        0.0622
     34 H           0.0356  -11.4669  -36.2652 H       1  UNL1        0.1166
     35 H           0.2563  -13.0725  -35.6830 H       1  UNL1        0.1166
     36 H           4.7555  -11.6215  -36.1251 H       1  UNL1        0.0655
     37 H           8.0784   -7.1949  -33.9930 H       1  UNL1        0.0596
     38 H           7.6511   -5.4965  -33.8336 H       1  UNL1        0.0596
     39 H           6.0552   -5.8220  -35.4538 H       1  UNL1        0.2098
     40 H           5.1469  -14.4647  -31.3059 H       1  UNL1        0.0661
     41 H           3.5785  -14.3125  -30.5507 H       1  UNL1        0.0661
     42 H           5.0297  -14.1406  -29.5928 H       1  UNL1        0.0661
@<TRIPOS>BOND
     1     1     2    2
     2     3     4    2
     3     4     6    1
     4     2     5    1
     5     1     6    1
     6     1     7    1
     7     2     8    1
     8     5     9    1
     9     7    10    1
    10     3    11    1
    11    10    12    2
    12     9    13   ar
    13    13    14   ar
    14    15    23   ar
    15    14    16    1
    16    15    17    1
    17     4    18    1
    18     9    19   ar
    19    16    20    1
    20     7    21    2
    21    11    22    2
    22    19    23   ar
    23    11    24    1
    24    12    25    1
    25    25    26    1
    26    24    27    1
    27     3     5    1
    28     8    12    1
    29    14    15   ar
    30    17    20    1
    31     5    28    1
    32    10    29    1
    33    13    30    1
    34    18    31    1
    35    18    32    1
    36    19    33    1
    37    20    34    1
    38    20    35    1
    39    23    36    1
    40    25    37    1
    41    25    38    1
    42    26    39    1
    43    27    40    1
    44    27    41    1
    45    27    42    1
@<TRIPOS>SUBSTRUCTURE
     1 UNL1        1 TEMP              0 ****  ****    0 ROOT


