##########                                Name: HTS1710-01997840-01
##########                    Molecular_Weight:             394.384
##########                DOCK_Rotatable_Bonds:                   8
##########                       Formal_Charge:                  -2
##########                     HBond_Acceptors:                   8
##########                        HBond_Donors:                   0
##########                         Heavy_Atoms:                  29
##########                          Grid_Score:          -78.250999
##########                     Grid_vdw_energy:          -46.881805
##########                      Grid_es_energy:          -31.369196
##########           Internal_energy_repulsive:           11.370729

@<TRIPOS>MOLECULE
HTS1710-01997840-01
 47 49 1 0 0
SMALL
USER_CHARGES


@<TRIPOS>ATOM
      1 C           1.6541   -8.9940  -33.0634 C.2     1  UNL1        0.0219
      2 N           3.3142   -9.4650  -31.4706 N.am    1  UNL1       -0.2872
      3 C           1.9380   -7.8844  -32.3486 C.2     1  UNL1       -0.0354
      4 C           2.9710   -8.1327  -31.3335 C.2     1  UNL1        0.2329
      5 C           2.5498  -10.1285  -32.5568 C.3     1  UNL1        0.0813
      6 C           0.6683   -9.2559  -34.1606 C.2     1  UNL1        0.1909
      7 C           3.4472  -10.6830  -33.6566 C.ar    1  UNL1       -0.0044
      8 O           3.4232   -7.3454  -30.5189 O.2     1  UNL1       -0.2712
      9 C           0.0992   -8.1009  -34.9274 C.ar    1  UNL1        0.0222
     10 C           2.9840  -12.0441  -27.9708 C.2     1  UNL1        0.0418
     11 O           0.3366  -10.3939  -34.4482 O.2     1  UNL1       -0.2869
     12 O           1.3512   -6.6687  -32.4434 O.co2   1  UNL1       -0.8701
     13 N           5.2941  -10.3355  -35.1877 N.ar    1  UNL1       -0.2629
     14 O           2.4389  -10.9534  -27.9782 O.co2   1  UNL1       -0.5498
     15 C           4.1973  -10.2307  -30.5700 C.3     1  UNL1        0.0162
     16 C           0.5562   -7.8116  -36.2266 C.ar    1  UNL1       -0.0475
     17 C          -0.9335   -7.3278  -34.3695 C.ar    1  UNL1       -0.0475
     18 C          -1.0171   -5.9541  -36.3807 C.ar    1  UNL1        0.1201
     19 O           2.6934  -12.9754  -27.2408 O.co2   1  UNL1       -0.5498
     20 C           0.0076   -6.7410  -36.9510 C.ar    1  UNL1       -0.0193
     21 C          -1.4844   -6.2567  -35.0906 C.ar    1  UNL1       -0.0193
     22 C           4.4868   -9.9021  -34.1985 C.ar    1  UNL1        0.0328
     23 O          -1.5884   -4.8884  -37.0483 O.3     1  UNL1       -0.4951
     24 C           3.7587  -11.7037  -30.3730 C.3     1  UNL1       -0.0320
     25 C           4.1173  -12.2690  -28.9769 C.3     1  UNL1       -0.0118
     26 C           3.2489  -11.9782  -34.1700 C.ar    1  UNL1       -0.0536
     27 C           5.0922  -11.5752  -35.6787 C.ar    1  UNL1        0.0276
     28 C          -1.1528   -4.4547  -38.3487 C.3     1  UNL1        0.0788
     29 C           4.0847  -12.4305  -35.2009 C.ar    1  UNL1       -0.0433
     30 H           2.0081  -10.9884  -32.2220 H       1  UNL1        0.0602
     31 H           4.2045   -9.7495  -29.6143 H       1  UNL1        0.0465
     32 H           5.1660  -10.2505  -31.0240 H       1  UNL1        0.0465
     33 H           1.2991   -8.3897  -36.6495 H       1  UNL1        0.0626
     34 H          -1.2882   -7.5483  -33.4258 H       1  UNL1        0.0626
     35 H           0.3531   -6.5293  -37.9001 H       1  UNL1        0.0654
     36 H          -2.2368   -5.6886  -34.6709 H       1  UNL1        0.0654
     37 H           4.6376   -8.9537  -33.8207 H       1  UNL1        0.0833
     38 H           4.2408  -12.3037  -31.1163 H       1  UNL1        0.0284
     39 H           2.6927  -11.7309  -30.4613 H       1  UNL1        0.0284
     40 H           4.3011  -13.3195  -29.0641 H       1  UNL1        0.0325
     41 H           4.9875  -11.7578  -28.6216 H       1  UNL1        0.0325
     42 H           2.5023  -12.5837  -33.7947 H       1  UNL1        0.0622
     43 H           5.7045  -11.9105  -36.4387 H       1  UNL1        0.0829
     44 H          -1.7404   -3.6167  -38.6606 H       1  UNL1        0.0660
     45 H          -1.2716   -5.2543  -39.0496 H       1  UNL1        0.0660
     46 H          -0.1222   -4.1705  -38.3032 H       1  UNL1        0.0660
     47 H           3.9622  -13.3737  -35.6013 H       1  UNL1        0.0633
@<TRIPOS>BOND
     1     1     3    2
     2     1     5    1
     3     1     6    1
     4     2     4   am
     5     2     5    1
     6     2    15    1
     7     3     4    1
     8     3    12    1
     9     4     8    2
    10     5     7    1
    11     6     9    1
    12     6    11    2
    13     7    22   ar
    14     7    26   ar
    15     9    16   ar
    16     9    17   ar
    17    10    14   ar
    18    10    19   ar
    19    10    25    1
    20    13    22   ar
    21    13    27   ar
    22    15    24    1
    23    16    20   ar
    24    17    21   ar
    25    18    20   ar
    26    18    21   ar
    27    18    23    1
    28    23    28    1
    29    24    25    1
    30    26    29   ar
    31    27    29   ar
    32     5    30    1
    33    15    31    1
    34    15    32    1
    35    16    33    1
    36    17    34    1
    37    20    35    1
    38    21    36    1
    39    22    37    1
    40    24    38    1
    41    24    39    1
    42    25    40    1
    43    25    41    1
    44    26    42    1
    45    27    43    1
    46    28    44    1
    47    28    45    1
    48    28    46    1
    49    29    47    1
@<TRIPOS>SUBSTRUCTURE
     1 UNL1        1 TEMP              0 ****  ****    0 ROOT


