##########                                Name: HTS1710-01238876-01
##########                    Molecular_Weight:             389.405
##########                DOCK_Rotatable_Bonds:                  10
##########                       Formal_Charge:                  -2
##########                     HBond_Acceptors:                   8
##########                        HBond_Donors:                   0
##########                         Heavy_Atoms:                  28
##########                          Grid_Score:          -81.120819
##########                     Grid_vdw_energy:          -45.937592
##########                      Grid_es_energy:          -35.183231
##########           Internal_energy_repulsive:           10.715930

@<TRIPOS>MOLECULE
HTS1710-01238876-01
 51 52 1 0 0
SMALL
USER_CHARGES


@<TRIPOS>ATOM
      1 C           4.9040   -8.9979  -32.5265 C.2     1  UNL1        0.0167
      2 N           3.4877  -10.4854  -31.3825 N.am    1  UNL1       -0.2873
      3 C           5.1530   -8.9570  -31.2025 C.2     1  UNL1       -0.0358
      4 C           4.2800   -9.8588  -30.4398 C.2     1  UNL1        0.2329
      5 C           3.7951  -10.0346  -32.7646 C.3     1  UNL1        0.0797
      6 C           2.5640   -9.4675  -33.4653 C.ar    1  UNL1       -0.0188
      7 C           5.7074   -8.4166  -33.6478 C.2     1  UNL1        0.1579
      8 C           1.6241   -8.7072  -32.7448 C.ar    1  UNL1       -0.0110
      9 C           0.4545   -8.2330  -33.3767 C.ar    1  UNL1        0.1618
     10 O           4.2597  -10.0413  -29.2343 O.2     1  UNL1       -0.2712
     11 C           2.6402  -13.2924  -27.3711 C.2     1  UNL1        0.0417
     12 C           2.3387   -9.7408  -34.8237 C.ar    1  UNL1       -0.0528
     13 C           0.2387   -8.5027  -34.7427 C.ar    1  UNL1        0.1615
     14 O           6.1232   -8.2466  -30.5832 O.co2   1  UNL1       -0.8701
     15 O           5.9060   -9.0377  -34.6781 O.2     1  UNL1       -0.2926
     16 O           3.5949  -13.5247  -26.6496 O.co2   1  UNL1       -0.5498
     17 C           1.1885   -9.2570  -35.4641 C.ar    1  UNL1       -0.0160
     18 C           2.5255  -11.5709  -31.1217 C.3     1  UNL1        0.0159
     19 O           2.1792  -12.1870  -27.5973 O.co2   1  UNL1       -0.5498
     20 O          -0.5066   -7.5180  -32.6831 O.3     1  UNL1       -0.4914
     21 O          -0.9173   -8.0290  -35.3372 O.3     1  UNL1       -0.4915
     22 C           1.9649  -14.4899  -28.0531 C.3     1  UNL1       -0.0132
     23 C           6.4062   -7.0782  -33.3917 C.3     1  UNL1       -0.0017
     24 C          -0.2305   -6.2701  -32.0245 C.3     1  UNL1        0.0790
     25 C          -0.9354   -6.8959  -36.2226 C.3     1  UNL1        0.0790
     26 C           3.2194  -12.9451  -30.9772 C.3     1  UNL1       -0.0371
     27 C           2.6533  -14.9040  -29.3834 C.3     1  UNL1       -0.0479
     28 C           2.2213  -14.0712  -30.6216 C.3     1  UNL1       -0.0513
     29 H           4.1032  -10.8184  -33.4247 H       1  UNL1        0.0602
     30 H           1.7909   -8.4953  -31.7487 H       1  UNL1        0.0659
     31 H           3.0237  -10.3012  -35.3545 H       1  UNL1        0.0622
     32 H           1.0364   -9.4532  -36.4658 H       1  UNL1        0.0655
     33 H           1.8317  -11.6191  -31.9350 H       1  UNL1        0.0465
     34 H           2.0293  -11.3551  -30.1986 H       1  UNL1        0.0465
     35 H           0.9475  -14.2331  -28.2622 H       1  UNL1        0.0325
     36 H           2.0399  -15.3213  -27.3837 H       1  UNL1        0.0325
     37 H           6.1032   -6.6939  -32.4402 H       1  UNL1        0.0309
     38 H           6.1374   -6.3828  -34.1592 H       1  UNL1        0.0309
     39 H           7.4664   -7.2226  -33.3967 H       1  UNL1        0.0309
     40 H          -1.1229   -5.9077  -31.5584 H       1  UNL1        0.0660
     41 H           0.1119   -5.5553  -32.7435 H       1  UNL1        0.0660
     42 H           0.5249   -6.4184  -31.2815 H       1  UNL1        0.0660
     43 H          -1.9369   -6.7194  -36.5555 H       1  UNL1        0.0660
     44 H          -0.3084   -7.0930  -37.0669 H       1  UNL1        0.0660
     45 H          -0.5745   -6.0323  -35.7041 H       1  UNL1        0.0660
     46 H           3.9548  -12.8797  -30.2027 H       1  UNL1        0.0280
     47 H           3.6652  -13.1878  -31.9192 H       1  UNL1        0.0280
     48 H           2.4206  -15.9308  -29.5741 H       1  UNL1        0.0269
     49 H           3.7004  -14.7288  -29.2504 H       1  UNL1        0.0269
     50 H           1.2683  -13.6290  -30.4184 H       1  UNL1        0.0266
     51 H           2.1848  -14.7389  -31.4568 H       1  UNL1        0.0266
@<TRIPOS>BOND
     1     2     5    1
     2     1     3    2
     3     3     4    1
     4     1     5    1
     5     5     6    1
     6     1     7    1
     7     6     8   ar
     8     8     9   ar
     9     4    10    2
    10    11    22    1
    11     6    12   ar
    12    13    17   ar
    13     3    14    1
    14     7    15    2
    15    11    16   ar
    16    12    17   ar
    17     2    18    1
    18    11    19   ar
    19     9    20    1
    20    13    21    1
    21    22    27    1
    22     7    23    1
    23    20    24    1
    24    21    25    1
    25    18    26    1
    26    27    28    1
    27    26    28    1
    28     2     4   am
    29     9    13   ar
    30     5    29    1
    31     8    30    1
    32    12    31    1
    33    17    32    1
    34    18    33    1
    35    18    34    1
    36    22    35    1
    37    22    36    1
    38    23    37    1
    39    23    38    1
    40    23    39    1
    41    24    40    1
    42    24    41    1
    43    24    42    1
    44    25    43    1
    45    25    44    1
    46    25    45    1
    47    26    46    1
    48    26    47    1
    49    27    48    1
    50    27    49    1
    51    28    50    1
    52    28    51    1
@<TRIPOS>SUBSTRUCTURE
     1 UNL1        1 TEMP              0 ****  ****    0 ROOT


