HTS1710-00617286-01
 OpenBabel03232612363D

 37 38  0  0  1  0  0  0  0  0999 V2000
    3.3447   -9.8167  -31.9195 C   0  0  2  0  0  0  0  0  0  0  0  0
    4.5347   -9.8273  -32.8061 N   0  0  0  0  0  0  0  0  0  0  0  0
    3.4561   -8.4442  -31.2486 C   0  0  0  0  0  0  0  0  0  0  0  0
    3.3374  -10.9729  -30.9239 C   0  0  0  0  0  0  0  0  0  0  0  0
    5.2566   -8.6516  -32.7267 C   0  0  0  0  0  0  0  0  0  0  0  0
    4.8509  -10.9906  -33.6513 C   0  0  0  0  0  0  0  0  0  0  0  0
    4.5333   -7.8146  -31.7597 C   0  0  0  0  0  0  0  0  0  0  0  0
    2.3523   -7.9354  -30.3777 C   0  0  0  0  0  0  0  0  0  0  0  0
    4.1987  -10.9485  -29.8105 C   0  0  0  0  0  0  0  0  0  0  0  0
    2.4678  -12.0662  -31.1031 C   0  0  0  0  0  0  0  0  0  0  0  0
    6.2716   -8.3769  -33.3434 O   0  0  0  0  0  0  0  0  0  0  0  0
    3.7613  -11.2529  -34.7152 C   0  0  0  0  0  0  0  0  0  0  0  0
    4.9534   -6.5575  -31.4853 O   0  5  0  0  0  0  0  0  0  0  0  0
    1.0106   -7.6723  -31.0670 C   0  0  0  0  0  0  0  0  0  0  0  0
    2.4581   -7.8795  -29.1656 O   0  0  0  0  0  0  0  0  0  0  0  0
    4.1915  -12.0051  -28.8867 C   0  0  0  0  0  0  0  0  0  0  0  0
    2.4589  -13.1228  -30.1784 C   0  0  0  0  0  0  0  0  0  0  0  0
    4.2731  -11.0165  -36.1556 C   0  0  0  0  0  0  0  0  0  0  0  0
    3.3213  -13.0914  -29.0713 C   0  0  0  0  0  0  0  0  0  0  0  0
    4.2057   -9.5400  -36.5671 C   0  0  0  0  0  0  0  0  0  0  0  0
    3.3092  -14.5282  -27.8128 Br  0  0  0  0  0  0  0  0  0  0  0  0
    3.2060   -9.1687  -37.1556 O   0  5  0  0  0  0  0  0  0  0  0  0
    5.1712   -8.8444  -36.3031 O   0  0  0  0  0  0  0  0  0  0  0  0
    2.4216   -9.9557  -32.4426 H   0  0  0  0  0  0  0  0  0  0  0  0
    4.9390  -11.8557  -33.0278 H   0  0  0  0  0  0  0  0  0  0  0  0
    5.7674  -10.7846  -34.1637 H   0  0  0  0  0  0  0  0  0  0  0  0
    4.8380  -10.1501  -29.6730 H   0  0  0  0  0  0  0  0  0  0  0  0
    1.8344  -12.0907  -31.9176 H   0  0  0  0  0  0  0  0  0  0  0  0
    2.9368  -10.5962  -34.5316 H   0  0  0  0  0  0  0  0  0  0  0  0
    3.4703  -12.2796  -34.6372 H   0  0  0  0  0  0  0  0  0  0  0  0
    1.1286   -7.7697  -32.1260 H   0  0  0  0  0  0  0  0  0  0  0  0
    0.6783   -6.6821  -30.8346 H   0  0  0  0  0  0  0  0  0  0  0  0
    0.2873   -8.3814  -30.7221 H   0  0  0  0  0  0  0  0  0  0  0  0
    4.8253  -11.9836  -28.0726 H   0  0  0  0  0  0  0  0  0  0  0  0
    1.8191  -13.9213  -30.3125 H   0  0  0  0  0  0  0  0  0  0  0  0
    3.6729  -11.5890  -36.8316 H   0  0  0  0  0  0  0  0  0  0  0  0
    5.2993  -11.3174  -36.1899 H   0  0  0  0  0  0  0  0  0  0  0  0
  1  2  1  0  0  0  0
  1  3  1  0  0  0  0
  1  4  1  0  0  0  0
  1 24  1  6  0  0  0
  2  5  1  0  0  0  0
  2  6  1  0  0  0  0
  3  7  2  0  0  0  0
  3  8  1  0  0  0  0
  4  9  2  0  0  0  0
  4 10  1  0  0  0  0
  5 11  2  0  0  0  0
  5  7  1  0  0  0  0
  6 12  1  0  0  0  0
  6 25  1  0  0  0  0
  6 26  1  0  0  0  0
  7 13  1  0  0  0  0
  8 14  1  0  0  0  0
  8 15  2  0  0  0  0
  9 16  1  0  0  0  0
  9 27  1  0  0  0  0
 10 17  2  0  0  0  0
 10 28  1  0  0  0  0
 12 18  1  0  0  0  0
 12 29  1  0  0  0  0
 12 30  1  0  0  0  0
 14 31  1  0  0  0  0
 14 32  1  0  0  0  0
 14 33  1  0  0  0  0
 16 19  2  0  0  0  0
 16 34  1  0  0  0  0
 17 19  1  0  0  0  0
 17 35  1  0  0  0  0
 18 20  1  0  0  0  0
 18 36  1  0  0  0  0
 18 37  1  0  0  0  0
 19 21  1  0  0  0  0
 20 22  1  0  0  0  0
 20 23  2  0  0  0  0
M  CHG  2  13  -1  22  -1
M  END
$$$$
