##########                                Name: HTS1710-00987115-01
##########                    Molecular_Weight:             333.321
##########                DOCK_Rotatable_Bonds:                   5
##########                       Formal_Charge:                  -2
##########                     HBond_Acceptors:                   8
##########                        HBond_Donors:                   1
##########                         Heavy_Atoms:                  23
##########                          Grid_Score:          -74.701019
##########                     Grid_vdw_energy:          -39.727501
##########                      Grid_es_energy:          -34.973522
##########           Internal_energy_repulsive:            4.588925

@<TRIPOS>MOLECULE
HTS1710-00987115-01
 34 35 1 0 0
SMALL
USER_CHARGES


@<TRIPOS>ATOM
      1 C           3.9771  -11.7088  -29.4260 C.3     1  UNL1       -0.0391
      2 C           4.1570  -11.5186  -30.9308 C.ar    1  UNL1       -0.0415
      3 C           4.0040  -12.6330  -31.7777 C.ar    1  UNL1       -0.0564
      4 C           4.1330  -12.5011  -33.1672 C.ar    1  UNL1       -0.0348
      5 C           4.4131  -11.2456  -33.7307 C.ar    1  UNL1        0.1091
      6 C           4.5789  -10.1297  -32.8925 C.ar    1  UNL1       -0.0260
      7 C           4.4583  -10.2536  -31.4949 C.ar    1  UNL1        0.0021
      8 C           4.6475   -9.0210  -30.6494 C.2     1  UNL1        0.0720
      9 O           5.7036   -8.4202  -30.7525 O.co2   1  UNL1       -0.5446
     10 O           3.7180   -8.6991  -29.9296 O.co2   1  UNL1       -0.5446
     11 S           4.5786  -11.0636  -35.5152 S.O2    1  UNL1        0.0724
     12 O           5.1403  -12.3045  -36.0590 O.2     1  UNL1       -0.1500
     13 O           5.0942   -9.7251  -35.8206 O.2     1  UNL1       -0.1500
     14 N           2.9605  -11.0548  -36.0365 N.pl3   1  UNL1       -0.2163
     15 C           1.9520  -10.1461  -35.7882 C.ar    1  UNL1        0.0481
     16 C           1.1060  -10.2658  -34.6687 C.ar    1  UNL1       -0.0387
     17 C           0.0934   -9.3198  -34.4434 C.ar    1  UNL1       -0.0511
     18 C          -0.0955   -8.2386  -35.3299 C.ar    1  UNL1       -0.0026
     19 C           0.7552   -8.1287  -36.4508 C.ar    1  UNL1       -0.0511
     20 C           1.7687   -9.0737  -36.6764 C.ar    1  UNL1       -0.0387
     21 C          -1.1861   -7.2177  -35.0850 C.2     1  UNL1        0.0717
     22 O          -2.2836   -7.6316  -34.7566 O.co2   1  UNL1       -0.5446
     23 O          -0.8993   -6.0408  -35.2319 O.co2   1  UNL1       -0.5446
     24 H           3.7565  -12.7353  -29.2201 H       1  UNL1        0.0278
     25 H           3.1707  -11.0948  -29.0828 H       1  UNL1        0.0278
     26 H           4.8781  -11.4293  -28.9210 H       1  UNL1        0.0278
     27 H           3.7945  -13.5579  -31.3706 H       1  UNL1        0.0621
     28 H           4.0220  -13.3268  -33.7763 H       1  UNL1        0.0637
     29 H           4.7916   -9.2085  -33.3062 H       1  UNL1        0.0644
     30 H           2.7027  -11.8167  -36.6041 H       1  UNL1        0.1737
     31 H           1.2307  -11.0518  -34.0116 H       1  UNL1        0.0637
     32 H          -0.5202   -9.4165  -33.6193 H       1  UNL1        0.0625
     33 H           0.6309   -7.3457  -37.1114 H       1  UNL1        0.0625
     34 H           2.3831   -8.9798  -37.5003 H       1  UNL1        0.0637
@<TRIPOS>BOND
     1     1     2    1
     2     2     3   ar
     3     3     4   ar
     4     4     5   ar
     5     5     6   ar
     6     6     7   ar
     7     2     7   ar
     8     7     8    1
     9     8     9   ar
    10     8    10   ar
    11     5    11    1
    12    11    12    2
    13    11    13    2
    14    11    14    1
    15    14    15    1
    16    15    16   ar
    17    16    17   ar
    18    17    18   ar
    19    18    19   ar
    20    19    20   ar
    21    15    20   ar
    22    18    21    1
    23    21    22   ar
    24    21    23   ar
    25     1    24    1
    26     1    25    1
    27     1    26    1
    28     3    27    1
    29     4    28    1
    30     6    29    1
    31    14    30    1
    32    16    31    1
    33    17    32    1
    34    19    33    1
    35    20    34    1
@<TRIPOS>SUBSTRUCTURE
     1 UNL1        1 TEMP              0 ****  ****    0 ROOT


