##########                                Name: HTS1710-00300530-01
##########                    Molecular_Weight:             339.349
##########                DOCK_Rotatable_Bonds:                   6
##########                       Formal_Charge:                  -2
##########                     HBond_Acceptors:                   9
##########                        HBond_Donors:                   1
##########                         Heavy_Atoms:                  23
##########                          Grid_Score:          -76.553711
##########                     Grid_vdw_energy:          -39.006851
##########                      Grid_es_energy:          -37.546860
##########           Internal_energy_repulsive:           11.606646

@<TRIPOS>MOLECULE
HTS1710-00300530-01
 38 39 1 0 0
SMALL
USER_CHARGES


@<TRIPOS>ATOM
      1 S           3.5894  -12.9170  -29.3527 S.O2    1  UNL1        0.0589
      2 C           4.9994   -9.3657  -32.8856 C.2     1  UNL1        0.0092
      3 C           4.6337  -10.0490  -31.7541 C.2     1  UNL1       -0.0773
      4 O           4.9945   -9.4181  -30.6094 O.co2   1  UNL1       -0.7132
      5 N           5.6718   -8.2259  -31.0059 N.2     1  UNL1       -0.3078
      6 N           4.5517  -12.2608  -30.5980 N.3     1  UNL1       -0.1839
      7 C           3.9316  -11.3900  -31.6175 C.3     1  UNL1        0.0396
      8 C           5.6646   -8.2164  -32.3351 C.2     1  UNL1        0.0367
      9 C           4.7853   -9.6981  -34.3303 C.2     1  UNL1        0.0726
     10 C           4.6946  -13.9661  -28.3890 C.ar    1  UNL1        0.1055
     11 O           3.2580  -11.7408  -28.5434 O.2     1  UNL1       -0.1530
     12 O           2.5747  -13.7365  -30.0224 O.2     1  UNL1       -0.1530
     13 O           3.7982   -9.2460  -34.8813 O.co2   1  UNL1       -0.5446
     14 C           5.8962  -13.4537  -27.8686 C.ar    1  UNL1       -0.0319
     15 C           4.3467  -15.3069  -28.1481 C.ar    1  UNL1       -0.0319
     16 O           5.5977  -10.4072  -34.8932 O.co2   1  UNL1       -0.5446
     17 C           6.3968  -15.6210  -26.8674 C.ar    1  UNL1        0.1202
     18 C           5.1958  -16.1293  -27.3912 C.ar    1  UNL1       -0.0181
     19 C           6.7452  -14.2738  -27.1087 C.ar    1  UNL1       -0.0181
     20 C           3.8048  -12.1344  -32.9669 C.3     1  UNL1       -0.0450
     21 O           7.1963  -16.4711  -26.1279 O.3     1  UNL1       -0.4951
     22 C           6.2807   -7.1255  -33.1774 C.3     1  UNL1       -0.0225
     23 C           6.6736  -17.5835  -25.3807 C.3     1  UNL1        0.0788
     24 H           4.9699  -13.0473  -31.0949 H       1  UNL1        0.1486
     25 H           2.9430  -11.1569  -31.2808 H       1  UNL1        0.0513
     26 H           6.1551  -12.4706  -28.0459 H       1  UNL1        0.0638
     27 H           3.4658  -15.6869  -28.5283 H       1  UNL1        0.0638
     28 H           4.9367  -17.1132  -27.2184 H       1  UNL1        0.0655
     29 H           7.6244  -13.8920  -26.7263 H       1  UNL1        0.0655
     30 H           4.7801  -12.3819  -33.3307 H       1  UNL1        0.0248
     31 H           3.3087  -11.5052  -33.6761 H       1  UNL1        0.0248
     32 H           3.2379  -13.0311  -32.8278 H       1  UNL1        0.0248
     33 H           6.1408   -7.3529  -34.2135 H       1  UNL1        0.0292
     34 H           7.3273   -7.0589  -32.9651 H       1  UNL1        0.0292
     35 H           5.8106   -6.1914  -32.9507 H       1  UNL1        0.0292
     36 H           7.4770  -18.0936  -24.8915 H       1  UNL1        0.0660
     37 H           6.1756  -18.2576  -26.0458 H       1  UNL1        0.0660
     38 H           5.9795  -17.2267  -24.6486 H       1  UNL1        0.0660
@<TRIPOS>BOND
     1     2     3    2
     2     3     7    1
     3     3     4    1
     4     4     5    1
     5     1     6    1
     6     6     7    1
     7     2     8    1
     8     2     9    1
     9     1    10    1
    10     1    11    2
    11     1    12    2
    12     9    13   ar
    13    10    14   ar
    14    10    15   ar
    15     9    16   ar
    16    17    18   ar
    17    15    18   ar
    18    14    19   ar
    19     7    20    1
    20    17    21    1
    21     8    22    1
    22    21    23    1
    23    17    19   ar
    24     5     8    2
    25     6    24    1
    26     7    25    1
    27    14    26    1
    28    15    27    1
    29    18    28    1
    30    19    29    1
    31    20    30    1
    32    20    31    1
    33    20    32    1
    34    22    33    1
    35    22    34    1
    36    22    35    1
    37    23    36    1
    38    23    37    1
    39    23    38    1
@<TRIPOS>SUBSTRUCTURE
     1 UNL1        1 TEMP              0 ****  ****    0 ROOT


