HTS1710-01997841-01
 OpenBabel03232612353D

 47 49  0  0  1  0  0  0  0  0999 V2000
    3.5782  -11.7401  -29.3036 C   0  0  0  0  0  0  0  0  0  0  0  0
    4.2169  -10.8215  -31.3701 N   0  0  0  0  0  0  0  0  0  0  0  0
    3.6247  -10.3933  -29.2196 C   0  0  0  0  0  0  0  0  0  0  0  0
    4.0050   -9.7732  -30.4961 C   0  0  0  0  0  0  0  0  0  0  0  0
    3.9076  -12.1355  -30.7486 C   0  0  2  0  0  0  0  0  0  0  0  0
    3.2578  -12.8006  -28.2922 C   0  0  0  0  0  0  0  0  0  0  0  0
    2.7582  -12.8653  -31.4436 C   0  0  0  0  0  0  0  0  0  0  0  0
    4.1159   -8.5844  -30.7451 O   0  0  0  0  0  0  0  0  0  0  0  0
    4.3468  -13.7063  -27.8014 C   0  0  0  0  0  0  0  0  0  0  0  0
    4.7677   -9.6431  -35.8945 C   0  0  0  0  0  0  0  0  0  0  0  0
    1.9688  -12.1305  -32.2600 N   0  0  0  0  0  0  0  0  0  0  0  0
    2.1216  -12.9499  -27.8746 O   0  0  0  0  0  0  0  0  0  0  0  0
    3.3470   -9.6209  -28.1455 O   0  5  0  0  0  0  0  0  0  0  0  0
    5.8495   -9.8604  -35.3766 O   0  5  0  0  0  0  0  0  0  0  0  0
    4.5080  -10.7047  -32.8103 C   0  0  0  0  0  0  0  0  0  0  0  0
    5.6425  -13.1977  -27.6031 C   0  0  0  0  0  0  0  0  0  0  0  0
    4.0737  -15.0477  -27.4776 C   0  0  0  0  0  0  0  0  0  0  0  0
    6.3934  -15.3766  -26.8069 C   0  0  0  0  0  0  0  0  0  0  0  0
    4.5930   -9.3788  -37.0713 O   0  0  0  0  0  0  0  0  0  0  0  0
    6.6652  -14.0261  -27.1136 C   0  0  0  0  0  0  0  0  0  0  0  0
    5.0949  -15.8794  -26.9901 C   0  0  0  0  0  0  0  0  0  0  0  0
    7.3632  -16.2325  -26.3201 O   0  0  0  0  0  0  0  0  0  0  0  0
    3.7877   -9.5084  -33.4829 C   0  0  0  0  0  0  0  0  0  0  0  0
    3.5150   -9.6830  -35.0025 C   0  0  0  0  0  0  0  0  0  0  0  0
    0.9521  -12.7479  -32.8940 C   0  0  0  0  0  0  0  0  0  0  0  0
    2.5536  -14.2434  -31.2355 C   0  0  0  0  0  0  0  0  0  0  0  0
    7.0579  -17.5244  -25.7660 C   0  0  0  0  0  0  0  0  0  0  0  0
    0.6774  -14.1181  -32.7452 C   0  0  0  0  0  0  0  0  0  0  0  0
    1.4956  -14.8815  -31.8982 C   0  0  0  0  0  0  0  0  0  0  0  0
    4.7105  -12.8390  -30.8218 H   0  0  0  0  0  0  0  0  0  0  0  0
    4.1955  -11.6061  -33.2948 H   0  0  0  0  0  0  0  0  0  0  0  0
    5.5605  -10.5394  -32.9100 H   0  0  0  0  0  0  0  0  0  0  0  0
    5.8433  -12.2087  -27.8189 H   0  0  0  0  0  0  0  0  0  0  0  0
    3.1196  -15.4220  -27.5987 H   0  0  0  0  0  0  0  0  0  0  0  0
    7.6156  -13.6473  -26.9780 H   0  0  0  0  0  0  0  0  0  0  0  0
    4.8901  -16.8655  -26.7651 H   0  0  0  0  0  0  0  0  0  0  0  0
    4.3952   -8.6374  -33.3517 H   0  0  0  0  0  0  0  0  0  0  0  0
    2.8300   -9.4299  -33.0120 H   0  0  0  0  0  0  0  0  0  0  0  0
    3.0339  -10.6277  -35.1475 H   0  0  0  0  0  0  0  0  0  0  0  0
    2.9108   -8.8503  -35.2964 H   0  0  0  0  0  0  0  0  0  0  0  0
    0.3480  -12.1892  -33.5168 H   0  0  0  0  0  0  0  0  0  0  0  0
    3.1732  -14.7755  -30.6047 H   0  0  0  0  0  0  0  0  0  0  0  0
    7.9636  -18.0029  -25.4567 H   0  0  0  0  0  0  0  0  0  0  0  0
    6.5724  -18.1246  -26.5069 H   0  0  0  0  0  0  0  0  0  0  0  0
    6.4106  -17.4067  -24.9221 H   0  0  0  0  0  0  0  0  0  0  0  0
   -0.1105  -14.5544  -33.2489 H   0  0  0  0  0  0  0  0  0  0  0  0
    1.3223  -15.8903  -31.7661 H   0  0  0  0  0  0  0  0  0  0  0  0
  1  3  2  0  0  0  0
  1  5  1  0  0  0  0
  1  6  1  0  0  0  0
  2  4  1  0  0  0  0
  2  5  1  0  0  0  0
  2 15  1  0  0  0  0
  3  4  1  0  0  0  0
  3 13  1  0  0  0  0
  4  8  2  0  0  0  0
  5  7  1  0  0  0  0
  5 30  1  6  0  0  0
  6  9  1  0  0  0  0
  6 12  2  0  0  0  0
  7 11  2  0  0  0  0
  7 26  1  0  0  0  0
  9 16  2  0  0  0  0
  9 17  1  0  0  0  0
 10 14  1  0  0  0  0
 10 19  2  0  0  0  0
 10 24  1  0  0  0  0
 11 25  1  0  0  0  0
 15 23  1  0  0  0  0
 15 31  1  0  0  0  0
 15 32  1  0  0  0  0
 16 20  1  0  0  0  0
 16 33  1  0  0  0  0
 17 21  2  0  0  0  0
 17 34  1  0  0  0  0
 18 20  2  0  0  0  0
 18 21  1  0  0  0  0
 18 22  1  0  0  0  0
 20 35  1  0  0  0  0
 21 36  1  0  0  0  0
 22 27  1  0  0  0  0
 23 24  1  0  0  0  0
 23 37  1  0  0  0  0
 23 38  1  0  0  0  0
 24 39  1  0  0  0  0
 24 40  1  0  0  0  0
 25 28  2  0  0  0  0
 25 41  1  0  0  0  0
 26 29  2  0  0  0  0
 26 42  1  0  0  0  0
 27 43  1  0  0  0  0
 27 44  1  0  0  0  0
 27 45  1  0  0  0  0
 28 29  1  0  0  0  0
 28 46  1  0  0  0  0
 29 47  1  0  0  0  0
M  CHG  2  13  -1  14  -1
M  END
$$$$
