HTS1710-00109839-01
 OpenBabel03232612353D

 36 37  0  0  0  0  0  0  0  0999 V2000
   -0.5490   -6.4245  -37.0311 N   0  0  0  0  0  0  0  0  0  0  0  0
   -0.0578   -7.4241  -36.2256 C   0  0  0  0  0  0  0  0  0  0  0  0
    1.0244   -8.2064  -36.6523 C   0  0  0  0  0  0  0  0  0  0  0  0
    1.5546   -9.2375  -35.8418 C   0  0  0  0  0  0  0  0  0  0  0  0
    0.9361   -9.5119  -34.5792 C   0  0  0  0  0  0  0  0  0  0  0  0
    1.2857  -10.6158  -33.6236 C   0  0  0  0  0  0  0  0  0  0  0  0
    1.9359  -10.6034  -32.4315 C   0  0  0  0  0  0  0  0  0  0  0  0
    2.2780  -11.7178  -31.4869 C   0  0  0  0  0  0  0  0  0  0  0  0
    1.7735  -12.9850  -31.8516 C   0  0  0  0  0  0  0  0  0  0  0  0
    1.9226  -14.1021  -31.0224 C   0  0  0  0  0  0  0  0  0  0  0  0
    2.5924  -13.9780  -29.8026 C   0  0  0  0  0  0  0  0  0  0  0  0
    2.7231  -15.0658  -28.9716 N   0  0  0  0  0  0  0  0  0  0  0  0
    3.1476  -12.7437  -29.4390 C   0  0  0  0  0  0  0  0  0  0  0  0
    3.0335  -11.6094  -30.2748 C   0  0  0  0  0  0  0  0  0  0  0  0
    3.9815  -10.1378  -29.7616 S   0  0  0  0  0  0  0  0  0  0  0  0
    4.6984  -10.5789  -28.5599 O   0  0  0  0  0  1  0  0  0  0  0  0
    2.9233   -9.1558  -29.5047 O   0  0  0  0  0  0  0  0  0  0  0  0
    4.8463   -9.8491  -30.9090 O   0  0  0  0  0  0  0  0  0  0  0  0
   -0.1258   -8.6803  -34.1585 C   0  0  0  0  0  0  0  0  0  0  0  0
   -0.6231   -7.6530  -34.9689 C   0  0  0  0  0  0  0  0  0  0  0  0
    3.0632  -10.0525  -36.4659 S   0  0  0  0  0  0  0  0  0  0  0  0
    3.4899   -9.1443  -37.5351 O   0  0  0  0  0  1  0  0  0  0  0  0
    2.5987  -11.3705  -36.9073 O   0  0  0  0  0  0  0  0  0  0  0  0
    3.9620  -10.0838  -35.3078 O   0  0  0  0  0  0  0  0  0  0  0  0
   -0.1493   -6.2646  -37.9164 H   0  0  0  0  0  0  0  0  0  0  0  0
   -1.3006   -5.8684  -36.7226 H   0  0  0  0  0  0  0  0  0  0  0  0
    1.4435   -8.0261  -37.5779 H   0  0  0  0  0  0  0  0  0  0  0  0
    0.9762  -11.5523  -33.9273 H   0  0  0  0  0  0  0  0  0  0  0  0
    2.2476   -9.6693  -32.1230 H   0  0  0  0  0  0  0  0  0  0  0  0
    1.2821  -13.0901  -32.7529 H   0  0  0  0  0  0  0  0  0  0  0  0
    1.5388  -15.0155  -31.3111 H   0  0  0  0  0  0  0  0  0  0  0  0
    2.3322  -15.9319  -29.2294 H   0  0  0  0  0  0  0  0  0  0  0  0
    3.2076  -14.9787  -28.1191 H   0  0  0  0  0  0  0  0  0  0  0  0
    3.6507  -12.6610  -28.5417 H   0  0  0  0  0  0  0  0  0  0  0  0
   -0.5461   -8.8344  -33.2286 H   0  0  0  0  0  0  0  0  0  0  0  0
   -1.4054   -7.0663  -34.6388 H   0  0  0  0  0  0  0  0  0  0  0  0
  1  2  1  0  0  0  0
  1 25  1  0  0  0  0
  1 26  1  0  0  0  0
  2  3  2  0  0  0  0
  2 20  1  0  0  0  0
  3  4  1  0  0  0  0
  3 27  1  0  0  0  0
  4  5  2  0  0  0  0
  4 21  1  0  0  0  0
  5  6  1  0  0  0  0
  5 19  1  0  0  0  0
  6  7  2  0  0  0  0
  6 28  1  0  0  0  0
  7  8  1  0  0  0  0
  7 29  1  0  0  0  0
  8  9  2  0  0  0  0
  8 14  1  0  0  0  0
  9 10  1  0  0  0  0
  9 30  1  0  0  0  0
 10 11  2  0  0  0  0
 10 31  1  0  0  0  0
 11 12  1  0  0  0  0
 11 13  1  0  0  0  0
 12 32  1  0  0  0  0
 12 33  1  0  0  0  0
 13 14  2  0  0  0  0
 13 34  1  0  0  0  0
 14 15  1  0  0  0  0
 15 16  1  0  0  0  0
 15 17  2  0  0  0  0
 15 18  2  0  0  0  0
 19 20  2  0  0  0  0
 19 35  1  0  0  0  0
 20 36  1  0  0  0  0
 21 22  1  0  0  0  0
 21 23  2  0  0  0  0
 21 24  2  0  0  0  0
M  END
$$$$
