##########                                Name: HTS1710-04206650-01
##########                    Molecular_Weight:             409.373
##########                DOCK_Rotatable_Bonds:                   9
##########                       Formal_Charge:                  -2
##########                     HBond_Acceptors:                  11
##########                        HBond_Donors:                   1
##########                         Heavy_Atoms:                  28
##########                          Grid_Score:          -79.732025
##########                     Grid_vdw_energy:          -42.740685
##########                      Grid_es_energy:          -36.991341
##########           Internal_energy_repulsive:           15.873285

@<TRIPOS>MOLECULE
HTS1710-04206650-01
 43 44 1 0 0
SMALL
USER_CHARGES


@<TRIPOS>ATOM
      1 S           1.4135  -11.8942  -34.9762 S.O2    1  UNL1        0.0725
      2 C           2.9269  -12.0002  -32.6482 C.ar    1  UNL1        0.0938
      3 N           2.8141  -12.0693  -34.0241 N.pl3   1  UNL1       -0.2126
      4 C           2.4821  -13.0812  -31.8570 C.ar    1  UNL1        0.1838
      5 C           3.6457  -10.7864  -30.6541 C.ar    1  UNL1        0.0028
      6 C           2.6317  -13.0150  -30.4422 C.ar    1  UNL1        0.1640
      7 C           3.4815  -10.8588  -32.0462 C.ar    1  UNL1       -0.0267
      8 C           4.2735   -9.5668  -30.0232 C.2     1  UNL1        0.0718
      9 C           0.8691  -10.1981  -34.6999 C.ar    1  UNL1        0.1087
     10 C           3.2196  -11.8679  -29.8604 C.ar    1  UNL1       -0.0073
     11 O           1.9636  -11.9466  -36.3336 O.2     1  UNL1       -0.1500
     12 O           0.4431  -12.8715  -34.4721 O.2     1  UNL1       -0.1500
     13 C           0.9653   -5.0285  -32.3045 C.2     1  UNL1        0.0789
     14 O           5.1413   -8.9917  -30.6574 O.co2   1  UNL1       -0.5446
     15 O           1.6853   -5.8145  -31.7135 O.co2   1  UNL1       -0.5463
     16 C           0.4293   -9.7859  -33.4296 C.ar    1  UNL1       -0.0316
     17 C           0.9264   -9.2698  -35.7540 C.ar    1  UNL1       -0.0316
     18 O          -0.2403   -6.1941  -34.1038 O.3     1  UNL1       -0.4862
     19 C          -0.3787   -5.5729  -32.8087 C.3     1  UNL1        0.1286
     20 O           1.9301  -14.1654  -32.5342 O.3     1  UNL1       -0.4897
     21 C           0.1140   -7.5176  -34.2684 C.ar    1  UNL1        0.1212
     22 O           3.8728   -9.2357  -28.9205 O.co2   1  UNL1       -0.5446
     23 O           2.2144  -14.0641  -29.6408 O.3     1  UNL1       -0.4914
     24 O           1.2482   -3.8703  -32.5605 O.co2   1  UNL1       -0.5463
     25 C           0.5462   -7.9358  -35.5374 C.ar    1  UNL1       -0.0181
     26 C           0.0556   -8.4500  -33.2101 C.ar    1  UNL1       -0.0181
     27 C           1.1473  -15.2289  -31.9625 C.3     1  UNL1        0.0791
     28 C           2.7794  -14.3659  -28.3525 C.3     1  UNL1        0.0790
     29 H           3.6494  -12.2415  -34.5158 H       1  UNL1        0.1738
     30 H           3.7721  -10.0629  -32.6353 H       1  UNL1        0.0644
     31 H           3.3383  -11.8230  -28.8362 H       1  UNL1        0.0662
     32 H           0.3809  -10.4672  -32.6560 H       1  UNL1        0.0638
     33 H           1.2480   -9.5691  -36.6878 H       1  UNL1        0.0638
     34 H          -1.0764   -4.7650  -32.8824 H       1  UNL1        0.0760
     35 H          -0.7255   -6.3107  -32.1157 H       1  UNL1        0.0760
     36 H           0.5847   -7.2586  -36.3151 H       1  UNL1        0.0655
     37 H          -0.2617   -8.1499  -32.2751 H       1  UNL1        0.0655
     38 H           0.8636  -15.9163  -32.7318 H       1  UNL1        0.0660
     39 H           0.2691  -14.8205  -31.5076 H       1  UNL1        0.0660
     40 H           1.7270  -15.7406  -31.2229 H       1  UNL1        0.0660
     41 H           2.2858  -15.2199  -27.9378 H       1  UNL1        0.0660
     42 H           2.6493  -13.5274  -27.7007 H       1  UNL1        0.0660
     43 H           3.8231  -14.5749  -28.4609 H       1  UNL1        0.0660
@<TRIPOS>BOND
     1     2     3    1
     2     1     3    1
     3     2     4   ar
     4     5     7   ar
     5     4     6   ar
     6     2     7   ar
     7     5     8    1
     8     1     9    1
     9     6    10   ar
    10     1    11    2
    11     1    12    2
    12    13    19    1
    13     8    14   ar
    14    13    15   ar
    15     9    16   ar
    16     9    17   ar
    17    18    21    1
    18    18    19    1
    19     4    20    1
    20    21    26   ar
    21     8    22   ar
    22     6    23    1
    23    13    24   ar
    24    17    25   ar
    25    16    26   ar
    26    20    27    1
    27    23    28    1
    28    21    25   ar
    29     5    10   ar
    30     3    29    1
    31     7    30    1
    32    10    31    1
    33    16    32    1
    34    17    33    1
    35    19    34    1
    36    19    35    1
    37    25    36    1
    38    26    37    1
    39    27    38    1
    40    27    39    1
    41    27    40    1
    42    28    41    1
    43    28    42    1
    44    28    43    1
@<TRIPOS>SUBSTRUCTURE
     1 UNL1        1 TEMP              0 ****  ****    0 ROOT


