##########                                Name: HTS1710-01292218-01
##########                    Molecular_Weight:             365.387
##########                DOCK_Rotatable_Bonds:                   9
##########                       Formal_Charge:                  -2
##########                     HBond_Acceptors:                   9
##########                        HBond_Donors:                   0
##########                         Heavy_Atoms:                  24
##########                          Grid_Score:          -78.786530
##########                     Grid_vdw_energy:          -37.158619
##########                      Grid_es_energy:          -41.627914
##########           Internal_energy_repulsive:           15.348298

@<TRIPOS>MOLECULE
HTS1710-01292218-01
 35 36 1 0 0
SMALL
USER_CHARGES


@<TRIPOS>ATOM
      1 N           2.4459  -10.4115  -31.8581 N.am    1  UNL1       -0.2466
      2 C           1.5182  -10.7878  -32.8259 C.2     1  UNL1        0.1211
      3 C           2.8265  -11.4476  -31.0063 C.2     1  UNL1        0.2588
      4 S           1.0120  -12.5022  -32.7205 S.3     1  UNL1       -0.0610
      5 C           2.0985  -12.6827  -31.3606 C.2     1  UNL1        0.0766
      6 C           3.0195   -9.0437  -31.7356 C.3     1  UNL1        0.0718
      7 C           4.5284   -9.1284  -31.4002 C.2     1  UNL1        0.0626
      8 S           0.9438   -9.8171  -34.0666 S.2     1  UNL1       -0.0272
      9 C           5.4387  -14.4033  -28.5297 C.ar    1  UNL1        0.1277
     10 C           2.1704   -8.1454  -30.7867 C.3     1  UNL1       -0.0235
     11 C           2.2686  -13.8599  -30.6727 C.2     1  UNL1       -0.0428
     12 O           3.6405  -11.3428  -30.1034 O.2     1  UNL1       -0.2690
     13 C           3.1532  -14.0911  -29.5298 C.2     1  UNL1       -0.0571
     14 C           3.0454   -5.7495  -30.8517 C.2     1  UNL1        0.0418
     15 O           6.3104  -13.3939  -28.2025 O.2     1  UNL1       -0.4635
     16 C           4.5019  -14.1751  -29.6245 C.2     1  UNL1       -0.0193
     17 O           5.2959   -9.5375  -32.2549 O.co2   1  UNL1       -0.5479
     18 C           5.5803  -15.5234  -27.7464 C.ar    1  UNL1       -0.0165
     19 C           7.0122  -13.9475  -27.1637 C.ar    1  UNL1        0.0925
     20 C           6.6243  -15.2196  -26.8413 C.ar    1  UNL1       -0.0233
     21 O           4.1614   -5.8824  -31.3256 O.co2   1  UNL1       -0.5498
     22 C           1.9555   -6.7136  -31.3384 C.3     1  UNL1       -0.0112
     23 O           4.8551   -8.7813  -30.2780 O.co2   1  UNL1       -0.5479
     24 O           2.7287   -4.9287  -30.0083 O.co2   1  UNL1       -0.5498
     25 H           2.9633   -8.5400  -32.6780 H       1  UNL1        0.0566
     26 H           2.6721   -8.0757  -29.8442 H       1  UNL1        0.0290
     27 H           1.2063   -8.6003  -30.6939 H       1  UNL1        0.0290
     28 H           1.7133  -14.6673  -30.9965 H       1  UNL1        0.0630
     29 H           2.7243  -14.1964  -28.5970 H       1  UNL1        0.0619
     30 H           4.9080  -14.0667  -30.5670 H       1  UNL1        0.0654
     31 H           5.0395  -16.4004  -27.8059 H       1  UNL1        0.0655
     32 H           7.7674  -13.4486  -26.6678 H       1  UNL1        0.1029
     33 H           7.0093  -15.8253  -26.0996 H       1  UNL1        0.0649
     34 H           1.9743   -6.7473  -32.4077 H       1  UNL1        0.0325
     35 H           1.0112   -6.3571  -30.9831 H       1  UNL1        0.0325
@<TRIPOS>BOND
     1     1     2    1
     2     1     3   am
     3     2     4    1
     4     3     5    1
     5     1     6    1
     6     6     7    1
     7     2     8    2
     8     9    16    1
     9     6    10    1
    10     5    11    2
    11     3    12    2
    12    11    13    1
    13    14    22    1
    14     9    15   ar
    15    13    16    2
    16     7    17   ar
    17     9    18   ar
    18    15    19   ar
    19    18    20   ar
    20    14    21   ar
    21    10    22    1
    22     7    23   ar
    23    14    24   ar
    24     4     5    1
    25    19    20   ar
    26     6    25    1
    27    10    26    1
    28    10    27    1
    29    11    28    1
    30    13    29    1
    31    16    30    1
    32    18    31    1
    33    19    32    1
    34    20    33    1
    35    22    34    1
    36    22    35    1
@<TRIPOS>SUBSTRUCTURE
     1 UNL1        1 TEMP              0 ****  ****    0 ROOT


