##########                                Name: HTS1710-02483552-01
##########                    Molecular_Weight:             389.362
##########                DOCK_Rotatable_Bonds:                   8
##########                       Formal_Charge:                  -2
##########                     HBond_Acceptors:                   9
##########                        HBond_Donors:                   3
##########                         Heavy_Atoms:                  28
##########                          Grid_Score:          -78.106033
##########                     Grid_vdw_energy:          -41.187988
##########                      Grid_es_energy:          -36.918041
##########           Internal_energy_repulsive:            8.258283

@<TRIPOS>MOLECULE
HTS1710-02483552-01
 47 49 1 0 0
SMALL
USER_CHARGES


@<TRIPOS>ATOM
      1 C           5.7771   -7.5661  -33.2400 C.2     1  UNL1       -0.0555
      2 C           5.1245   -7.3004  -32.0497 C.2     1  UNL1       -0.1091
      3 C           4.5175   -9.7342  -31.9744 C.2     1  UNL1        0.0538
      4 C           5.2096   -9.8650  -33.1491 C.2     1  UNL1       -0.0306
      5 C           4.2367   -8.3364  -31.4189 C.3     1  UNL1        0.0284
      6 O           5.7104   -8.7965  -33.8495 O.co2   1  UNL1       -0.7688
      7 C           6.5718   -6.5277  -33.9083 C.2     1  UNL1        0.1708
      8 O           5.1676   -6.0839  -31.3968 O.co2   1  UNL1       -0.7839
      9 C           2.7677   -7.9607  -31.6073 C.ar    1  UNL1       -0.0328
     10 C           6.5913   -5.2584  -33.1826 C.2     1  UNL1       -0.0241
     11 C           3.9439  -10.8608  -31.1280 C.2     1  UNL1        0.3364
     12 C           5.9107   -5.0909  -31.9966 C.2     1  UNL1       -0.0886
     13 C           1.9983   -8.5898  -32.6040 C.ar    1  UNL1       -0.0123
     14 C           0.6429   -8.2422  -32.7918 C.ar    1  UNL1        0.1618
     15 N           5.4570  -11.0834  -33.7351 N.pl3   1  UNL1       -0.3685
     16 C           2.1745   -6.9763  -30.7984 C.ar    1  UNL1       -0.0540
     17 O           7.1624   -6.7002  -34.9608 O.2     1  UNL1       -0.2886
     18 C           0.0557   -7.2530  -31.9767 C.ar    1  UNL1        0.1615
     19 O           4.3482  -11.1081  -30.0025 O.2     1  UNL1       -0.2453
     20 C           0.8296   -6.6220  -30.9785 C.ar    1  UNL1       -0.0160
     21 O           2.9446  -11.5781  -31.7262 O.3     1  UNL1       -0.4646
     22 O          -0.1335   -8.8483  -33.7635 O.3     1  UNL1       -0.4914
     23 O          -1.2729   -6.9257  -32.1844 O.3     1  UNL1       -0.4915
     24 C           5.9631   -3.7664  -31.2753 C.3     1  UNL1        0.0566
     25 O           5.1271   -3.7666  -30.1201 O.3     1  UNL1       -0.3915
     26 C           2.7748  -12.9716  -31.4049 C.3     1  UNL1        0.0820
     27 C           0.4162   -9.6620  -34.8155 C.3     1  UNL1        0.0790
     28 C          -1.7188   -5.5854  -32.4560 C.3     1  UNL1        0.0790
     29 H           4.4532   -8.3614  -30.3714 H       1  UNL1        0.0437
     30 H           7.1293   -4.4670  -33.5691 H       1  UNL1        0.0647
     31 H           2.4287   -9.3117  -33.2028 H       1  UNL1        0.0658
     32 H           6.0093  -11.1353  -34.5484 H       1  UNL1        0.1413
     33 H           5.0820  -11.9042  -33.3415 H       1  UNL1        0.1413
     34 H           2.7330   -6.5106  -30.0662 H       1  UNL1        0.0622
     35 H           0.4041   -5.8976  -30.3793 H       1  UNL1        0.0655
     36 H           5.6361   -2.9949  -31.9408 H       1  UNL1        0.0596
     37 H           6.9712   -3.5956  -30.9599 H       1  UNL1        0.0596
     38 H           5.2141   -2.9183  -29.6578 H       1  UNL1        0.2098
     39 H           1.9519  -13.3684  -31.9620 H       1  UNL1        0.0661
     40 H           2.5796  -13.0750  -30.3580 H       1  UNL1        0.0661
     41 H           3.6667  -13.5068  -31.6560 H       1  UNL1        0.0661
     42 H          -0.3752  -10.0190  -35.4409 H       1  UNL1        0.0660
     43 H           0.9361  -10.4939  -34.3882 H       1  UNL1        0.0660
     44 H           1.0965   -9.0780  -35.3995 H       1  UNL1        0.0660
     45 H          -2.7815   -5.5813  -32.5799 H       1  UNL1        0.0660
     46 H          -1.2539   -5.2294  -33.3516 H       1  UNL1        0.0660
     47 H          -1.4525   -4.9485  -31.6385 H       1  UNL1        0.0660
@<TRIPOS>BOND
     1     1     2    2
     2     1     6    1
     3     1     7    1
     4     2     5    1
     5     2     8    1
     6     3     4    2
     7     3     5    1
     8     3    11    1
     9     4     6    1
    10     4    15    1
    11     5     9    1
    12     7    10    1
    13     7    17    2
    14     8    12    1
    15     9    13   ar
    16     9    16   ar
    17    10    12    2
    18    11    19    2
    19    11    21    1
    20    12    24    1
    21    13    14   ar
    22    14    18   ar
    23    14    22    1
    24    16    20   ar
    25    18    20   ar
    26    18    23    1
    27    21    26    1
    28    22    27    1
    29    23    28    1
    30    24    25    1
    31     5    29    1
    32    10    30    1
    33    13    31    1
    34    15    32    1
    35    15    33    1
    36    16    34    1
    37    20    35    1
    38    24    36    1
    39    24    37    1
    40    25    38    1
    41    26    39    1
    42    26    40    1
    43    26    41    1
    44    27    42    1
    45    27    43    1
    46    27    44    1
    47    28    45    1
    48    28    46    1
    49    28    47    1
@<TRIPOS>SUBSTRUCTURE
     1 UNL1        1 TEMP              0 ****  ****    0 ROOT


