HTS1710-01164308-01
 OpenBabel03232612363D

 39 41  0  0  1  0  0  0  0  0999 V2000
    4.3997   -7.2896  -31.4416 C   0  0  0  0  0  0  0  0  0  0  0  0
    4.9645   -8.2376  -32.2758 C   0  0  0  0  0  0  0  0  0  0  0  0
    3.6993   -9.9700  -30.9685 C   0  0  0  0  0  0  0  0  0  0  0  0
    3.2285   -8.9359  -30.2039 C   0  0  0  0  0  0  0  0  0  0  0  0
    3.4562   -7.6167  -30.4984 O   0  0  0  0  0  0  0  0  0  0  0  0
    4.4986   -9.6666  -32.2366 C   0  0  1  0  0  0  0  0  0  0  0  0
    4.7908   -5.8760  -31.5387 C   0  0  0  0  0  0  0  0  0  0  0  0
    5.9255   -7.9575  -33.2291 O   0  0  0  0  0  0  0  0  0  0  0  0
    5.8059   -5.6264  -32.5610 C   0  0  0  0  0  0  0  0  0  0  0  0
    3.4944  -11.4561  -30.7119 C   0  0  0  0  0  0  0  0  0  0  0  0
    6.3180   -6.6418  -33.3371 C   0  0  0  0  0  0  0  0  0  0  0  0
    3.6808   -9.9950  -33.4858 C   0  0  0  0  0  0  0  0  0  0  0  0
    2.4839   -9.1335  -29.0647 N   0  0  0  0  0  0  0  0  0  0  0  0
    4.3222   -4.9956  -30.8388 O   0  0  0  0  0  0  0  0  0  0  0  0
    2.4415  -12.0261  -30.9585 O   0  0  0  0  0  0  0  0  0  0  0  0
    4.5741  -12.1036  -30.1771 O   0  0  0  0  0  0  0  0  0  0  0  0
    7.3613   -6.3345  -34.3787 C   0  0  0  0  0  0  0  0  0  0  0  0
    6.8065   -6.3877  -35.6895 O   0  0  0  0  0  0  0  0  0  0  0  0
    2.3032   -9.7104  -33.5316 C   0  0  0  0  0  0  0  0  0  0  0  0
    4.2984  -10.5882  -34.6051 C   0  0  0  0  0  0  0  0  0  0  0  0
    4.5281  -13.5300  -29.9898 C   0  0  0  0  0  0  0  0  0  0  0  0
    1.5539  -10.0091  -34.6810 C   0  0  0  0  0  0  0  0  0  0  0  0
    3.5491  -10.8870  -35.7545 C   0  0  0  0  0  0  0  0  0  0  0  0
    2.1773  -10.5967  -35.7931 C   0  0  0  0  0  0  0  0  0  0  0  0
    5.3674  -10.2909  -32.2202 H   0  0  0  0  0  0  0  0  0  0  0  0
    6.1477   -4.6633  -32.7046 H   0  0  0  0  0  0  0  0  0  0  0  0
    2.3197  -10.0469  -28.7362 H   0  0  0  0  0  0  0  0  0  0  0  0
    2.1152   -8.3615  -28.5775 H   0  0  0  0  0  0  0  0  0  0  0  0
    8.1518   -7.0518  -34.3041 H   0  0  0  0  0  0  0  0  0  0  0  0
    7.7337   -5.3463  -34.2063 H   0  0  0  0  0  0  0  0  0  0  0  0
    6.0914   -5.7367  -35.7646 H   0  0  0  0  0  0  0  0  0  0  0  0
    1.8410   -9.2795  -32.7156 H   0  0  0  0  0  0  0  0  0  0  0  0
    5.3072  -10.8042  -34.5798 H   0  0  0  0  0  0  0  0  0  0  0  0
    5.4514  -13.8639  -29.5643 H   0  0  0  0  0  0  0  0  0  0  0  0
    4.3769  -14.0091  -30.9345 H   0  0  0  0  0  0  0  0  0  0  0  0
    3.7218  -13.7775  -29.3314 H   0  0  0  0  0  0  0  0  0  0  0  0
    0.5444   -9.7966  -34.7081 H   0  0  0  0  0  0  0  0  0  0  0  0
    4.0079  -11.3202  -36.5711 H   0  0  0  0  0  0  0  0  0  0  0  0
    1.6269  -10.8150  -36.6384 H   0  0  0  0  0  0  0  0  0  0  0  0
  1  2  2  0  0  0  0
  1  5  1  0  0  0  0
  1  7  1  0  0  0  0
  2  6  1  0  0  0  0
  2  8  1  0  0  0  0
  3  4  2  0  0  0  0
  3 10  1  0  0  0  0
  3  6  1  0  0  0  0
  4  5  1  0  0  0  0
  4 13  1  0  0  0  0
  6 12  1  0  0  0  0
  6 25  1  6  0  0  0
  7  9  1  0  0  0  0
  7 14  2  0  0  0  0
  8 11  1  0  0  0  0
  9 11  2  0  0  0  0
  9 26  1  0  0  0  0
 10 15  2  0  0  0  0
 10 16  1  0  0  0  0
 11 17  1  0  0  0  0
 12 19  2  0  0  0  0
 12 20  1  0  0  0  0
 13 27  1  0  0  0  0
 13 28  1  0  0  0  0
 16 21  1  0  0  0  0
 17 18  1  0  0  0  0
 17 29  1  0  0  0  0
 17 30  1  0  0  0  0
 18 31  1  0  0  0  0
 19 22  1  0  0  0  0
 19 32  1  0  0  0  0
 20 23  2  0  0  0  0
 20 33  1  0  0  0  0
 21 34  1  0  0  0  0
 21 35  1  0  0  0  0
 21 36  1  0  0  0  0
 22 24  2  0  0  0  0
 22 37  1  0  0  0  0
 23 24  1  0  0  0  0
 23 38  1  0  0  0  0
 24 39  1  0  0  0  0
M  END
$$$$
