##########                                Name: HTS1710-02589389-01
##########                    Molecular_Weight:             350.376
##########                DOCK_Rotatable_Bonds:                   7
##########                       Formal_Charge:                  -2
##########                     HBond_Acceptors:                   9
##########                        HBond_Donors:                   0
##########                         Heavy_Atoms:                  23
##########                          Grid_Score:          -75.326637
##########                     Grid_vdw_energy:          -43.260342
##########                      Grid_es_energy:          -32.066296
##########           Internal_energy_repulsive:           10.023820

@<TRIPOS>MOLECULE
HTS1710-02589389-01
 33 34 1 0 0
SMALL
USER_CHARGES


@<TRIPOS>ATOM
      1 N           2.6738  -12.7661  -29.7686 N.am    1  UNL1       -0.2466
      2 C           1.8390  -13.8640  -29.6020 C.2     1  UNL1        0.1211
      3 C           2.7568  -12.3050  -31.0848 C.2     1  UNL1        0.2589
      4 C           1.9032  -13.1445  -31.9685 C.2     1  UNL1        0.0786
      5 S           1.0690  -14.4244  -31.1099 S.3     1  UNL1       -0.0609
      6 C           3.3673  -12.1089  -28.6251 C.3     1  UNL1        0.0718
      7 C           1.7220  -13.0215  -33.3331 C.2     1  UNL1       -0.0175
      8 C           3.2171  -10.5713  -28.7040 C.2     1  UNL1        0.0626
      9 S           1.5279  -14.6392  -28.1468 S.2     1  UNL1       -0.0272
     10 C           4.8348  -12.6069  -28.4707 C.3     1  UNL1       -0.0235
     11 O           3.4499  -11.3661  -31.4317 O.2     1  UNL1       -0.2690
     12 C           6.4125  -14.2414  -27.3041 C.2     1  UNL1        0.0418
     13 N           1.3921  -11.1503  -34.8917 N.ar    1  UNL1       -0.2555
     14 C           2.1968  -12.1336  -34.4381 C.ar    1  UNL1        0.0651
     15 O           2.1048  -10.0894  -28.5685 O.co2   1  UNL1       -0.5479
     16 O           7.2524  -13.3909  -27.5407 O.co2   1  UNL1       -0.5498
     17 C           4.9516  -13.8924  -27.6145 C.3     1  UNL1       -0.0112
     18 O           4.2348   -9.9323  -28.9095 O.co2   1  UNL1       -0.5479
     19 O           6.6367  -15.3566  -26.8653 O.co2   1  UNL1       -0.5498
     20 C           1.8280  -10.3516  -35.8870 C.ar    1  UNL1        0.0282
     21 C           3.4823  -12.3445  -34.9829 C.ar    1  UNL1       -0.0362
     22 C           3.0930  -10.4945  -36.4801 C.ar    1  UNL1       -0.0436
     23 C           3.9373  -11.5131  -36.0175 C.ar    1  UNL1       -0.0583
     24 H           2.8869  -12.4037  -27.7156 H       1  UNL1        0.0566
     25 H           1.0785  -13.7456  -33.6889 H       1  UNL1        0.0651
     26 H           5.4099  -11.8339  -28.0052 H       1  UNL1        0.0290
     27 H           5.1978  -12.8408  -29.4497 H       1  UNL1        0.0290
     28 H           4.5075  -14.7058  -28.1492 H       1  UNL1        0.0325
     29 H           4.4472  -13.7200  -26.6867 H       1  UNL1        0.0325
     30 H           1.2049   -9.6027  -36.2276 H       1  UNL1        0.0830
     31 H           4.0819  -13.1035  -34.6234 H       1  UNL1        0.0639
     32 H           3.3941   -9.8638  -37.2395 H       1  UNL1        0.0633
     33 H           4.8740  -11.6488  -36.4290 H       1  UNL1        0.0619
@<TRIPOS>BOND
     1     1     2    1
     2     1     3   am
     3     1     6    1
     4     2     5    1
     5     2     9    2
     6     3     4    1
     7     3    11    2
     8     4     5    1
     9     4     7    2
    10     6     8    1
    11     6    10    1
    12     7    14    1
    13     8    15   ar
    14     8    18   ar
    15    10    17    1
    16    12    16   ar
    17    12    17    1
    18    12    19   ar
    19    13    14   ar
    20    13    20   ar
    21    14    21   ar
    22    20    22   ar
    23    21    23   ar
    24    22    23   ar
    25     6    24    1
    26     7    25    1
    27    10    26    1
    28    10    27    1
    29    17    28    1
    30    17    29    1
    31    20    30    1
    32    21    31    1
    33    22    32    1
    34    23    33    1
@<TRIPOS>SUBSTRUCTURE
     1 UNL1        1 TEMP              0 ****  ****    0 ROOT


