##########                                Name: HTS1710-00278351-01
##########                    Molecular_Weight:             300.311
##########                DOCK_Rotatable_Bonds:                   4
##########                       Formal_Charge:                  -3
##########                     HBond_Acceptors:                   5
##########                        HBond_Donors:                   0
##########                         Heavy_Atoms:                  22
##########                          Grid_Score:          -80.367783
##########                     Grid_vdw_energy:          -32.539398
##########                      Grid_es_energy:          -47.828388
##########           Internal_energy_repulsive:           13.645448

@<TRIPOS>MOLECULE
HTS1710-00278351-01
 38 39 1 0 0
SMALL
USER_CHARGES


@<TRIPOS>ATOM
      1 C           4.1551  -10.0678  -31.6895 C.2     1  UNL1       -0.0516
      2 C           4.8011   -9.2571  -32.5868 C.2     1  UNL1       -0.0516
      3 C           4.2429   -9.4340  -33.9429 C.2     1  UNL1        0.1819
      4 C           3.1779  -10.4483  -33.7849 C.2     1  UNL1        0.0602
      5 C           3.1046  -10.8594  -32.3647 C.2     1  UNL1        0.1819
      6 C           2.3752  -10.9291  -34.7997 C.2     1  UNL1       -0.0823
      7 C           2.4810  -10.4826  -36.1964 C.2     1  UNL1       -0.0673
      8 C           1.7875   -9.4504  -36.7404 C.2     1  UNL1       -0.0551
      9 C           0.7927   -8.5531  -36.0917 C.ar    1  UNL1       -0.0250
     10 C           0.3470   -7.4068  -36.7798 C.ar    1  UNL1       -0.0546
     11 C          -0.5924   -6.5423  -36.1959 C.ar    1  UNL1       -0.0612
     12 C          -1.0978   -6.8153  -34.9156 C.ar    1  UNL1       -0.0617
     13 C          -0.6609   -7.9533  -34.2214 C.ar    1  UNL1       -0.0612
     14 C           0.2796   -8.8185  -34.8050 C.ar    1  UNL1       -0.0546
     15 O           2.3442  -11.6721  -31.8660 O.2     1  UNL1       -0.2878
     16 O           4.5783   -8.8659  -34.9693 O.2     1  UNL1       -0.2878
     17 O           1.4338  -11.9051  -34.5118 O.co2   1  UNL1       -0.8034
     18 O           4.4712  -10.1058  -30.3516 O.co2   1  UNL1       -0.8018
     19 O           5.8228   -8.4081  -32.2314 O.co2   1  UNL1       -0.8018
     20 C           3.7847  -10.9562  -29.4182 C.3     1  UNL1       -0.1135
     21 C           6.4795   -7.5527  -33.1816 C.3     1  UNL1       -0.1135
     22 C           0.7791  -12.6761  -35.5397 C.3     1  UNL1       -0.1135
     23 H           3.1335  -10.9938  -36.8112 H       1  UNL1        0.0612
     24 H           1.9751   -9.2625  -37.7377 H       1  UNL1        0.0623
     25 H           0.7146   -7.2010  -37.7218 H       1  UNL1        0.0623
     26 H          -0.9114   -5.7054  -36.7085 H       1  UNL1        0.0618
     27 H          -1.7889   -6.1807  -34.4859 H       1  UNL1        0.0618
     28 H          -1.0313   -8.1555  -33.2796 H       1  UNL1        0.0618
     29 H           0.5971   -9.6539  -34.2888 H       1  UNL1        0.0623
     30 H           4.1972  -10.8191  -28.4405 H       1  UNL1        0.0102
     31 H           3.9009  -11.9779  -29.7143 H       1  UNL1        0.0102
     32 H           2.7446  -10.7049  -29.4049 H       1  UNL1        0.0102
     33 H           7.2376   -6.9839  -32.6851 H       1  UNL1        0.0102
     34 H           5.7633   -6.8881  -33.6179 H       1  UNL1        0.0102
     35 H           6.9265   -8.1493  -33.9493 H       1  UNL1        0.0102
     36 H           0.0966  -13.3656  -35.0883 H       1  UNL1        0.0102
     37 H           1.5120  -13.2162  -36.1018 H       1  UNL1        0.0102
     38 H           0.2429  -12.0187  -36.1918 H       1  UNL1        0.0102
@<TRIPOS>BOND
     1     1     2    2
     2     2     3    1
     3     3     4    1
     4     4     5    1
     5     1     5    1
     6     4     6    2
     7     6     7    1
     8     7     8    2
     9     8     9    1
    10     9    10   ar
    11    10    11   ar
    12    11    12   ar
    13    12    13   ar
    14    13    14   ar
    15     9    14   ar
    16     5    15    2
    17     3    16    2
    18     6    17    1
    19     1    18    1
    20     2    19    1
    21    18    20    1
    22    19    21    1
    23    17    22    1
    24     7    23    1
    25     8    24    1
    26    10    25    1
    27    11    26    1
    28    12    27    1
    29    13    28    1
    30    14    29    1
    31    20    30    1
    32    20    31    1
    33    20    32    1
    34    21    33    1
    35    21    34    1
    36    21    35    1
    37    22    36    1
    38    22    37    1
    39    22    38    1
@<TRIPOS>SUBSTRUCTURE
     1 UNL1        1 TEMP              0 ****  ****    0 ROOT


