##########                                Name: HTS1710-01264993-01
##########                    Molecular_Weight:             432.384
##########                DOCK_Rotatable_Bonds:                  11
##########                       Formal_Charge:                  -2
##########                     HBond_Acceptors:                  10
##########                        HBond_Donors:                   4
##########                         Heavy_Atoms:                  31
##########                          Grid_Score:          -79.329414
##########                     Grid_vdw_energy:          -44.498158
##########                      Grid_es_energy:          -34.831257
##########           Internal_energy_repulsive:           12.779063

@<TRIPOS>MOLECULE
HTS1710-01264993-01
 51 53 1 0 0
SMALL
USER_CHARGES


@<TRIPOS>ATOM
      1 C           3.1782  -10.1678  -31.0485 C.2     1  UNL1       -0.0602
      2 C           2.7887   -7.7325  -31.6961 C.2     1  UNL1       -0.0602
      3 C           3.6114   -8.9957  -31.9183 C.3     1  UNL1        0.0188
      4 C           3.1510  -10.0388  -29.6686 C.2     1  UNL1        0.1535
      5 C           1.3995   -7.7415  -31.6693 C.2     1  UNL1        0.1535
      6 C           3.7987   -9.3125  -33.4185 C.ar    1  UNL1        0.0074
      7 C           0.6233   -6.5066  -31.4708 C.2     1  UNL1        0.2184
      8 C           2.7755  -11.1604  -28.7946 C.2     1  UNL1        0.2184
      9 O           3.5384   -6.5804  -31.5422 O.co2   1  UNL1       -0.7814
     10 O           2.8332  -11.3327  -31.7079 O.co2   1  UNL1       -0.7814
     11 C           1.4683   -5.3261  -31.3153 C.2     1  UNL1       -0.0198
     12 C           2.4492  -12.3728  -29.5430 C.2     1  UNL1       -0.0198
     13 C           2.4917  -12.4108  -30.9205 C.2     1  UNL1       -0.0884
     14 C           2.8426   -5.4056  -31.3546 C.2     1  UNL1       -0.0884
     15 C           5.0270   -9.1541  -34.1130 C.ar    1  UNL1        0.1243
     16 C           2.6731   -9.7844  -34.1242 C.ar    1  UNL1       -0.0125
     17 O          -0.5961   -6.4558  -31.4358 O.2     1  UNL1       -0.2841
     18 O           2.7392  -11.1003  -27.5769 O.2     1  UNL1       -0.2841
     19 O           0.6284   -8.8425  -31.8057 O.2     1  UNL1       -0.5038
     20 O           3.4695   -8.9055  -29.0016 O.2     1  UNL1       -0.5038
     21 C           5.0959   -9.4690  -35.4881 C.ar    1  UNL1       -0.0162
     22 C           2.7448  -10.0927  -35.4903 C.ar    1  UNL1        0.1206
     23 C           3.9647   -9.9325  -36.1735 C.ar    1  UNL1       -0.0165
     24 O           6.1442   -8.7038  -33.4329 O.3     1  UNL1       -0.4948
     25 C           2.1466  -13.6849  -31.6453 C.3     1  UNL1        0.0566
     26 C           3.6696   -4.1588  -31.1824 C.3     1  UNL1        0.0566
     27 O           1.6005  -10.5461  -36.1176 O.3     1  UNL1       -0.4951
     28 O           0.7643  -13.7190  -31.9841 O.3     1  UNL1       -0.3915
     29 O           3.9240   -3.9015  -29.8050 O.3     1  UNL1       -0.3915
     30 C           6.6786   -7.3753  -33.5558 C.3     1  UNL1        0.0788
     31 C           0.7224  -11.5255  -35.5336 C.3     1  UNL1        0.0788
     32 H           4.5991   -8.7908  -31.5613 H       1  UNL1        0.0427
     33 H           1.0232   -4.4061  -31.1719 H       1  UNL1        0.0649
     34 H           2.1796  -13.2241  -29.0258 H       1  UNL1        0.0649
     35 H           1.7779   -9.9054  -33.6251 H       1  UNL1        0.0658
     36 H          -0.3030   -8.7745  -31.7299 H       1  UNL1        0.2923
     37 H           3.3431   -8.8564  -28.0745 H       1  UNL1        0.2923
     38 H           5.9887   -9.3565  -35.9935 H       1  UNL1        0.0655
     39 H           4.0264  -10.1564  -37.1791 H       1  UNL1        0.0655
     40 H           2.3733  -14.5189  -31.0145 H       1  UNL1        0.0596
     41 H           2.7206  -13.7310  -32.5471 H       1  UNL1        0.0596
     42 H           3.1418   -3.3280  -31.6019 H       1  UNL1        0.0596
     43 H           4.6055   -4.2988  -31.6817 H       1  UNL1        0.0596
     44 H           0.5623  -14.5541  -32.4345 H       1  UNL1        0.2098
     45 H           4.4457   -3.0883  -29.7189 H       1  UNL1        0.2098
     46 H           7.5409   -7.2784  -32.9299 H       1  UNL1        0.0660
     47 H           5.9380   -6.6638  -33.2554 H       1  UNL1        0.0660
     48 H           6.9545   -7.1946  -34.5737 H       1  UNL1        0.0660
     49 H          -0.0919  -11.7172  -36.2008 H       1  UNL1        0.0660
     50 H           0.3425  -11.1550  -34.6045 H       1  UNL1        0.0660
     51 H           1.2637  -12.4323  -35.3616 H       1  UNL1        0.0660
@<TRIPOS>BOND
     1     2     3    1
     2     1     3    1
     3     1     4    2
     4     2     5    2
     5     3     6    1
     6     5     7    1
     7     4     8    1
     8     2     9    1
     9     1    10    1
    10    11    14    2
    11    12    13    2
    12    10    13    1
    13     9    14    1
    14     6    15   ar
    15     6    16   ar
    16     7    17    2
    17     8    18    2
    18     5    19    1
    19     4    20    1
    20    15    21   ar
    21    16    22   ar
    22    22    23   ar
    23    15    24    1
    24    13    25    1
    25    14    26    1
    26    22    27    1
    27    25    28    1
    28    26    29    1
    29    24    30    1
    30    27    31    1
    31     8    12    1
    32    21    23   ar
    33     7    11    1
    34     3    32    1
    35    11    33    1
    36    12    34    1
    37    16    35    1
    38    19    36    1
    39    20    37    1
    40    21    38    1
    41    23    39    1
    42    25    40    1
    43    25    41    1
    44    26    42    1
    45    26    43    1
    46    28    44    1
    47    29    45    1
    48    30    46    1
    49    30    47    1
    50    30    48    1
    51    31    49    1
    52    31    50    1
    53    31    51    1
@<TRIPOS>SUBSTRUCTURE
     1 UNL1        1 TEMP              0 ****  ****    0 ROOT


