##########                                Name: HTS1710-02512685-01
##########                    Molecular_Weight:             294.218
##########                DOCK_Rotatable_Bonds:                   8
##########                       Formal_Charge:                  -2
##########                     HBond_Acceptors:                   8
##########                        HBond_Donors:                   0
##########                         Heavy_Atoms:                  21
##########                          Grid_Score:          -75.103928
##########                     Grid_vdw_energy:          -35.332317
##########                      Grid_es_energy:          -39.771606
##########           Internal_energy_repulsive:            2.389340

@<TRIPOS>MOLECULE
HTS1710-02512685-01
 31 32 1 0 0
SMALL
USER_CHARGES


@<TRIPOS>ATOM
      1 C           7.9327  -17.7021  -24.8574 C.ar    1  UNL1        0.1504
      2 C           4.3458  -10.5440  -30.6571 C.ar    1  UNL1        0.1504
      3 O           4.0619  -11.4183  -29.6329 O.2     1  UNL1       -0.4562
      4 O           8.1295  -16.6515  -25.7244 O.2     1  UNL1       -0.4562
      5 C           9.0057  -18.1411  -23.9362 C.2     1  UNL1        0.1069
      6 C           4.5660   -9.1039  -30.3898 C.2     1  UNL1        0.1069
      7 C           4.4043  -11.1335  -31.8981 C.ar    1  UNL1       -0.0143
      8 C           6.6823  -18.2708  -24.9379 C.ar    1  UNL1       -0.0143
      9 C           6.9124  -16.6021  -26.3484 C.ar    1  UNL1        0.1314
     10 C           3.9481  -12.5961  -30.3205 C.ar    1  UNL1        0.1314
     11 C           4.1421  -12.5062  -31.6731 C.ar    1  UNL1       -0.0177
     12 C           6.0001  -17.5329  -25.9348 C.ar    1  UNL1       -0.0177
     13 O           9.3969  -19.2921  -24.0317 O.co2   1  UNL1       -0.5416
     14 O           3.7917   -8.5435  -29.6325 O.co2   1  UNL1       -0.5416
     15 O           5.5081   -8.5615  -30.9437 O.co2   1  UNL1       -0.5416
     16 O           9.4349  -17.3275  -23.1368 O.co2   1  UNL1       -0.5416
     17 C           4.3034  -14.8583  -27.4572 C.3     1  UNL1        0.1492
     18 O           5.6290  -14.6444  -26.9282 O.3     1  UNL1       -0.3464
     19 O           3.8822  -13.6758  -28.1622 O.3     1  UNL1       -0.3464
     20 C           6.6383  -15.5586  -27.3997 C.3     1  UNL1        0.1081
     21 C           3.6623  -13.8715  -29.5711 C.3     1  UNL1        0.1081
     22 H           4.5981  -10.6731  -32.8012 H       1  UNL1        0.0656
     23 H           6.3193  -19.0656  -24.3887 H       1  UNL1        0.0656
     24 H           4.1054  -13.2664  -32.3699 H       1  UNL1        0.0653
     25 H           5.0342  -17.6670  -26.2725 H       1  UNL1        0.0653
     26 H           3.6249  -15.0579  -26.6543 H       1  UNL1        0.0871
     27 H           4.3121  -15.6935  -28.1262 H       1  UNL1        0.0871
     28 H           6.2953  -16.0363  -28.2936 H       1  UNL1        0.0642
     29 H           7.5384  -15.0170  -27.6031 H       1  UNL1        0.0642
     30 H           4.3113  -14.6443  -29.9268 H       1  UNL1        0.0642
     31 H           2.6420  -14.1514  -29.7313 H       1  UNL1        0.0642
@<TRIPOS>BOND
     1     1     4   ar
     2     1     5    1
     3     1     8   ar
     4     2     3   ar
     5     2     6    1
     6     2     7   ar
     7     3    10   ar
     8     4     9   ar
     9     5    13   ar
    10     5    16   ar
    11     6    14   ar
    12     6    15   ar
    13     7    11   ar
    14     8    12   ar
    15     9    12   ar
    16     9    20    1
    17    10    11   ar
    18    10    21    1
    19    17    18    1
    20    17    19    1
    21    18    20    1
    22    19    21    1
    23     7    22    1
    24     8    23    1
    25    11    24    1
    26    12    25    1
    27    17    26    1
    28    17    27    1
    29    20    28    1
    30    20    29    1
    31    21    30    1
    32    21    31    1
@<TRIPOS>SUBSTRUCTURE
     1 UNL1        1 TEMP              0 ****  ****    0 ROOT


