##########                                Name: HTS1710-05464385-01
##########                    Molecular_Weight:             355.392
##########                DOCK_Rotatable_Bonds:                   4
##########                       Formal_Charge:                  -2
##########                     HBond_Acceptors:                   9
##########                        HBond_Donors:                   0
##########                         Heavy_Atoms:                  24
##########                          Grid_Score:          -76.917603
##########                     Grid_vdw_energy:          -37.343437
##########                      Grid_es_energy:          -39.574162
##########           Internal_energy_repulsive:           12.147911

@<TRIPOS>MOLECULE
HTS1710-05464385-01
 43 45 1 0 0
SMALL
USER_CHARGES


@<TRIPOS>ATOM
      1 C           6.8566   -7.2949  -33.4294 C.3     1  UNL1       -0.0524
      2 C           5.6827   -8.2094  -33.6780 C.2     1  UNL1       -0.1101
      3 O           5.5349   -8.7390  -34.9245 O.co2   1  UNL1       -0.7844
      4 C           4.3982   -9.4726  -34.7482 C.2     1  UNL1       -0.0934
      5 C           3.8653  -10.2440  -35.9286 C.3     1  UNL1       -0.0512
      6 C           3.8350   -9.4392  -33.4868 C.2     1  UNL1        0.1026
      7 C           4.7195   -8.5699  -32.7552 C.2     1  UNL1        0.0119
      8 C           4.6179   -8.1371  -31.3293 C.2     1  UNL1        0.0727
      9 O           5.4402   -8.5602  -30.5378 O.co2   1  UNL1       -0.5446
     10 O           3.7170   -7.3792  -31.0208 O.co2   1  UNL1       -0.5446
     11 S           2.3240  -10.2829  -32.9598 S.O2    1  UNL1        0.0607
     12 O           1.6971  -10.8035  -34.1787 O.2     1  UNL1       -0.1529
     13 O           1.5760   -9.4639  -32.0014 O.2     1  UNL1       -0.1529
     14 N           2.9363  -11.6277  -32.1161 N.3     1  UNL1       -0.1748
     15 C           4.1519  -12.2685  -32.6159 C.3     1  UNL1        0.0223
     16 C           4.2968  -13.5716  -31.8072 C.3     1  UNL1       -0.0186
     17 C           2.8939  -13.8582  -31.2114 C.3     1  UNL1        0.0415
     18 C           2.0117  -12.6994  -31.7320 C.3     1  UNL1        0.0392
     19 N           2.9281  -13.9441  -29.7332 N.am    1  UNL1       -0.2971
     20 C           2.2103  -15.0055  -29.0185 C.3     1  UNL1        0.0155
     21 C           2.0636  -14.5014  -27.5678 C.3     1  UNL1       -0.0289
     22 C           3.0006  -13.2757  -27.4574 C.3     1  UNL1        0.0256
     23 C           3.3356  -12.9230  -28.9014 C.2     1  UNL1        0.2159
     24 O           3.8442  -11.8781  -29.2693 O.2     1  UNL1       -0.2756
     25 H           7.4311   -7.2000  -34.3271 H       1  UNL1        0.0266
     26 H           7.4703   -7.7050  -32.6548 H       1  UNL1        0.0266
     27 H           6.5008   -6.3313  -33.1300 H       1  UNL1        0.0266
     28 H           4.5013  -10.0861  -36.7745 H       1  UNL1        0.0267
     29 H           2.8762   -9.9064  -36.1581 H       1  UNL1        0.0267
     30 H           3.8400  -11.2870  -35.6911 H       1  UNL1        0.0267
     31 H           4.9998  -11.6351  -32.4583 H       1  UNL1        0.0444
     32 H           4.0948  -12.4596  -33.6671 H       1  UNL1        0.0444
     33 H           5.0153  -13.4463  -31.0244 H       1  UNL1        0.0296
     34 H           4.6364  -14.3798  -32.4207 H       1  UNL1        0.0296
     35 H           2.5061  -14.8090  -31.5124 H       1  UNL1        0.0514
     36 H           1.3500  -12.3612  -30.9622 H       1  UNL1        0.0462
     37 H           1.4061  -13.0088  -32.5581 H       1  UNL1        0.0462
     38 H           2.7703  -15.9170  -29.0426 H       1  UNL1        0.0465
     39 H           1.2598  -15.2110  -29.4648 H       1  UNL1        0.0465
     40 H           2.3604  -15.2620  -26.8762 H       1  UNL1        0.0285
     41 H           1.0501  -14.2474  -27.3372 H       1  UNL1        0.0285
     42 H           3.8874  -13.5249  -26.9130 H       1  UNL1        0.0359
     43 H           2.5460  -12.4609  -26.9337 H       1  UNL1        0.0359
@<TRIPOS>BOND
     1     1     2    1
     2     2     3    1
     3     3     4    1
     4     4     5    1
     5     4     6    2
     6     6     7    1
     7     2     7    2
     8     7     8    1
     9     8     9   ar
    10     8    10   ar
    11     6    11    1
    12    11    12    2
    13    11    13    2
    14    11    14    1
    15    14    15    1
    16    15    16    1
    17    16    17    1
    18    17    18    1
    19    14    18    1
    20    17    19    1
    21    19    20    1
    22    20    21    1
    23    21    22    1
    24    22    23    1
    25    19    23   am
    26    23    24    2
    27     1    25    1
    28     1    26    1
    29     1    27    1
    30     5    28    1
    31     5    29    1
    32     5    30    1
    33    15    31    1
    34    15    32    1
    35    16    33    1
    36    16    34    1
    37    17    35    1
    38    18    36    1
    39    18    37    1
    40    20    38    1
    41    20    39    1
    42    21    40    1
    43    21    41    1
    44    22    42    1
    45    22    43    1
@<TRIPOS>SUBSTRUCTURE
     1 UNL1        1 TEMP              0 ****  ****    0 ROOT


