##########                                Name: HTS1710-02595023-01
##########                    Molecular_Weight:             393.398
##########                DOCK_Rotatable_Bonds:                   8
##########                       Formal_Charge:                  -2
##########                     HBond_Acceptors:                  10
##########                        HBond_Donors:                   0
##########                         Heavy_Atoms:                  26
##########                          Grid_Score:          -76.957642
##########                     Grid_vdw_energy:          -38.196724
##########                      Grid_es_energy:          -38.760918
##########           Internal_energy_repulsive:           13.243565

@<TRIPOS>MOLECULE
HTS1710-02595023-01
 37 38 1 0 0
SMALL
USER_CHARGES


@<TRIPOS>ATOM
      1 N           2.8490  -10.3327  -31.9806 N.am    1  UNL1       -0.2463
      2 C           2.6893  -11.6519  -32.3904 C.2     1  UNL1        0.1211
      3 C           2.0531   -9.4197  -32.6712 C.2     1  UNL1        0.2589
      4 C           1.2627  -10.1239  -33.7104 C.2     1  UNL1        0.0772
      5 S           1.4710  -11.8618  -33.6789 S.3     1  UNL1       -0.0610
      6 C           3.8000   -9.8989  -30.9191 C.3     1  UNL1        0.0765
      7 C           3.0752   -9.5997  -29.5734 C.3     1  UNL1        0.0111
      8 C           0.3767   -9.5508  -34.5996 C.2     1  UNL1       -0.0357
      9 C           4.7002   -8.7523  -31.4345 C.2     1  UNL1        0.0629
     10 S           3.5448  -12.9727  -31.8111 S.2     1  UNL1       -0.0272
     11 C          -1.4925   -4.1412  -35.7986 C.2     1  UNL1        0.3389
     12 C           3.3587  -10.6733  -28.5128 C.2     1  UNL1        0.0439
     13 O           1.9952   -8.2326  -32.4044 O.2     1  UNL1       -0.2690
     14 C          -1.0206   -5.5422  -35.4899 C.ar    1  UNL1        0.0590
     15 O           5.4508   -8.9794  -32.3683 O.co2   1  UNL1       -0.5479
     16 O          -0.7955   -3.1560  -35.6121 O.2     1  UNL1       -0.2450
     17 O           4.4995  -11.0973  -28.4366 O.co2   1  UNL1       -0.5497
     18 C          -0.0861   -8.1733  -34.9446 C.ar    1  UNL1       -0.0238
     19 C          -0.4819   -6.3425  -36.5145 C.ar    1  UNL1       -0.0472
     20 C          -1.1215   -6.0864  -34.1934 C.ar    1  UNL1       -0.0472
     21 O           4.5954   -7.6767  -30.8686 O.co2   1  UNL1       -0.5479
     22 O          -2.7643   -4.0859  -36.3012 O.3     1  UNL1       -0.4645
     23 O           2.4203  -11.0432  -27.8292 O.co2   1  UNL1       -0.5497
     24 C          -0.6700   -7.3896  -33.9305 C.ar    1  UNL1       -0.0538
     25 C          -0.0302   -7.6445  -36.2481 C.ar    1  UNL1       -0.0538
     26 C          -3.7687   -4.9760  -35.7813 C.3     1  UNL1        0.0820
     27 H           4.4586  -10.7104  -30.6896 H       1  UNL1        0.0570
     28 H           2.0207   -9.5602  -29.7509 H       1  UNL1        0.0347
     29 H           3.4419   -8.6655  -29.2024 H       1  UNL1        0.0347
     30 H          -0.0906  -10.2639  -35.1810 H       1  UNL1        0.0636
     31 H          -0.4182   -5.9674  -37.4738 H       1  UNL1        0.0626
     32 H          -1.5304   -5.5227  -33.4318 H       1  UNL1        0.0626
     33 H          -0.7674   -7.7791  -32.9798 H       1  UNL1        0.0624
     34 H           0.3472   -8.2207  -37.0166 H       1  UNL1        0.0624
     35 H          -4.6970   -4.7983  -36.2829 H       1  UNL1        0.0661
     36 H          -3.8911   -4.8022  -34.7326 H       1  UNL1        0.0661
     37 H          -3.4648   -5.9893  -35.9418 H       1  UNL1        0.0661
@<TRIPOS>BOND
     1     1     2    1
     2     1     3   am
     3     1     6    1
     4     2     5    1
     5     2    10    2
     6     3     4    1
     7     3    13    2
     8     4     5    1
     9     4     8    2
    10     6     7    1
    11     6     9    1
    12     7    12    1
    13     8    18    1
    14     9    15   ar
    15     9    21   ar
    16    11    14    1
    17    11    16    2
    18    11    22    1
    19    12    17   ar
    20    12    23   ar
    21    14    19   ar
    22    14    20   ar
    23    18    24   ar
    24    18    25   ar
    25    19    25   ar
    26    20    24   ar
    27    22    26    1
    28     6    27    1
    29     7    28    1
    30     7    29    1
    31     8    30    1
    32    19    31    1
    33    20    32    1
    34    24    33    1
    35    25    34    1
    36    26    35    1
    37    26    36    1
    38    26    37    1
@<TRIPOS>SUBSTRUCTURE
     1 UNL1        1 TEMP              0 ****  ****    0 ROOT


