##########                                Name: HTS1710-05324334-01
##########                    Molecular_Weight:             335.403
##########                DOCK_Rotatable_Bonds:                   6
##########                       Formal_Charge:                  -2
##########                     HBond_Acceptors:                   7
##########                        HBond_Donors:                   1
##########                         Heavy_Atoms:                  24
##########                          Grid_Score:          -79.044785
##########                     Grid_vdw_energy:          -38.204250
##########                      Grid_es_energy:          -40.840530
##########           Internal_energy_repulsive:            7.652585

@<TRIPOS>MOLECULE
HTS1710-05324334-01
 49 51 1 0 0
SMALL
USER_CHARGES


@<TRIPOS>ATOM
      1 C           6.1581   -7.7687  -32.6865 C.3     1  UNL1       -0.0753
      2 C           6.2401   -7.6478  -31.1481 C.3     1  UNL1       -0.1039
      3 O           5.3780   -8.6331  -30.5467 O.co2   1  UNL1       -0.8104
      4 C           4.0195   -8.4598  -30.5397 C.2     1  UNL1       -0.1442
      5 O           3.3926   -7.3331  -31.0001 O.co2   1  UNL1       -0.7791
      6 C           2.0858   -7.6861  -30.7532 C.2     1  UNL1       -0.0248
      7 C           0.9974   -6.7180  -31.1313 C.3     1  UNL1       -0.0355
      8 N           1.8696   -8.8679  -30.2046 N.2     1  UNL1       -0.2634
      9 C           3.1234   -9.3710  -30.0476 C.2     1  UNL1        0.1035
     10 C           3.4749  -10.7238  -29.5156 C.2     1  UNL1        0.2632
     11 O           4.2859  -10.8701  -28.6153 O.2     1  UNL1       -0.2684
     12 N           2.8661  -11.8222  -30.1431 N.am    1  UNL1       -0.2956
     13 C           3.1538  -13.2118  -29.6836 C.3     1  UNL1        0.0151
     14 C           2.1026  -14.2421  -30.1531 C.3     1  UNL1       -0.0364
     15 C           1.9028  -14.1854  -31.6792 C.3     1  UNL1       -0.0390
     16 C           1.5492  -12.7477  -32.1231 C.3     1  UNL1        0.0513
     17 C           2.6044  -11.7312  -31.6034 C.3     1  UNL1        0.0261
     18 C           1.3675  -12.6665  -33.6502 C.2     1  UNL1        0.2176
     19 O           0.5566  -13.3536  -34.2504 O.2     1  UNL1       -0.2755
     20 N           2.1698  -11.7827  -34.3578 N.am    1  UNL1       -0.3148
     21 C           2.0740  -11.6314  -35.8133 C.3     1  UNL1        0.0144
     22 C           1.0919  -10.5167  -36.1473 C.3     1  UNL1       -0.0254
     23 C           1.1230   -9.2218  -35.3802 C.3     1  UNL1       -0.0485
     24 C           1.5756   -9.2577  -36.8163 C.3     1  UNL1       -0.0485
     25 H           6.7974   -7.0380  -33.1363 H       1  UNL1        0.0221
     26 H           5.1496   -7.6040  -33.0040 H       1  UNL1        0.0221
     27 H           6.4704   -8.7477  -32.9845 H       1  UNL1        0.0221
     28 H           5.9274   -6.6691  -30.8492 H       1  UNL1        0.0136
     29 H           7.2483   -7.8108  -30.8288 H       1  UNL1        0.0136
     30 H           1.4342   -5.8380  -31.5553 H       1  UNL1        0.0281
     31 H           0.4368   -6.4532  -30.2591 H       1  UNL1        0.0281
     32 H           0.3473   -7.1744  -31.8482 H       1  UNL1        0.0281
     33 H           3.1799  -13.2170  -28.6140 H       1  UNL1        0.0465
     34 H           4.0913  -13.4989  -30.1119 H       1  UNL1        0.0465
     35 H           1.1703  -14.0321  -29.6719 H       1  UNL1        0.0281
     36 H           2.4512  -15.2202  -29.8952 H       1  UNL1        0.0281
     37 H           1.1072  -14.8455  -31.9554 H       1  UNL1        0.0273
     38 H           2.8112  -14.4836  -32.1595 H       1  UNL1        0.0273
     39 H           0.6107  -12.4821  -31.6832 H       1  UNL1        0.0410
     40 H           2.2556  -10.7435  -31.8215 H       1  UNL1        0.0472
     41 H           3.5252  -11.9624  -32.0970 H       1  UNL1        0.0472
     42 H           2.8262  -11.2383  -33.8657 H       1  UNL1        0.1487
     43 H           1.7317  -12.5487  -36.2449 H       1  UNL1        0.0465
     44 H           3.0374  -11.3868  -36.2094 H       1  UNL1        0.0465
     45 H           0.3424  -11.2491  -36.3633 H       1  UNL1        0.0316
     46 H           1.8385   -9.0808  -34.5971 H       1  UNL1        0.0269
     47 H           0.4055   -8.6526  -34.8270 H       1  UNL1        0.0269
     48 H           2.6126   -9.1424  -37.0535 H       1  UNL1        0.0269
     49 H           1.3127   -8.7247  -37.7060 H       1  UNL1        0.0269
@<TRIPOS>BOND
     1     1     2    1
     2     2     3    1
     3     3     4    1
     4     4     5    1
     5     5     6    1
     6     6     7    1
     7     6     8    2
     8     8     9    1
     9     4     9    2
    10     9    10    1
    11    10    11    2
    12    10    12   am
    13    12    13    1
    14    13    14    1
    15    14    15    1
    16    15    16    1
    17    16    17    1
    18    12    17    1
    19    16    18    1
    20    18    19    2
    21    18    20   am
    22    20    21    1
    23    21    22    1
    24    22    23    1
    25    23    24    1
    26    22    24    1
    27     1    25    1
    28     1    26    1
    29     1    27    1
    30     2    28    1
    31     2    29    1
    32     7    30    1
    33     7    31    1
    34     7    32    1
    35    13    33    1
    36    13    34    1
    37    14    35    1
    38    14    36    1
    39    15    37    1
    40    15    38    1
    41    16    39    1
    42    17    40    1
    43    17    41    1
    44    20    42    1
    45    21    43    1
    46    21    44    1
    47    22    45    1
    48    23    46    1
    49    23    47    1
    50    24    48    1
    51    24    49    1
@<TRIPOS>SUBSTRUCTURE
     1 UNL1        1 TEMP              0 ****  ****    0 ROOT


