##########                                Name: HTS1710-00701232-01
##########                    Molecular_Weight:             421.384
##########                DOCK_Rotatable_Bonds:                  13
##########                       Formal_Charge:                  -2
##########                     HBond_Acceptors:                  11
##########                        HBond_Donors:                   2
##########                         Heavy_Atoms:                  30
##########                          Grid_Score:          -84.270233
##########                     Grid_vdw_energy:          -48.471657
##########                      Grid_es_energy:          -35.798573
##########           Internal_energy_repulsive:           13.912042

@<TRIPOS>MOLECULE
HTS1710-00701232-01
 51 52 1 0 0
SMALL
USER_CHARGES


@<TRIPOS>ATOM
      1 C           3.9854  -10.1208  -32.8907 C.ar    1  UNL1       -0.0152
      2 C           4.9774   -9.2530  -32.4921 C.ar    1  UNL1       -0.0860
      3 C           3.3833  -10.7017  -31.7050 C.2     1  UNL1        0.0548
      4 C           3.7027  -10.3200  -34.2507 C.ar    1  UNL1       -0.0126
      5 O           5.0917   -9.1933  -31.1328 O.co2   1  UNL1       -0.7822
      6 C           5.7532   -8.5430  -33.4131 C.ar    1  UNL1       -0.0645
      7 C           4.1200  -10.0719  -30.7030 C.2     1  UNL1       -0.1061
      8 C           2.2903  -11.7012  -31.6207 C.2     1  UNL1        0.3391
      9 C           4.4605   -9.6129  -35.2077 C.ar    1  UNL1        0.1218
     10 C           5.4927   -8.7303  -34.7849 C.ar    1  UNL1       -0.0204
     11 C           3.9437  -10.2771  -29.2191 C.3     1  UNL1       -0.0522
     12 O           2.4760  -12.6599  -30.6619 O.3     1  UNL1       -0.4584
     13 O           1.3102  -11.6665  -32.3452 O.2     1  UNL1       -0.2450
     14 O           4.1558   -9.8073  -36.5437 O.3     1  UNL1       -0.4827
     15 C           1.7951  -13.9310  -30.7313 C.3     1  UNL1        0.0978
     16 C           2.8499  -10.2027  -37.0189 C.3     1  UNL1        0.1666
     17 C           2.3463  -14.8110  -29.5891 C.3     1  UNL1       -0.0280
     18 C           2.0545  -14.5688  -32.1191 C.3     1  UNL1       -0.0280
     19 C           1.7862   -9.1370  -36.7183 C.2     1  UNL1        0.2667
     20 N           1.2366   -9.1164  -35.4459 N.am    1  UNL1       -0.2315
     21 O           1.3873   -8.3486  -37.5602 O.2     1  UNL1       -0.2705
     22 N           0.2534   -8.1691  -35.0884 N.am    1  UNL1       -0.2324
     23 C          -0.1680   -8.0370  -33.7737 C.2     1  UNL1        0.2548
     24 C          -1.2392   -6.9870  -33.4602 C.3     1  UNL1        0.1256
     25 O           0.3156   -8.7539  -32.9121 O.2     1  UNL1       -0.2718
     26 O          -2.1505   -6.8493  -34.5643 O.3     1  UNL1       -0.3648
     27 C          -2.9271   -5.6371  -34.5432 C.3     1  UNL1        0.0875
     28 C          -4.0083   -5.6512  -35.6342 C.2     1  UNL1        0.0674
     29 O          -4.5244   -6.7188  -35.9172 O.co2   1  UNL1       -0.5474
     30 O          -4.3111   -4.5736  -36.1150 O.co2   1  UNL1       -0.5474
     31 H           2.9567  -10.9697  -34.5444 H       1  UNL1        0.0660
     32 H           6.4957   -7.8997  -33.0971 H       1  UNL1        0.0613
     33 H           6.0543   -8.2241  -35.4874 H       1  UNL1        0.0654
     34 H           3.1574  -10.9823  -29.0474 H       1  UNL1        0.0266
     35 H           3.6936   -9.3448  -28.7573 H       1  UNL1        0.0266
     36 H           4.8548  -10.6497  -28.7998 H       1  UNL1        0.0266
     37 H           0.7367  -13.8234  -30.6168 H       1  UNL1        0.0728
     38 H           2.5691  -11.1170  -36.5391 H       1  UNL1        0.0795
     39 H           2.9059  -10.3263  -38.0802 H       1  UNL1        0.0795
     40 H           3.4048  -14.9198  -29.7018 H       1  UNL1        0.0265
     41 H           1.8828  -15.7746  -29.6258 H       1  UNL1        0.0265
     42 H           2.1335  -14.3484  -28.6480 H       1  UNL1        0.0265
     43 H           3.1075  -14.6901  -32.2647 H       1  UNL1        0.0265
     44 H           1.6597  -13.9326  -32.8835 H       1  UNL1        0.0265
     45 H           1.5754  -15.5243  -32.1677 H       1  UNL1        0.0265
     46 H           1.5378   -9.7750  -34.7790 H       1  UNL1        0.1729
     47 H          -0.1396   -7.5929  -35.7832 H       1  UNL1        0.1729
     48 H          -0.7655   -6.0455  -33.2755 H       1  UNL1        0.0657
     49 H          -1.7878   -7.3006  -32.5968 H       1  UNL1        0.0657
     50 H          -2.2770   -4.8031  -34.7068 H       1  UNL1        0.0622
     51 H          -3.4080   -5.5592  -33.5905 H       1  UNL1        0.0622
@<TRIPOS>BOND
     1     1     2   ar
     2     1     3    1
     3     1     4   ar
     4     2     5    1
     5     2     6   ar
     6     3     7    2
     7     3     8    1
     8     4     9   ar
     9     6    10   ar
    10     7    11    1
    11     8    12    1
    12     8    13    2
    13     9    14    1
    14    12    15    1
    15    14    16    1
    16    15    17    1
    17    15    18    1
    18    16    19    1
    19    19    20   am
    20    19    21    2
    21    20    22    1
    22    22    23   am
    23    23    24    1
    24    23    25    2
    25    24    26    1
    26    26    27    1
    27    27    28    1
    28    28    29   ar
    29    28    30   ar
    30     5     7    1
    31     9    10   ar
    32     4    31    1
    33     6    32    1
    34    10    33    1
    35    11    34    1
    36    11    35    1
    37    11    36    1
    38    15    37    1
    39    16    38    1
    40    16    39    1
    41    17    40    1
    42    17    41    1
    43    17    42    1
    44    18    43    1
    45    18    44    1
    46    18    45    1
    47    20    46    1
    48    22    47    1
    49    24    48    1
    50    24    49    1
    51    27    50    1
    52    27    51    1
@<TRIPOS>SUBSTRUCTURE
     1 UNL1        1 TEMP              0 ****  ****    0 ROOT


