##########                                Name: HTS1710-03163405-01
##########                    Molecular_Weight:             336.301
##########                DOCK_Rotatable_Bonds:                   8
##########                       Formal_Charge:                  -2
##########                     HBond_Acceptors:                   9
##########                        HBond_Donors:                   0
##########                         Heavy_Atoms:                  24
##########                          Grid_Score:          -75.508408
##########                     Grid_vdw_energy:          -38.778938
##########                      Grid_es_energy:          -36.729473
##########           Internal_energy_repulsive:           10.208843

@<TRIPOS>MOLECULE
HTS1710-03163405-01
 40 41 1 0 0
SMALL
USER_CHARGES


@<TRIPOS>ATOM
      1 C           0.1668   -7.4019  -34.8739 C.2     1  UNL1        0.0691
      2 C           5.1238   -9.6547  -32.5136 C.2     1  UNL1        0.0691
      3 N          -0.8106   -5.4064  -34.3114 N.2     1  UNL1       -0.3076
      4 N           5.7713   -8.0847  -30.9741 N.2     1  UNL1       -0.3076
      5 O          -0.2668   -6.0106  -33.1298 O.co2   1  UNL1       -0.7142
      6 O           5.1589   -9.1878  -30.2897 O.co2   1  UNL1       -0.7142
      7 C           4.9066  -10.3318  -33.8227 C.2     1  UNL1        0.3405
      8 C           0.6633   -8.5762  -35.6459 C.2     1  UNL1        0.3405
      9 C           0.2897   -7.1756  -33.5372 C.2     1  UNL1       -0.0938
     10 C           4.8048  -10.0706  -31.2546 C.2     1  UNL1       -0.0938
     11 C           5.7379   -8.3851  -32.2702 C.2     1  UNL1        0.0418
     12 C          -0.5439   -6.2380  -35.3175 C.2     1  UNL1        0.0418
     13 O           0.4866   -9.7800  -35.0231 O.3     1  UNL1       -0.4533
     14 O           3.5924  -10.5308  -34.1467 O.3     1  UNL1       -0.4533
     15 C           1.6338  -11.9204  -34.7009 C.2     1  UNL1        0.2075
     16 O           5.8222  -10.6794  -34.5502 O.2     1  UNL1       -0.2449
     17 O           1.1892   -8.4739  -36.7428 O.2     1  UNL1       -0.2449
     18 O           1.0515  -12.7077  -33.9746 O.2     1  UNL1       -0.2901
     19 C           0.8765  -11.0088  -35.6717 C.3     1  UNL1        0.1539
     20 C           3.1657  -11.7831  -34.7230 C.3     1  UNL1        0.1539
     21 C           0.9618   -8.0772  -32.5315 C.3     1  UNL1       -0.0514
     22 C           4.1388  -11.3667  -30.8614 C.3     1  UNL1       -0.0514
     23 C          -0.9358   -5.9915  -36.7536 C.3     1  UNL1       -0.0223
     24 C           6.2770   -7.5104  -33.3741 C.3     1  UNL1       -0.0223
     25 H           1.5088  -10.7807  -36.5042 H       1  UNL1        0.0779
     26 H          -0.0055  -11.5170  -36.0018 H       1  UNL1        0.0779
     27 H           3.5951  -12.5878  -34.1635 H       1  UNL1        0.0779
     28 H           3.4909  -11.8120  -35.7420 H       1  UNL1        0.0779
     29 H           1.3412   -8.9455  -33.0284 H       1  UNL1        0.0267
     30 H           0.2519   -8.3734  -31.7877 H       1  UNL1        0.0267
     31 H           1.7689   -7.5518  -32.0651 H       1  UNL1        0.0267
     32 H           3.9288  -11.9406  -31.7398 H       1  UNL1        0.0267
     33 H           3.2249  -11.1561  -30.3462 H       1  UNL1        0.0267
     34 H           4.7902  -11.9222  -30.2197 H       1  UNL1        0.0267
     35 H          -0.6044   -6.8091  -37.3591 H       1  UNL1        0.0292
     36 H          -0.4808   -5.0859  -37.0971 H       1  UNL1        0.0292
     37 H          -1.9999   -5.9046  -36.8231 H       1  UNL1        0.0292
     38 H           6.1214   -7.9905  -34.3176 H       1  UNL1        0.0292
     39 H           7.3242   -7.3507  -33.2234 H       1  UNL1        0.0292
     40 H           5.7677   -6.5695  -33.3645 H       1  UNL1        0.0292
@<TRIPOS>BOND
     1     1     8    1
     2     1     9    2
     3     1    12    1
     4     2     7    1
     5     2    10    2
     6     2    11    1
     7     3     5    1
     8     3    12    2
     9     4     6    1
    10     4    11    2
    11     5     9    1
    12     6    10    1
    13     7    14    1
    14     7    16    2
    15     8    13    1
    16     8    17    2
    17     9    21    1
    18    10    22    1
    19    11    24    1
    20    12    23    1
    21    13    19    1
    22    14    20    1
    23    15    18    2
    24    15    19    1
    25    15    20    1
    26    19    25    1
    27    19    26    1
    28    20    27    1
    29    20    28    1
    30    21    29    1
    31    21    30    1
    32    21    31    1
    33    22    32    1
    34    22    33    1
    35    22    34    1
    36    23    35    1
    37    23    36    1
    38    23    37    1
    39    24    38    1
    40    24    39    1
    41    24    40    1
@<TRIPOS>SUBSTRUCTURE
     1 UNL1        1 TEMP              0 ****  ****    0 ROOT


