##########                                Name: HTS1710-00533574-01
##########                    Molecular_Weight:             370.315
##########                DOCK_Rotatable_Bonds:                   6
##########                       Formal_Charge:                  -2
##########                     HBond_Acceptors:                   8
##########                        HBond_Donors:                   0
##########                         Heavy_Atoms:                  27
##########                          Grid_Score:          -74.944992
##########                     Grid_vdw_energy:          -41.759323
##########                      Grid_es_energy:          -33.185673
##########           Internal_energy_repulsive:           11.596212

@<TRIPOS>MOLECULE
HTS1710-00533574-01
 41 43 1 0 0
SMALL
USER_CHARGES


@<TRIPOS>ATOM
      1 C           2.3299   -9.4374  -32.6861 C.ar    1  UNL1        0.0671
      2 C           1.6050   -8.8569  -33.7879 C.ar    1  UNL1        0.0031
      3 C           2.0919   -8.9090  -31.3893 C.ar    1  UNL1        0.1466
      4 C           3.2974  -10.4933  -32.7820 C.ar    1  UNL1        0.1361
      5 C           0.7772   -7.7239  -33.5450 C.ar    1  UNL1        0.0673
      6 C           1.6262   -9.3575  -35.1220 C.ar    1  UNL1       -0.0530
      7 C           2.7029   -9.4361  -30.2446 C.ar    1  UNL1        0.0234
      8 O           1.2541   -7.8428  -31.1920 O.2     1  UNL1       -0.4215
      9 C           3.8948  -11.0210  -31.6124 C.ar    1  UNL1        0.0227
     10 O           3.7015  -10.9784  -34.0101 O.3     1  UNL1       -0.4825
     11 C           0.6097   -7.1562  -32.1650 C.ar    1  UNL1        0.3451
     12 C           0.0717   -7.1041  -34.5995 C.ar    1  UNL1       -0.0472
     13 C           0.9172   -8.7332  -36.1576 C.ar    1  UNL1       -0.0611
     14 C           3.5893  -10.5158  -30.3466 C.ar    1  UNL1        0.1284
     15 C           4.9985  -10.7717  -34.6195 C.3     1  UNL1        0.1363
     16 O          -0.0574   -6.1631  -31.9266 O.2     1  UNL1       -0.2445
     17 C           0.1479   -7.5987  -35.9016 C.ar    1  UNL1       -0.0609
     18 O           4.2105  -11.0819  -29.2477 O.3     1  UNL1       -0.4831
     19 C           5.1544   -9.3362  -35.1598 C.2     1  UNL1        0.0817
     20 C           5.1281  -11.7989  -35.7640 C.3     1  UNL1       -0.0224
     21 C           3.9407  -12.4117  -28.7435 C.3     1  UNL1        0.1363
     22 O           4.8581   -9.1599  -36.3288 O.co2   1  UNL1       -0.5460
     23 O           5.6129   -8.4852  -34.4160 O.co2   1  UNL1       -0.5460
     24 C           2.9732  -12.3435  -27.5485 C.2     1  UNL1        0.0817
     25 C           5.2766  -13.0647  -28.3087 C.3     1  UNL1       -0.0224
     26 O           2.1284  -11.4634  -27.5443 O.co2   1  UNL1       -0.5460
     27 O           3.0733  -13.2241  -26.7115 O.co2   1  UNL1       -0.5460
     28 H           2.1790  -10.2033  -35.3315 H       1  UNL1        0.0624
     29 H           2.4985   -9.0263  -29.3197 H       1  UNL1        0.0691
     30 H           4.5711  -11.7960  -31.6967 H       1  UNL1        0.0691
     31 H          -0.5086   -6.2734  -34.4040 H       1  UNL1        0.0626
     32 H           0.9648   -9.1154  -37.1150 H       1  UNL1        0.0618
     33 H           5.7705  -10.9051  -33.8906 H       1  UNL1        0.0793
     34 H          -0.3601   -7.1296  -36.6678 H       1  UNL1        0.0618
     35 H           4.3446  -11.6409  -36.4754 H       1  UNL1        0.0269
     36 H           5.0532  -12.7889  -35.3650 H       1  UNL1        0.0269
     37 H           6.0763  -11.6791  -36.2452 H       1  UNL1        0.0269
     38 H           3.4848  -12.9994  -29.5127 H       1  UNL1        0.0793
     39 H           5.7288  -12.4738  -27.5397 H       1  UNL1        0.0269
     40 H           5.9362  -13.1212  -29.1494 H       1  UNL1        0.0269
     41 H           5.0876  -14.0499  -27.9368 H       1  UNL1        0.0269
@<TRIPOS>BOND
     1     1     2   ar
     2     1     3   ar
     3     1     4   ar
     4     2     5   ar
     5     2     6   ar
     6     3     7   ar
     7     3     8   ar
     8     4     9   ar
     9     4    10    1
    10     5    11   ar
    11     5    12   ar
    12     6    13   ar
    13     7    14   ar
    14    10    15    1
    15    11    16    2
    16    12    17   ar
    17    14    18    1
    18    15    19    1
    19    15    20    1
    20    18    21    1
    21    19    22   ar
    22    19    23   ar
    23    21    24    1
    24    21    25    1
    25    24    26   ar
    26    24    27   ar
    27     8    11   ar
    28     9    14   ar
    29    13    17   ar
    30     6    28    1
    31     7    29    1
    32     9    30    1
    33    12    31    1
    34    13    32    1
    35    15    33    1
    36    17    34    1
    37    20    35    1
    38    20    36    1
    39    20    37    1
    40    21    38    1
    41    25    39    1
    42    25    40    1
    43    25    41    1
@<TRIPOS>SUBSTRUCTURE
     1 UNL1        1 TEMP              0 ****  ****    0 ROOT


