##########                                Name: HTS1710-01848655-01
##########                    Molecular_Weight:             453.433
##########                DOCK_Rotatable_Bonds:                  10
##########                       Formal_Charge:                  -1
##########                     HBond_Acceptors:                  14
##########                        HBond_Donors:                   2
##########                         Heavy_Atoms:                  31
##########                          Grid_Score:          -76.005424
##########                     Grid_vdw_energy:          -52.411091
##########                      Grid_es_energy:          -23.594336
##########           Internal_energy_repulsive:           13.003950

@<TRIPOS>MOLECULE
HTS1710-01848655-01
 50 52 1 0 0
SMALL
USER_CHARGES


@<TRIPOS>ATOM
      1 N           3.8432  -11.6041  -30.9947 N.am    1  UNL1       -0.2533
      2 C           4.1031  -10.5872  -31.8977 C.2     1  UNL1        0.2438
      3 C           4.0784  -12.6830  -31.9621 C.3     1  UNL1        0.1041
      4 CA          4.3911  -11.5936  -33.0452 C.3     1  UNL1        0.1283
      5 CA          3.4265  -11.8756  -29.6255 C.2     1  UNL1        0.0631
      6 C          -0.8847   -6.4376  -36.3700 C.ar    1  UNL1        0.2426
      7 N          -1.1576   -5.2445  -37.1259 N.pl3   1  UNL1       -0.1588
      8 S           2.4913  -13.6074  -31.9811 S.3     1  UNL1       -0.1310
      9 C           2.9455  -13.1296  -29.3097 C.2     1  UNL1        0.0004
     10 C           0.1500   -7.3067  -36.5635 C.ar    1  UNL1        0.0962
     11 N          -1.1135   -8.0550  -34.8069 N.ar    1  UNL1       -0.1729
     12 C          -1.6410   -6.9387  -35.2755 C.ar    1  UNL1        0.1200
     13 N          -0.0138   -8.2816  -35.5956 N.ar    1  UNL1       -0.2649
     14 N           3.3687  -11.5183  -34.0960 N.am    1  UNL1       -0.3017
     15 C           3.5522  -10.7399  -28.6170 C.2     1  UNL1        0.0860
     16 C           2.8270  -14.2854  -30.3100 C.3     1  UNL1        0.0219
     17 O           4.0416   -9.3845  -31.7145 O.2     1  UNL1       -0.2731
     18 C           3.6765  -11.1675  -35.4011 C.2     1  UNL1        0.2137
     19 O          -2.1398   -4.5802  -36.8075 O.co2   1  UNL1       -0.6334
     20 O          -0.3915   -4.9582  -38.0419 O.2     1  UNL1       -0.0291
     21 C           2.5135  -13.5928  -27.9196 C.3     1  UNL1        0.1164
     22 C           4.8707  -13.8303  -27.4125 C.2     1  UNL1        0.3043
     23 O           4.5495  -10.0427  -28.6212 O.co2   1  UNL1       -0.5433
     24 O           3.6253  -13.4322  -27.0179 O.3     1  UNL1       -0.4603
     25 O           4.8320  -10.9172  -35.7047 O.2     1  UNL1       -0.2758
     26 O           5.8183  -13.0824  -27.5933 O.2     1  UNL1       -0.2512
     27 OXT         2.6297  -10.5703  -27.8411 O.co2   1  UNL1       -0.5433
     28 C           0.8511   -9.4458  -35.3615 C.3     1  UNL1        0.0422
     29 C           2.5279  -11.1205  -36.4185 C.3     1  UNL1        0.0256
     30 C           1.8332   -9.7367  -36.5245 C.3     1  UNL1       -0.0251
     31 C           4.9333  -15.3441  -27.6001 C.3     1  UNL1        0.0332
     32 H           4.7894  -13.4818  -31.9257 H       1  UNL1        0.0644
     33 H           5.2840  -11.5970  -33.6347 H       1  UNL1        0.0622
     34 H          -0.8676   -5.4776  -36.2144 H       1  UNL1        0.4509
     35 H           0.8933   -7.2491  -37.2770 H       1  UNL1        0.0893
     36 H          -2.4897   -6.4896  -34.8973 H       1  UNL1        0.0915
     37 H           2.4337  -11.7239  -33.8662 H       1  UNL1        0.1495
     38 H           3.7421  -14.8396  -30.3261 H       1  UNL1        0.0424
     39 H           2.0263  -14.9323  -30.0177 H       1  UNL1        0.0424
     40 H           2.2242  -14.6223  -27.9560 H       1  UNL1        0.0746
     41 H           1.6810  -13.0117  -27.5820 H       1  UNL1        0.0746
     42 H           0.2296  -10.3055  -35.2212 H       1  UNL1        0.0509
     43 H           1.4447   -9.2257  -34.4989 H       1  UNL1        0.0509
     44 H           1.7940  -11.8441  -36.1308 H       1  UNL1        0.0359
     45 H           2.9558  -11.3259  -37.3775 H       1  UNL1        0.0359
     46 H           2.5881   -8.9784  -36.5277 H       1  UNL1        0.0287
     47 H           1.2585   -9.7421  -37.4271 H       1  UNL1        0.0287
     48 H           3.9768  -15.7705  -27.3808 H       1  UNL1        0.0342
     49 H           5.6673  -15.7554  -26.9390 H       1  UNL1        0.0342
     50 H           5.1997  -15.5675  -28.6120 H       1  UNL1        0.0342
@<TRIPOS>BOND
     1     1     2   am
     2     1     3    1
     3     1     5    1
     4     2     4    1
     5     2    17    2
     6     3     4    1
     7     3     8    1
     8     4    14    1
     9     5     9    2
    10     5    15    1
    11     6     7    1
    12     6    10   ar
    13     6    12   ar
    14     7    19    1
    15     7    20    2
    16     8    16    1
    17     9    16    1
    18     9    21    1
    19    10    13   ar
    20    11    12   ar
    21    11    13   ar
    22    13    28    1
    23    14    18   am
    24    15    23   ar
    25    15    27   ar
    26    18    25    2
    27    18    29    1
    28    21    24    1
    29    22    24    1
    30    22    26    2
    31    22    31    1
    32    28    30    1
    33    29    30    1
    34     3    32    1
    35     4    33    1
    36     7    34    1
    37    10    35    1
    38    12    36    1
    39    14    37    1
    40    16    38    1
    41    16    39    1
    42    21    40    1
    43    21    41    1
    44    28    42    1
    45    28    43    1
    46    29    44    1
    47    29    45    1
    48    30    46    1
    49    30    47    1
    50    31    48    1
    51    31    49    1
    52    31    50    1
@<TRIPOS>SUBSTRUCTURE
     1 UNL1        1 TEMP              0 ****  ****    0 ROOT


