##########                                Name: HTS1710-00206618-01
##########                    Molecular_Weight:             232.216
##########                DOCK_Rotatable_Bonds:                   2
##########                       Formal_Charge:                  -3
##########                     HBond_Acceptors:                   5
##########                        HBond_Donors:                   0
##########                         Heavy_Atoms:                  17
##########                          Grid_Score:          -81.002754
##########                     Grid_vdw_energy:          -27.196276
##########                      Grid_es_energy:          -53.806477
##########           Internal_energy_repulsive:            2.831864

@<TRIPOS>MOLECULE
HTS1710-00206618-01
 27 28 1 0 0
SMALL
USER_CHARGES


@<TRIPOS>ATOM
      1 CA          3.4521   -7.4762  -30.7955 C.2     1  UNL1        0.0644
      2 N           3.0394   -8.4996  -30.0051 N.2     1  UNL1       -0.2617
      3 C           4.5631   -7.8789  -31.4888 C.2     1  UNL1       -0.1474
      4 C           3.9160   -9.4555  -30.2619 C.2     1  UNL1        0.0094
      5 O           4.9086   -9.1664  -31.1755 O.co2   1  UNL1       -0.7758
      6 C           2.7776   -6.1533  -30.8649 C.2     1  UNL1        0.0881
      7 C           3.9170  -10.7978  -29.6575 C.ar    1  UNL1       -0.0133
      8 O           3.1663   -5.3454  -31.6905 O.co2   1  UNL1       -0.5431
      9 O           5.2527   -7.1066  -32.3851 O.co2   1  UNL1       -0.8105
     10 OXT         1.8645   -5.9509  -30.0819 O.co2   1  UNL1       -0.5431
     11 C           3.2745  -11.0216  -28.4210 C.ar    1  UNL1       -0.0537
     12 C           4.5546  -11.8834  -30.2975 C.ar    1  UNL1       -0.0537
     13 C           6.4145   -7.6463  -33.0358 C.3     1  UNL1       -0.1039
     14 C           6.9750   -6.5741  -33.9884 C.3     1  UNL1       -0.0753
     15 C           4.5475  -13.1599  -29.7127 C.ar    1  UNL1       -0.0612
     16 C           3.2696  -12.2993  -27.8379 C.ar    1  UNL1       -0.0612
     17 C           3.9060  -13.3693  -28.4833 C.ar    1  UNL1       -0.0617
     18 H           2.8037  -10.2389  -27.9407 H       1  UNL1        0.0624
     19 H           5.0294  -11.7373  -31.2020 H       1  UNL1        0.0624
     20 H           6.1451   -8.5197  -33.5922 H       1  UNL1        0.0136
     21 H           7.1522   -7.9171  -32.3096 H       1  UNL1        0.0136
     22 H           6.2288   -6.3120  -34.7091 H       1  UNL1        0.0221
     23 H           7.8369   -6.9595  -34.4916 H       1  UNL1        0.0221
     24 H           7.2486   -5.7056  -33.4264 H       1  UNL1        0.0221
     25 H           5.0159  -13.9466  -30.1891 H       1  UNL1        0.0618
     26 H           2.7968  -12.4509  -26.9332 H       1  UNL1        0.0618
     27 H           3.9023  -14.3081  -28.0548 H       1  UNL1        0.0618
@<TRIPOS>BOND
     1     1     2    1
     2     1     3    2
     3     2     4    2
     4     3     5    1
     5     1     6    1
     6     4     7    1
     7     6     8   ar
     8     3     9    1
     9     6    10   ar
    10     7    11   ar
    11     7    12   ar
    12     9    13    1
    13    13    14    1
    14    12    15   ar
    15    11    16   ar
    16    15    17   ar
    17     4     5    1
    18    16    17   ar
    19    11    18    1
    20    12    19    1
    21    13    20    1
    22    13    21    1
    23    14    22    1
    24    14    23    1
    25    14    24    1
    26    15    25    1
    27    16    26    1
    28    17    27    1
@<TRIPOS>SUBSTRUCTURE
     1 UNL1        1 TEMP              0 ****  ****    0 ROOT


