##########                                Name: HTS1710-02161666-01
##########                    Molecular_Weight:             364.332
##########                DOCK_Rotatable_Bonds:                   8
##########                       Formal_Charge:                  -2
##########                     HBond_Acceptors:                   9
##########                        HBond_Donors:                   0
##########                         Heavy_Atoms:                  25
##########                          Grid_Score:          -75.722031
##########                     Grid_vdw_energy:          -40.399998
##########                      Grid_es_energy:          -35.322033
##########           Internal_energy_repulsive:           12.356371

@<TRIPOS>MOLECULE
HTS1710-02161666-01
 37 38 1 0 0
SMALL
USER_CHARGES


@<TRIPOS>ATOM
      1 S           2.3765  -10.4173  -35.8497 S.O2    1  UNL1        0.0251
      2 C           3.1124  -10.3312  -34.2070 C.ar    1  UNL1        0.0938
      3 C           1.2160   -9.0402  -35.8080 C.ar    1  UNL1        0.0938
      4 O           3.4198  -10.0916  -36.8268 O.2     1  UNL1       -0.1643
      5 O           1.6056  -11.6619  -35.9402 O.2     1  UNL1       -0.1643
      6 C           2.9025  -10.0196  -28.8347 C.2     1  UNL1        0.0789
      7 C          -3.5507   -6.8874  -34.9657 C.2     1  UNL1        0.0789
      8 O           2.6463   -8.8983  -29.2390 O.co2   1  UNL1       -0.5463
      9 O          -4.4865   -6.6583  -35.7121 O.co2   1  UNL1       -0.5463
     10 C           1.0416   -8.2410  -36.9518 C.ar    1  UNL1       -0.0330
     11 C           2.4936  -10.9807  -33.1240 C.ar    1  UNL1       -0.0330
     12 C           4.2921   -9.5952  -33.9945 C.ar    1  UNL1       -0.0330
     13 C           0.5022   -8.7396  -34.6337 C.ar    1  UNL1       -0.0330
     14 O          -1.4500   -5.7934  -35.6726 O.3     1  UNL1       -0.4862
     15 O           4.8399  -10.0708  -30.3840 O.3     1  UNL1       -0.4862
     16 C          -2.5528   -5.7393  -34.7407 C.3     1  UNL1        0.1286
     17 C           4.2769  -10.6228  -29.1723 C.3     1  UNL1        0.1286
     18 C          -0.5688   -6.8566  -35.7518 C.ar    1  UNL1        0.1212
     19 C           4.2453  -10.1768  -31.6287 C.ar    1  UNL1        0.1212
     20 O          -3.3182   -7.9605  -34.4350 O.co2   1  UNL1       -0.5463
     21 O           2.1673  -10.7023  -28.1433 O.co2   1  UNL1       -0.5463
     22 C           3.0540  -10.9063  -31.8386 C.ar    1  UNL1       -0.0181
     23 C           0.1543   -7.1542  -36.9286 C.ar    1  UNL1       -0.0181
     24 C          -0.3868   -7.6529  -34.6091 C.ar    1  UNL1       -0.0181
     25 C           4.8546   -9.5217  -32.7111 C.ar    1  UNL1       -0.0181
     26 H           1.5688   -8.4550  -37.8128 H       1  UNL1        0.0638
     27 H           1.6234  -11.5146  -33.2746 H       1  UNL1        0.0638
     28 H           4.7447   -9.1083  -34.7839 H       1  UNL1        0.0638
     29 H           0.6320   -9.3185  -33.7893 H       1  UNL1        0.0638
     30 H          -2.1676   -5.8060  -33.7447 H       1  UNL1        0.0760
     31 H          -3.0704   -4.8153  -34.8930 H       1  UNL1        0.0760
     32 H           4.1671  -11.6801  -29.2953 H       1  UNL1        0.0760
     33 H           4.9421  -10.3880  -28.3678 H       1  UNL1        0.0760
     34 H           2.5956  -11.3846  -31.0474 H       1  UNL1        0.0655
     35 H           0.0299   -6.5719  -37.7715 H       1  UNL1        0.0655
     36 H          -0.9098   -7.4379  -33.7458 H       1  UNL1        0.0655
     37 H           5.7219   -8.9826  -32.5617 H       1  UNL1        0.0655
@<TRIPOS>BOND
     1     1     2    1
     2     1     3    1
     3     1     4    2
     4     1     5    2
     5     2    11   ar
     6     2    12   ar
     7     3    10   ar
     8     3    13   ar
     9     6     8   ar
    10     6    17    1
    11     6    21   ar
    12     7     9   ar
    13     7    16    1
    14     7    20   ar
    15    10    23   ar
    16    11    22   ar
    17    12    25   ar
    18    13    24   ar
    19    14    16    1
    20    14    18    1
    21    15    17    1
    22    15    19    1
    23    18    23   ar
    24    18    24   ar
    25    19    22   ar
    26    19    25   ar
    27    10    26    1
    28    11    27    1
    29    12    28    1
    30    13    29    1
    31    16    30    1
    32    16    31    1
    33    17    32    1
    34    17    33    1
    35    22    34    1
    36    23    35    1
    37    24    36    1
    38    25    37    1
@<TRIPOS>SUBSTRUCTURE
     1 UNL1        1 TEMP              0 ****  ****    0 ROOT


