HTS1710-04762224-01
 OpenBabel03232612343D

 46 48  0  0  0  0  0  0  0  0999 V2000
    3.1191  -10.8535  -36.4490 C   0  0  0  0  0  0  0  0  0  0  0  0
    3.1544  -10.8125  -34.9707 N   0  0  0  0  0  0  0  0  0  0  0  0
    4.5016  -10.9544  -34.3809 C   0  0  0  0  0  0  0  0  0  0  0  0
    5.1304   -9.6230  -34.0643 C   0  0  0  0  0  0  0  0  0  0  0  0
    5.6979   -8.7937  -34.9957 C   0  0  0  0  0  0  0  0  0  0  0  0
    6.1536   -7.6706  -34.2560 C   0  0  0  0  0  0  0  0  0  0  0  0
    6.8460   -6.4827  -34.8110 C   0  0  0  0  0  0  0  0  0  0  0  0
    7.1402   -5.5740  -34.0547 O   0  5  0  0  0  0  0  0  0  0  0  0
    7.0816   -6.4888  -36.0068 O   0  0  0  0  0  0  0  0  0  0  0  0
    5.7956   -7.9666  -32.9546 C   0  0  0  0  0  0  0  0  0  0  0  0
    6.0454   -7.0899  -31.7530 C   0  0  0  0  0  0  0  0  0  0  0  0
    5.1573   -9.1663  -32.7756 O   0  0  0  0  0  0  0  0  0  0  0  0
    2.0258  -10.5828  -34.1727 C   0  0  0  0  0  0  0  0  0  0  0  0
    0.9076  -10.4562  -34.6435 O   0  0  0  0  0  0  0  0  0  0  0  0
    2.2349  -10.4853  -32.6872 C   0  0  0  0  0  0  0  0  0  0  0  0
    2.2968   -9.2231  -32.0740 C   0  0  0  0  0  0  0  0  0  0  0  0
    2.5074   -9.1246  -30.6925 C   0  0  0  0  0  0  0  0  0  0  0  0
    2.6649  -10.2833  -29.9161 C   0  0  0  0  0  0  0  0  0  0  0  0
    2.6281  -11.5631  -30.5138 C   0  0  0  0  0  0  0  0  0  0  0  0
    2.4230  -11.6436  -31.9097 C   0  0  0  0  0  0  0  0  0  0  0  0
    2.7787  -12.7284  -29.7427 N   0  0  0  0  0  0  0  0  0  0  0  0
    2.3868  -14.0764  -30.2155 C   0  0  0  0  0  0  0  0  0  0  0  0
    2.3165  -15.0317  -28.9938 C   0  0  0  0  0  0  0  0  0  0  0  0
    3.4002  -14.6014  -27.9929 C   0  0  0  0  0  0  0  0  0  0  0  0
    3.4228  -12.8184  -28.1716 S   0  0  0  0  0  0  0  0  0  0  0  0
    4.7966  -12.3433  -28.2121 O   0  0  0  0  0  0  0  0  0  0  0  0
    2.4551  -12.2314  -27.2589 O   0  0  0  0  0  0  0  0  0  0  0  0
    4.1029  -11.0435  -36.8241 H   0  0  0  0  0  0  0  0  0  0  0  0
    2.7697   -9.9140  -36.8235 H   0  0  0  0  0  0  0  0  0  0  0  0
    2.4589  -11.6326  -36.7685 H   0  0  0  0  0  0  0  0  0  0  0  0
    5.1281  -11.4744  -35.0752 H   0  0  0  0  0  0  0  0  0  0  0  0
    4.4018  -11.4957  -33.4632 H   0  0  0  0  0  0  0  0  0  0  0  0
    5.7769   -8.9510  -36.0126 H   0  0  0  0  0  0  0  0  0  0  0  0
    6.5487   -6.1973  -32.0611 H   0  0  0  0  0  0  0  0  0  0  0  0
    6.6533   -7.6167  -31.0474 H   0  0  0  0  0  0  0  0  0  0  0  0
    5.1115   -6.8338  -31.2979 H   0  0  0  0  0  0  0  0  0  0  0  0
    2.1871   -8.3680  -32.6414 H   0  0  0  0  0  0  0  0  0  0  0  0
    2.5468   -8.1961  -30.2437 H   0  0  0  0  0  0  0  0  0  0  0  0
    2.8091  -10.1996  -28.8977 H   0  0  0  0  0  0  0  0  0  0  0  0
    2.4110  -12.5685  -32.3674 H   0  0  0  0  0  0  0  0  0  0  0  0
    3.1123  -14.4379  -30.9139 H   0  0  0  0  0  0  0  0  0  0  0  0
    1.4327  -14.0305  -30.6977 H   0  0  0  0  0  0  0  0  0  0  0  0
    2.4928  -16.0388  -29.3094 H   0  0  0  0  0  0  0  0  0  0  0  0
    1.3493  -14.9834  -28.5387 H   0  0  0  0  0  0  0  0  0  0  0  0
    4.3491  -15.0259  -28.2464 H   0  0  0  0  0  0  0  0  0  0  0  0
    3.2034  -14.9237  -26.9918 H   0  0  0  0  0  0  0  0  0  0  0  0
  1  2  1  0  0  0  0
  1 28  1  0  0  0  0
  1 29  1  0  0  0  0
  1 30  1  0  0  0  0
  2  3  1  0  0  0  0
  2 13  1  0  0  0  0
  3  4  1  0  0  0  0
  3 31  1  0  0  0  0
  3 32  1  0  0  0  0
  4  5  2  0  0  0  0
  4 12  1  0  0  0  0
  5  6  1  0  0  0  0
  5 33  1  0  0  0  0
  6  7  1  0  0  0  0
  6 10  2  0  0  0  0
  7  8  1  0  0  0  0
  7  9  2  0  0  0  0
 10 11  1  0  0  0  0
 10 12  1  0  0  0  0
 11 34  1  0  0  0  0
 11 35  1  0  0  0  0
 11 36  1  0  0  0  0
 13 14  2  0  0  0  0
 13 15  1  0  0  0  0
 15 16  2  0  0  0  0
 15 20  1  0  0  0  0
 16 17  1  0  0  0  0
 16 37  1  0  0  0  0
 17 18  2  0  0  0  0
 17 38  1  0  0  0  0
 18 19  1  0  0  0  0
 18 39  1  0  0  0  0
 19 20  2  0  0  0  0
 19 21  1  0  0  0  0
 20 40  1  0  0  0  0
 21 22  1  0  0  0  0
 21 25  1  0  0  0  0
 22 23  1  0  0  0  0
 22 41  1  0  0  0  0
 22 42  1  0  0  0  0
 23 24  1  0  0  0  0
 23 43  1  0  0  0  0
 23 44  1  0  0  0  0
 24 25  1  0  0  0  0
 24 45  1  0  0  0  0
 24 46  1  0  0  0  0
 25 26  2  0  0  0  0
 25 27  2  0  0  0  0
M  CHG  1   8  -1
M  END
$$$$
