##########                                Name: HTS1710-02151370-01
##########                    Molecular_Weight:             442.448
##########                DOCK_Rotatable_Bonds:                   5
##########                       Formal_Charge:                  -2
##########                     HBond_Acceptors:                  12
##########                        HBond_Donors:                   0
##########                         Heavy_Atoms:                  28
##########                          Grid_Score:          -78.391373
##########                     Grid_vdw_energy:          -45.663811
##########                      Grid_es_energy:          -32.727566
##########           Internal_energy_repulsive:           13.881872

@<TRIPOS>MOLECULE
HTS1710-02151370-01
 38 40 1 0 0
SMALL
USER_CHARGES


@<TRIPOS>ATOM
      1 S           2.8654  -10.0316  -37.1413 S.O2    1  UNL1        0.1510
      2 S           3.3604   -8.3921  -30.7982 S.3     1  UNL1       -0.0506
      3 S           4.1021  -13.4811  -28.6627 S.3     1  UNL1       -0.0511
      4 C           3.7345  -10.1556  -31.0662 C.ar    1  UNL1        0.0862
      5 C           4.0730  -12.3839  -30.0992 C.ar    1  UNL1        0.0790
      6 C           3.7989  -11.0146  -29.9471 C.ar    1  UNL1       -0.0133
      7 C           3.9437  -10.6945  -32.3672 C.ar    1  UNL1        0.0096
      8 O           4.0170   -9.6876  -35.9318 O.3     1  UNL1       -0.3423
      9 C           4.2198  -12.0767  -32.5096 C.ar    1  UNL1       -0.0141
     10 C           4.2803  -12.9100  -31.3817 C.ar    1  UNL1       -0.0300
     11 O           3.3314   -8.2918  -29.3357 O.co2   1  UNL1       -0.7201
     12 O           4.5808  -12.5831  -27.6080 O.co2   1  UNL1       -0.7202
     13 O           3.1661   -9.1799  -38.2965 O.2     1  UNL1       -0.1314
     14 O           2.7033  -11.4854  -37.2461 O.2     1  UNL1       -0.1314
     15 C           1.5084   -9.3265  -36.1909 C.ar    1  UNL1        0.1281
     16 O           2.0578   -8.2338  -31.4523 O.2     1  UNL1       -0.1803
     17 O           4.4635   -7.6731  -31.4429 O.2     1  UNL1       -0.1803
     18 O           5.0431  -14.5372  -29.0484 O.2     1  UNL1       -0.1803
     19 O           2.7043  -13.9017  -28.5246 O.2     1  UNL1       -0.1803
     20 C           3.8761   -9.9004  -33.5368 C.ar    1  UNL1       -0.0075
     21 C           4.0888  -10.4694  -34.8031 C.ar    1  UNL1        0.1575
     22 C           4.4230  -12.6392  -33.7834 C.ar    1  UNL1       -0.0504
     23 C           4.3548  -11.8379  -34.9297 C.ar    1  UNL1       -0.0165
     24 C           0.9221   -8.1132  -36.5977 C.ar    1  UNL1       -0.0334
     25 C           1.0460   -9.9691  -35.0275 C.ar    1  UNL1       -0.0334
     26 C           0.0005   -9.4043  -34.2793 C.ar    1  UNL1       -0.0598
     27 C          -0.1229   -7.5511  -35.8482 C.ar    1  UNL1       -0.0598
     28 C          -0.5846   -8.1962  -34.6900 C.ar    1  UNL1       -0.0616
     29 H           3.6419  -10.6302  -29.0024 H       1  UNL1        0.0655
     30 H           4.4787  -13.9161  -31.4974 H       1  UNL1        0.0642
     31 H           3.6682   -8.8926  -33.4582 H       1  UNL1        0.0662
     32 H           4.6234  -13.6476  -33.8732 H       1  UNL1        0.0625
     33 H           4.4997  -12.2540  -35.8628 H       1  UNL1        0.0655
     34 H           1.2610   -7.6364  -37.4479 H       1  UNL1        0.0638
     35 H           1.4759  -10.8566  -34.7237 H       1  UNL1        0.0638
     36 H          -0.3379   -9.8777  -33.4271 H       1  UNL1        0.0618
     37 H          -0.5525   -6.6623  -36.1490 H       1  UNL1        0.0618
     38 H          -1.3540   -7.7823  -34.1407 H       1  UNL1        0.0618
@<TRIPOS>BOND
     1     2     4    1
     2     3     5    1
     3     4     7   ar
     4     5    10   ar
     5     4     6   ar
     6     7    20   ar
     7     1     8    1
     8     9    22   ar
     9     9    10   ar
    10     2    11    1
    11     3    12    1
    12     1    13    2
    13     1    14    2
    14     1    15    1
    15     2    16    2
    16     2    17    2
    17     3    18    2
    18     3    19    2
    19    20    21   ar
    20     8    21    1
    21    22    23   ar
    22    21    23   ar
    23    15    24   ar
    24    15    25   ar
    25    25    26   ar
    26    24    27   ar
    27    26    28   ar
    28    27    28   ar
    29     7     9   ar
    30     5     6   ar
    31     6    29    1
    32    10    30    1
    33    20    31    1
    34    22    32    1
    35    23    33    1
    36    24    34    1
    37    25    35    1
    38    26    36    1
    39    27    37    1
    40    28    38    1
@<TRIPOS>SUBSTRUCTURE
     1 UNL1        1 TEMP              0 ****  ****    0 ROOT


