HTS1710-01164311-01
 OpenBabel03232612363D

 39 41  0  0  1  0  0  0  0  0999 V2000
    4.4777   -7.3777  -31.3597 C   0  0  0  0  0  0  0  0  0  0  0  0
    5.0476   -8.3416  -32.1755 C   0  0  0  0  0  0  0  0  0  0  0  0
    3.9053  -10.0581  -30.7398 C   0  0  0  0  0  0  0  0  0  0  0  0
    3.4194   -9.0105  -30.0104 C   0  0  0  0  0  0  0  0  0  0  0  0
    3.5864   -7.6974  -30.3629 O   0  0  0  0  0  0  0  0  0  0  0  0
    4.6500   -9.7867  -32.0522 C   0  0  1  0  0  0  0  0  0  0  0  0
    4.8027   -5.9558  -31.5384 C   0  0  0  0  0  0  0  0  0  0  0  0
    5.9481   -8.0651  -33.1857 O   0  0  0  0  0  0  0  0  0  0  0  0
    5.7536   -5.7116  -32.6201 C   0  0  0  0  0  0  0  0  0  0  0  0
    3.7345  -11.5154  -30.3383 C   0  0  0  0  0  0  0  0  0  0  0  0
    6.2732   -6.7396  -33.3751 C   0  0  0  0  0  0  0  0  0  0  0  0
    3.8026  -10.2033  -33.2559 C   0  0  0  0  0  0  0  0  0  0  0  0
    2.7151   -9.2087  -28.8460 N   0  0  0  0  0  0  0  0  0  0  0  0
    4.3300   -5.0635  -30.8562 O   0  0  0  0  0  0  0  0  0  0  0  0
    2.8810  -12.2676  -30.7813 O   0  0  0  0  0  0  0  0  0  0  0  0
    2.4116   -9.9720  -33.2595 C   0  0  0  0  0  0  0  0  0  0  0  0
    4.4030  -10.8106  -34.3768 C   0  0  0  0  0  0  0  0  0  0  0  0
    4.6544  -11.9085  -29.4035 O   0  0  0  0  0  0  0  0  0  0  0  0
    2.2409  -10.9541  -35.4742 C   0  0  0  0  0  0  0  0  0  0  0  0
    3.6248  -11.1886  -35.4819 C   0  0  0  0  0  0  0  0  0  0  0  0
    1.6326  -10.3461  -34.3655 C   0  0  0  0  0  0  0  0  0  0  0  0
    1.4927  -11.3138  -36.5372 F   0  0  0  0  0  0  0  0  0  0  0  0
    7.2447   -6.4379  -34.4864 C   0  0  0  0  0  0  0  0  0  0  0  0
    6.6832   -6.7515  -35.7582 O   0  0  0  0  0  0  0  0  0  0  0  0
    4.6231  -13.2539  -28.8931 C   0  0  0  0  0  0  0  0  0  0  0  0
    5.5430  -10.3759  -32.0375 H   0  0  0  0  0  0  0  0  0  0  0  0
    6.0440   -4.7425  -32.8241 H   0  0  0  0  0  0  0  0  0  0  0  0
    2.8586  -10.0266  -28.3170 H   0  0  0  0  0  0  0  0  0  0  0  0
    2.0673   -8.5329  -28.5414 H   0  0  0  0  0  0  0  0  0  0  0  0
    1.9638   -9.5251  -32.4443 H   0  0  0  0  0  0  0  0  0  0  0  0
    5.4213  -10.9783  -34.3852 H   0  0  0  0  0  0  0  0  0  0  0  0
    4.0689  -11.6379  -36.2980 H   0  0  0  0  0  0  0  0  0  0  0  0
    0.6150  -10.1745  -34.3632 H   0  0  0  0  0  0  0  0  0  0  0  0
    8.1313   -7.0194  -34.3429 H   0  0  0  0  0  0  0  0  0  0  0  0
    7.4725   -5.3927  -34.4641 H   0  0  0  0  0  0  0  0  0  0  0  0
    6.4612   -7.6953  -35.7898 H   0  0  0  0  0  0  0  0  0  0  0  0
    5.4084  -13.3823  -28.1778 H   0  0  0  0  0  0  0  0  0  0  0  0
    4.7585  -13.9444  -29.6992 H   0  0  0  0  0  0  0  0  0  0  0  0
    3.6792  -13.4351  -28.4229 H   0  0  0  0  0  0  0  0  0  0  0  0
  1  2  2  0  0  0  0
  1  5  1  0  0  0  0
  1  7  1  0  0  0  0
  2  6  1  0  0  0  0
  2  8  1  0  0  0  0
  3  4  2  0  0  0  0
  3 10  1  0  0  0  0
  3  6  1  0  0  0  0
  4  5  1  0  0  0  0
  4 13  1  0  0  0  0
  6 12  1  0  0  0  0
  6 26  1  6  0  0  0
  7  9  1  0  0  0  0
  7 14  2  0  0  0  0
  8 11  1  0  0  0  0
  9 11  2  0  0  0  0
  9 27  1  0  0  0  0
 10 15  2  0  0  0  0
 10 18  1  0  0  0  0
 11 23  1  0  0  0  0
 12 16  2  0  0  0  0
 12 17  1  0  0  0  0
 13 28  1  0  0  0  0
 13 29  1  0  0  0  0
 16 21  1  0  0  0  0
 16 30  1  0  0  0  0
 17 20  2  0  0  0  0
 17 31  1  0  0  0  0
 18 25  1  0  0  0  0
 19 20  1  0  0  0  0
 19 22  1  0  0  0  0
 19 21  2  0  0  0  0
 20 32  1  0  0  0  0
 21 33  1  0  0  0  0
 23 24  1  0  0  0  0
 23 34  1  0  0  0  0
 23 35  1  0  0  0  0
 24 36  1  0  0  0  0
 25 37  1  0  0  0  0
 25 38  1  0  0  0  0
 25 39  1  0  0  0  0
M  END
$$$$
