HTS1710-01920929-01
 OpenBabel03232612343D

 27 28  0  0  0  0  0  0  0  0999 V2000
    3.5611  -11.3499  -29.9484 C   0  0  0  0  0  0  0  0  0  0  0  0
    3.8182   -9.9593  -29.6975 C   0  0  0  0  0  0  0  0  0  0  0  0
    3.1360  -10.4155  -36.3972 C   0  0  0  0  0  0  0  0  0  0  0  0
    3.8497  -12.2072  -31.1270 C   0  0  0  0  0  0  0  0  0  0  0  0
    3.9340  -10.9121  -35.3920 O   0  0  0  0  0  0  0  0  0  0  0  0
    4.4546   -8.9048  -30.5305 C   0  0  0  0  0  0  0  0  0  0  0  0
    3.6482   -9.3996  -37.3463 C   0  0  0  0  0  0  0  0  0  0  0  0
    1.8652  -10.9418  -36.4188 C   0  0  0  0  0  0  0  0  0  0  0  0
    3.0739  -11.7885  -34.7878 C   0  0  0  0  0  0  0  0  0  0  0  0
    2.9450  -11.7923  -28.8024 C   0  0  0  0  0  0  0  0  0  0  0  0
    3.3262   -9.7460  -28.4330 C   0  0  0  0  0  0  0  0  0  0  0  0
    2.7744  -10.8439  -27.8325 O   0  0  0  0  0  0  0  0  0  0  0  0
    3.3114  -11.8195  -32.3488 N   0  0  0  0  0  0  0  0  0  0  0  0
    1.8220  -11.8571  -35.3398 C   0  0  0  0  0  0  0  0  0  0  0  0
    4.5234  -13.2218  -31.0844 O   0  0  0  0  0  0  0  0  0  0  0  0
    5.4482   -9.2274  -31.1582 O   0  5  0  0  0  0  0  0  0  0  0  0
    2.9874   -9.1766  -38.3470 O   0  5  0  0  0  0  0  0  0  0  0  0
    3.5233  -12.5812  -33.5873 C   0  0  0  0  0  0  0  0  0  0  0  0
    3.9697   -7.7906  -30.5490 O   0  0  0  0  0  0  0  0  0  0  0  0
    4.6990   -8.8451  -37.0712 O   0  0  0  0  0  0  0  0  0  0  0  0
    1.1056  -10.7174  -37.0804 H   0  0  0  0  0  0  0  0  0  0  0  0
    2.6338  -12.7689  -28.6826 H   0  0  0  0  0  0  0  0  0  0  0  0
    3.3698   -8.8247  -27.9700 H   0  0  0  0  0  0  0  0  0  0  0  0
    2.7656  -11.0009  -32.3857 H   0  0  0  0  0  0  0  0  0  0  0  0
    1.0279  -12.4428  -35.0376 H   0  0  0  0  0  0  0  0  0  0  0  0
    4.5645  -12.8072  -33.6861 H   0  0  0  0  0  0  0  0  0  0  0  0
    2.9491  -13.4826  -33.5376 H   0  0  0  0  0  0  0  0  0  0  0  0
  1  2  1  0  0  0  0
  1  4  1  0  0  0  0
  1 10  2  0  0  0  0
  2  6  1  0  0  0  0
  2 11  2  0  0  0  0
  3  5  1  0  0  0  0
  3  7  1  0  0  0  0
  3  8  2  0  0  0  0
  4 13  1  0  0  0  0
  4 15  2  0  0  0  0
  5  9  1  0  0  0  0
  6 16  1  0  0  0  0
  6 19  2  0  0  0  0
  7 17  1  0  0  0  0
  7 20  2  0  0  0  0
  8 14  1  0  0  0  0
  8 21  1  0  0  0  0
  9 14  2  0  0  0  0
  9 18  1  0  0  0  0
 10 12  1  0  0  0  0
 10 22  1  0  0  0  0
 11 12  1  0  0  0  0
 11 23  1  0  0  0  0
 13 18  1  0  0  0  0
 13 24  1  0  0  0  0
 14 25  1  0  0  0  0
 18 26  1  0  0  0  0
 18 27  1  0  0  0  0
M  CHG  2  16  -1  17  -1
M  END
$$$$
