##########                                Name: HTS1710-01265753-01
##########                    Molecular_Weight:             427.414
##########                DOCK_Rotatable_Bonds:                   7
##########                       Formal_Charge:                  -2
##########                     HBond_Acceptors:                  10
##########                        HBond_Donors:                   0
##########                         Heavy_Atoms:                  31
##########                          Grid_Score:          -83.636810
##########                     Grid_vdw_energy:          -44.750568
##########                      Grid_es_energy:          -38.886238
##########           Internal_energy_repulsive:           17.311449

@<TRIPOS>MOLECULE
HTS1710-01265753-01
 52 54 1 0 0
SMALL
USER_CHARGES


@<TRIPOS>ATOM
      1 C           3.6765   -8.0404  -30.8418 C.ar    1  UNL1        0.0174
      2 C           2.4264   -7.2268  -30.8055 C.ar    1  UNL1        0.2550
      3 C           0.4172  -13.4761  -34.0507 C.ar    1  UNL1        0.3297
      4 N           2.6030   -5.8696  -31.0846 N.ar    1  UNL1       -0.3070
      5 N           0.8042  -13.3042  -32.7200 N.ar    1  UNL1       -0.2951
      6 N           0.9228  -12.3931  -34.7741 N.ar    1  UNL1       -0.2951
      7 C           1.5485  -12.1117  -32.6286 C.ar    1  UNL1        0.0698
      8 C           4.9253   -7.5088  -31.1436 C.ar    1  UNL1       -0.0978
      9 C           1.6206  -11.5567  -33.8813 C.ar    1  UNL1        0.0695
     10 C           3.5424   -9.5441  -30.5614 C.3     1  UNL1        0.0239
     11 C           5.0027   -6.1060  -31.4359 C.ar    1  UNL1       -0.0498
     12 C           3.8577   -5.3348  -31.4023 C.ar    1  UNL1        0.0188
     13 C           2.1450  -11.5148  -31.5138 C.ar    1  UNL1       -0.0323
     14 C           2.8449  -10.2940  -31.7104 C.ar    1  UNL1       -0.0372
     15 C           1.4058   -4.9772  -31.0229 C.3     1  UNL1        0.0657
     16 C           2.2975  -10.3579  -34.1186 C.ar    1  UNL1       -0.0358
     17 O          -0.2411  -14.3999  -34.4975 O.2     1  UNL1       -0.2463
     18 O           1.3312   -7.7050  -30.5573 O.2     1  UNL1       -0.2674
     19 C           2.9372   -9.8060  -29.1488 C.3     1  UNL1        0.0559
     20 C           0.8148   -4.6744  -32.4127 C.2     1  UNL1        0.0615
     21 C           3.5805  -11.0113  -28.4529 C.2     1  UNL1        0.3077
     22 C           2.9116   -9.7308  -33.0148 C.ar    1  UNL1       -0.0559
     23 O           1.0330   -3.5857  -32.9163 O.co2   1  UNL1       -0.5480
     24 O           4.7805  -11.2341  -28.4612 O.2     1  UNL1       -0.2508
     25 O           6.0641   -8.2325  -31.1881 O.co2   1  UNL1       -0.8733
     26 C           0.4950  -14.1977  -31.5966 C.3     1  UNL1        0.0167
     27 C           0.7650  -12.1520  -36.2130 C.3     1  UNL1        0.0167
     28 O           0.1555   -5.5633  -32.9215 O.co2   1  UNL1       -0.5480
     29 O           2.6446  -11.8059  -27.8524 O.3     1  UNL1       -0.4679
     30 C           4.0125   -3.8597  -31.7282 C.3     1  UNL1       -0.0242
     31 C           3.0076  -13.1358  -27.4438 C.3     1  UNL1        0.0817
     32 H           4.5250   -9.9664  -30.5314 H       1  UNL1        0.0404
     33 H           5.9107   -5.6751  -31.6703 H       1  UNL1        0.0629
     34 H           2.0791  -11.9467  -30.5788 H       1  UNL1        0.0642
     35 H           1.6911   -4.0537  -30.5641 H       1  UNL1        0.0554
     36 H           0.6537   -5.4858  -30.4568 H       1  UNL1        0.0554
     37 H           2.3462   -9.9475  -35.0642 H       1  UNL1        0.0639
     38 H           1.8880   -9.9886  -29.2526 H       1  UNL1        0.0387
     39 H           3.1263   -8.9418  -28.5469 H       1  UNL1        0.0387
     40 H           3.4203   -8.8441  -33.1565 H       1  UNL1        0.0621
     41 H          -0.0827  -15.0268  -31.9488 H       1  UNL1        0.0457
     42 H          -0.0638  -13.6618  -30.8580 H       1  UNL1        0.0457
     43 H           1.4060  -14.5557  -31.1644 H       1  UNL1        0.0457
     44 H           1.2621  -11.2424  -36.4789 H       1  UNL1        0.0457
     45 H          -0.2755  -12.0720  -36.4493 H       1  UNL1        0.0457
     46 H           1.1934  -12.9656  -36.7601 H       1  UNL1        0.0457
     47 H           5.0392   -3.6476  -31.9423 H       1  UNL1        0.0292
     48 H           3.6944   -3.2742  -30.8910 H       1  UNL1        0.0292
     49 H           3.4130   -3.6179  -32.5809 H       1  UNL1        0.0292
     50 H           2.1623  -13.6143  -26.9951 H       1  UNL1        0.0661
     51 H           3.8070  -13.0853  -26.7344 H       1  UNL1        0.0661
     52 H           3.3237  -13.6976  -28.2978 H       1  UNL1        0.0661
@<TRIPOS>BOND
     1     1     2   ar
     2     3     5   ar
     3     2     4   ar
     4     5     7   ar
     5     6     9   ar
     6     7    13   ar
     7     1     8   ar
     8     9    16   ar
     9     1    10    1
    10     8    11   ar
    11    11    12   ar
    12    13    14   ar
    13    10    14    1
    14     4    15    1
    15    16    22   ar
    16     3    17    2
    17     2    18    2
    18    10    19    1
    19    15    20    1
    20    19    21    1
    21    14    22   ar
    22    20    23   ar
    23    21    24    2
    24     8    25    1
    25     5    26    1
    26     6    27    1
    27    20    28   ar
    28    21    29    1
    29    12    30    1
    30    29    31    1
    31     4    12   ar
    32     7     9   ar
    33     3     6   ar
    34    10    32    1
    35    11    33    1
    36    13    34    1
    37    15    35    1
    38    15    36    1
    39    16    37    1
    40    19    38    1
    41    19    39    1
    42    22    40    1
    43    26    41    1
    44    26    42    1
    45    26    43    1
    46    27    44    1
    47    27    45    1
    48    27    46    1
    49    30    47    1
    50    30    48    1
    51    30    49    1
    52    31    50    1
    53    31    51    1
    54    31    52    1
@<TRIPOS>SUBSTRUCTURE
     1 UNL1        1 TEMP              0 ****  ****    0 ROOT


