HTS1710-01226712-01
 OpenBabel03232612353D

 37 38  0  0  0  0  0  0  0  0999 V2000
    3.6960   -9.0817  -29.9928 S   0  0  0  0  0  0  0  0  0  0  0  0
    4.3843  -10.1352  -36.0506 S   0  0  0  0  0  0  0  0  0  0  0  0
    3.5965  -10.8852  -29.7890 C   0  0  0  0  0  0  0  0  0  0  0  0
    3.9012  -11.7830  -30.8477 C   0  0  0  0  0  0  0  0  0  0  0  0
    2.8050  -10.0578  -35.1445 C   0  0  0  0  0  0  0  0  0  0  0  0
    4.3178  -11.3231  -32.2188 C   0  0  0  0  0  0  0  0  0  0  0  0
    2.5438  -10.8535  -33.9929 C   0  0  0  0  0  0  0  0  0  0  0  0
    3.5348  -11.8757  -33.4219 C   0  0  0  0  0  0  0  0  0  0  0  0
    3.2036  -11.4086  -28.5374 C   0  0  0  0  0  0  0  0  0  0  0  0
    3.1806   -8.5882  -28.7124 O   0  0  0  0  0  1  0  0  0  0  0  0
    4.1776   -9.1544  -37.1207 O   0  0  0  0  0  1  0  0  0  0  0  0
    1.8173   -9.1485  -35.5863 C   0  0  0  0  0  0  0  0  0  0  0  0
    3.8057  -13.1705  -30.6267 C   0  0  0  0  0  0  0  0  0  0  0  0
    5.1188   -8.8140  -30.2244 O   0  0  0  0  0  0  0  0  0  0  0  0
    2.8266   -8.8295  -31.1444 O   0  0  0  0  0  0  0  0  0  0  0  0
    4.4849  -11.5265  -36.5016 O   0  0  0  0  0  0  0  0  0  0  0  0
    5.3728   -9.7424  -35.0424 O   0  0  0  0  0  0  0  0  0  0  0  0
    5.2045  -10.4997  -32.3643 O   0  0  0  0  0  0  0  0  0  0  0  0
    1.3158  -10.7023  -33.3177 C   0  0  0  0  0  0  0  0  0  0  0  0
    3.1186  -12.7944  -28.3313 C   0  0  0  0  0  0  0  0  0  0  0  0
    0.5962   -9.0201  -34.9056 C   0  0  0  0  0  0  0  0  0  0  0  0
    3.4205  -13.6756  -29.3771 C   0  0  0  0  0  0  0  0  0  0  0  0
    2.7365  -13.2850  -27.1051 N   0  0  0  0  0  0  0  0  0  0  0  0
   -0.3499   -8.1257  -35.3472 N   0  0  0  0  0  0  0  0  0  0  0  0
    0.3483   -9.7970  -33.7684 C   0  0  0  0  0  0  0  0  0  0  0  0
    4.2296  -12.1466  -34.1892 H   0  0  0  0  0  0  0  0  0  0  0  0
    2.9734  -12.7221  -33.0854 H   0  0  0  0  0  0  0  0  0  0  0  0
    2.9762  -10.7638  -27.7644 H   0  0  0  0  0  0  0  0  0  0  0  0
    1.9965   -8.5701  -36.4220 H   0  0  0  0  0  0  0  0  0  0  0  0
    4.0223  -13.8244  -31.3952 H   0  0  0  0  0  0  0  0  0  0  0  0
    1.1267  -11.2692  -32.4763 H   0  0  0  0  0  0  0  0  0  0  0  0
    3.3595  -14.6950  -29.2280 H   0  0  0  0  0  0  0  0  0  0  0  0
    2.5245  -12.6643  -26.3708 H   0  0  0  0  0  0  0  0  0  0  0  0
    2.6748  -14.2571  -26.9613 H   0  0  0  0  0  0  0  0  0  0  0  0
   -1.2055   -8.0376  -34.8681 H   0  0  0  0  0  0  0  0  0  0  0  0
   -0.1720   -7.5735  -36.1425 H   0  0  0  0  0  0  0  0  0  0  0  0
   -0.5464   -9.7024  -33.2629 H   0  0  0  0  0  0  0  0  0  0  0  0
  1  3  1  0  0  0  0
  1 10  1  0  0  0  0
  1 14  2  0  0  0  0
  1 15  2  0  0  0  0
  2  5  1  0  0  0  0
  2 11  1  0  0  0  0
  2 16  2  0  0  0  0
  2 17  2  0  0  0  0
  3  4  2  0  0  0  0
  3  9  1  0  0  0  0
  4  6  1  0  0  0  0
  4 13  1  0  0  0  0
  5  7  2  0  0  0  0
  5 12  1  0  0  0  0
  6  8  1  0  0  0  0
  6 18  2  0  0  0  0
  7  8  1  0  0  0  0
  7 19  1  0  0  0  0
  8 26  1  0  0  0  0
  8 27  1  0  0  0  0
  9 20  2  0  0  0  0
  9 28  1  0  0  0  0
 12 21  2  0  0  0  0
 12 29  1  0  0  0  0
 13 22  2  0  0  0  0
 13 30  1  0  0  0  0
 19 25  2  0  0  0  0
 19 31  1  0  0  0  0
 20 22  1  0  0  0  0
 20 23  1  0  0  0  0
 21 25  1  0  0  0  0
 21 24  1  0  0  0  0
 22 32  1  0  0  0  0
 23 33  1  0  0  0  0
 23 34  1  0  0  0  0
 24 35  1  0  0  0  0
 24 36  1  0  0  0  0
 25 37  1  0  0  0  0
M  END
$$$$
