##########                                Name: HTS1710-05435731-01
##########                    Molecular_Weight:             454.501
##########                DOCK_Rotatable_Bonds:                  12
##########                       Formal_Charge:                  -1
##########                     HBond_Acceptors:                  11
##########                        HBond_Donors:                   3
##########                         Heavy_Atoms:                  31
##########                          Grid_Score:          -74.808372
##########                     Grid_vdw_energy:          -52.911297
##########                      Grid_es_energy:          -21.897078
##########           Internal_energy_repulsive:           14.623022

@<TRIPOS>MOLECULE
HTS1710-05435731-01
 57 58 1 0 0
SMALL
USER_CHARGES


@<TRIPOS>ATOM
      1 C           4.3667   -8.1469  -31.8311 C.2     1  UNL1       -0.0632
      2 S           4.8980  -13.6838  -27.9462 S.O2    1  UNL1        0.0328
      3 C           5.4523   -8.0994  -32.6953 C.2     1  UNL1        0.1533
      4 C           6.0722   -6.8211  -33.0808 C.2     1  UNL1        0.2183
      5 C           3.6851   -9.4591  -31.4772 C.3     1  UNL1        0.0080
      6 O           3.8010   -7.0232  -31.2595 O.co2   1  UNL1       -0.7831
      7 C           5.4190   -5.6682  -32.4656 C.2     1  UNL1       -0.0222
      8 C           4.3482   -5.8084  -31.6106 C.2     1  UNL1       -0.1173
      9 C           2.9036  -10.0486  -32.6623 C.ar    1  UNL1       -0.0368
     10 N           5.9444  -14.9981  -27.8364 N.3     1  UNL1       -0.1872
     11 C           4.1339  -13.8637  -29.5834 C.3     1  UNL1        0.0974
     12 C           1.7649   -9.3548  -33.1187 C.ar    1  UNL1       -0.0126
     13 O           5.7122  -12.4809  -28.0116 O.2     1  UNL1       -0.1580
     14 O           3.8832  -13.8240  -26.9162 O.2     1  UNL1       -0.1580
     15 C           1.0018   -9.8485  -34.1991 C.ar    1  UNL1        0.1615
     16 C           2.6556  -10.6795  -29.4910 C.2     1  UNL1        0.2139
     17 C           2.8794   -9.3171  -30.1534 C.3     1  UNL1        0.0338
     18 O           7.0255   -6.7184  -33.8361 O.2     1  UNL1       -0.2841
     19 C           1.3859  -11.0474  -34.8265 C.ar    1  UNL1        0.1585
     20 C           3.2742  -11.2506  -33.3044 C.ar    1  UNL1       -0.0543
     21 O           2.2537  -10.7731  -28.3436 O.2     1  UNL1       -0.2758
     22 O           6.0294   -9.1813  -33.2653 O.2     1  UNL1       -0.5038
     23 C           2.5185  -11.7437  -34.3790 C.ar    1  UNL1       -0.0162
     24 N           2.9385  -11.8220  -30.2273 N.am    1  UNL1       -0.3137
     25 C           2.7562  -13.1698  -29.6795 C.3     1  UNL1        0.0324
     26 O          -0.1205   -9.1872  -34.6664 O.3     1  UNL1       -0.4914
     27 O           0.6601  -11.5393  -35.8740 O.3     1  UNL1       -0.5033
     28 C           3.7070   -4.5819  -31.0162 C.3     1  UNL1       -0.0529
     29 C           7.0590  -14.8451  -26.8844 C.3     1  UNL1        0.0083
     30 C           5.3457  -16.3464  -27.7693 C.3     1  UNL1        0.0083
     31 C          -0.4572   -7.8411  -34.2865 C.3     1  UNL1        0.0790
     32 H           4.4331  -10.1981  -31.2790 H       1  UNL1        0.0392
     33 H           5.7700   -4.7211  -32.6777 H       1  UNL1        0.0648
     34 H           4.0070  -14.9061  -29.7890 H       1  UNL1        0.0531
     35 H           4.7816  -13.3955  -30.2949 H       1  UNL1        0.0531
     36 H           1.4854   -8.4749  -32.6575 H       1  UNL1        0.0658
     37 H           3.4227   -8.6871  -29.4804 H       1  UNL1        0.0367
     38 H           1.9248   -8.8913  -30.3822 H       1  UNL1        0.0367
     39 H           4.1058  -11.7694  -32.9814 H       1  UNL1        0.0622
     40 H           6.7898   -9.0780  -33.8029 H       1  UNL1        0.2923
     41 H           2.7972  -12.6227  -34.8423 H       1  UNL1        0.0655
     42 H           3.2726  -11.7238  -31.1481 H       1  UNL1        0.1487
     43 H           2.3183  -13.1050  -28.7054 H       1  UNL1        0.0478
     44 H           2.1100  -13.7354  -30.3179 H       1  UNL1        0.0478
     45 H           0.0606  -10.9827  -36.3309 H       1  UNL1        0.2923
     46 H           4.2188   -3.7084  -31.3628 H       1  UNL1        0.0266
     47 H           3.7662   -4.6300  -29.9490 H       1  UNL1        0.0266
     48 H           2.6805   -4.5359  -31.3148 H       1  UNL1        0.0266
     49 H           7.4636  -13.8578  -26.9646 H       1  UNL1        0.0408
     50 H           7.8209  -15.5621  -27.1091 H       1  UNL1        0.0408
     51 H           6.7018  -15.0044  -25.8884 H       1  UNL1        0.0408
     52 H           4.5431  -16.4156  -28.4735 H       1  UNL1        0.0408
     53 H           4.9706  -16.5213  -26.7827 H       1  UNL1        0.0408
     54 H           6.0896  -17.0790  -28.0031 H       1  UNL1        0.0408
     55 H          -1.3640   -7.5492  -34.7739 H       1  UNL1        0.0660
     56 H           0.3326   -7.1804  -34.5772 H       1  UNL1        0.0660
     57 H          -0.5908   -7.7926  -33.2260 H       1  UNL1        0.0660
@<TRIPOS>BOND
     1     2    11    1
     2     1     3    2
     3     3     4    1
     4     1     5    1
     5     1     6    1
     6     7     8    2
     7     6     8    1
     8     5     9    1
     9     2    10    1
    10    11    25    1
    11     9    12   ar
    12     2    13    2
    13     2    14    2
    14    12    15   ar
    15    16    17    1
    16     5    17    1
    17     4    18    2
    18    19    23   ar
    19     9    20   ar
    20    16    21    2
    21     3    22    1
    22    20    23   ar
    23    16    24   am
    24    24    25    1
    25    15    26    1
    26    19    27    1
    27     8    28    1
    28    10    29    1
    29    10    30    1
    30    26    31    1
    31     4     7    1
    32    15    19   ar
    33     5    32    1
    34     7    33    1
    35    11    34    1
    36    11    35    1
    37    12    36    1
    38    17    37    1
    39    17    38    1
    40    20    39    1
    41    22    40    1
    42    23    41    1
    43    24    42    1
    44    25    43    1
    45    25    44    1
    46    27    45    1
    47    28    46    1
    48    28    47    1
    49    28    48    1
    50    29    49    1
    51    29    50    1
    52    29    51    1
    53    30    52    1
    54    30    53    1
    55    30    54    1
    56    31    55    1
    57    31    56    1
    58    31    57    1
@<TRIPOS>SUBSTRUCTURE
     1 UNL1        1 TEMP              0 ****  ****    0 ROOT


