##########                                Name: HTS1710-04906138-01
##########                    Molecular_Weight:             343.362
##########                DOCK_Rotatable_Bonds:                   6
##########                       Formal_Charge:                  -2
##########                     HBond_Acceptors:                   8
##########                        HBond_Donors:                   0
##########                         Heavy_Atoms:                  25
##########                          Grid_Score:          -75.608765
##########                     Grid_vdw_energy:          -40.312069
##########                      Grid_es_energy:          -35.296696
##########           Internal_energy_repulsive:           12.823602

@<TRIPOS>MOLECULE
HTS1710-04906138-01
 44 46 1 0 0
SMALL
USER_CHARGES


@<TRIPOS>ATOM
      1 C          -0.0808   -8.2093  -33.6133 C.2     1  UNL1        0.1107
      2 N           1.7141   -9.8147  -34.3113 N.am    1  UNL1       -0.2862
      3 C           1.0716   -9.1055  -33.2805 C.2     1  UNL1        0.2643
      4 C           2.7512  -11.7033  -32.9839 C.ar    1  UNL1        0.1498
      5 N          -0.3848   -7.1246  -32.8520 N.2     1  UNL1       -0.2629
      6 C           2.9249  -10.6351  -34.0680 C.3     1  UNL1        0.0860
      7 N           3.5590  -11.6274  -31.9015 N.ar    1  UNL1       -0.2350
      8 N           1.7880  -12.6266  -33.1970 N.ar    1  UNL1       -0.2353
      9 C          -1.0084   -8.3023  -34.6204 C.2     1  UNL1       -0.1018
     10 C          -1.4539   -6.6258  -33.4408 C.2     1  UNL1       -0.0245
     11 O          -1.9220   -7.2857  -34.5514 O.co2   1  UNL1       -0.7741
     12 C           3.3935  -12.5670  -30.9481 C.ar    1  UNL1        0.0455
     13 C           1.6224  -13.5629  -32.2405 C.ar    1  UNL1        0.0420
     14 O           1.4472   -9.2122  -32.1237 O.2     1  UNL1       -0.2683
     15 C           4.1673   -9.9820  -29.3724 C.2     1  UNL1        0.0421
     16 C           2.4190  -13.5751  -31.0800 C.ar    1  UNL1       -0.0193
     17 O           5.0424   -9.8798  -30.2147 O.co2   1  UNL1       -0.5498
     18 C           1.4096   -9.8108  -35.7504 C.3     1  UNL1        0.0158
     19 C           3.9435  -11.3678  -28.7567 C.3     1  UNL1       -0.0078
     20 C           4.3214  -12.5031  -29.7388 C.3     1  UNL1       -0.0052
     21 O           3.4441   -9.0793  -28.9906 O.co2   1  UNL1       -0.5498
     22 C           3.3249  -11.2634  -35.4199 C.3     1  UNL1       -0.0257
     23 C           2.6269  -10.4041  -36.4767 C.3     1  UNL1       -0.0350
     24 C          -2.1923   -5.4028  -32.9689 C.3     1  UNL1       -0.0354
     25 C           0.5418  -14.6062  -32.4784 C.3     1  UNL1       -0.0222
     26 H           3.6971  -10.0008  -33.6854 H       1  UNL1        0.0582
     27 H          -1.0161   -9.0440  -35.3380 H       1  UNL1        0.0478
     28 H           2.2936  -14.2963  -30.3525 H       1  UNL1        0.0653
     29 H           1.2358   -8.8095  -36.0851 H       1  UNL1        0.0465
     30 H           0.5303  -10.3857  -35.9531 H       1  UNL1        0.0465
     31 H           2.9110  -11.4670  -28.4939 H       1  UNL1        0.0328
     32 H           4.5708  -11.4528  -27.8940 H       1  UNL1        0.0328
     33 H           4.2710  -13.4368  -29.2187 H       1  UNL1        0.0332
     34 H           5.3092  -12.3042  -30.0989 H       1  UNL1        0.0332
     35 H           2.9887  -12.2777  -35.4776 H       1  UNL1        0.0288
     36 H           4.3861  -11.2847  -35.5553 H       1  UNL1        0.0288
     37 H           3.2768   -9.6273  -36.8216 H       1  UNL1        0.0281
     38 H           2.3480  -10.9700  -37.3409 H       1  UNL1        0.0281
     39 H          -1.7079   -5.0064  -32.1011 H       1  UNL1        0.0281
     40 H          -3.2003   -5.6665  -32.7255 H       1  UNL1        0.0281
     41 H          -2.1938   -4.6656  -33.7445 H       1  UNL1        0.0281
     42 H           0.0599  -14.4136  -33.4141 H       1  UNL1        0.0293
     43 H          -0.1794  -14.5591  -31.6893 H       1  UNL1        0.0293
     44 H           0.9846  -15.5801  -32.4991 H       1  UNL1        0.0293
@<TRIPOS>BOND
     1     2     3   am
     2     1     3    1
     3     4     6    1
     4     1     5    1
     5     2     6    1
     6     4     7   ar
     7     4     8   ar
     8     1     9    2
     9     5    10    2
    10     9    11    1
    11     7    12   ar
    12     8    13   ar
    13     3    14    2
    14    15    19    1
    15    13    16   ar
    16    15    17   ar
    17     2    18    1
    18    19    20    1
    19    12    20    1
    20    15    21   ar
    21     6    22    1
    22    18    23    1
    23    10    24    1
    24    13    25    1
    25    10    11    1
    26    22    23    1
    27    12    16   ar
    28     6    26    1
    29     9    27    1
    30    16    28    1
    31    18    29    1
    32    18    30    1
    33    19    31    1
    34    19    32    1
    35    20    33    1
    36    20    34    1
    37    22    35    1
    38    22    36    1
    39    23    37    1
    40    23    38    1
    41    24    39    1
    42    24    40    1
    43    24    41    1
    44    25    42    1
    45    25    43    1
    46    25    44    1
@<TRIPOS>SUBSTRUCTURE
     1 UNL1        1 TEMP              0 ****  ****    0 ROOT


