HTS1710-02151370-01
 OpenBabel03232612353D

 38 40  0  0  0  0  0  0  0  0999 V2000
    2.8654  -10.0316  -37.1413 S   0  0  0  0  0  0  0  0  0  0  0  0
    3.3604   -8.3921  -30.7982 S   0  0  0  0  0  0  0  0  0  0  0  0
    4.1021  -13.4811  -28.6627 S   0  0  0  0  0  0  0  0  0  0  0  0
    3.7345  -10.1556  -31.0662 C   0  0  0  0  0  0  0  0  0  0  0  0
    4.0730  -12.3839  -30.0992 C   0  0  0  0  0  0  0  0  0  0  0  0
    3.7989  -11.0146  -29.9471 C   0  0  0  0  0  0  0  0  0  0  0  0
    3.9437  -10.6945  -32.3672 C   0  0  0  0  0  0  0  0  0  0  0  0
    4.0170   -9.6876  -35.9318 O   0  0  0  0  0  0  0  0  0  0  0  0
    4.2198  -12.0767  -32.5096 C   0  0  0  0  0  0  0  0  0  0  0  0
    4.2803  -12.9100  -31.3817 C   0  0  0  0  0  0  0  0  0  0  0  0
    3.3314   -8.2918  -29.3357 O   0  0  0  0  0  1  0  0  0  0  0  0
    4.5808  -12.5831  -27.6080 O   0  0  0  0  0  1  0  0  0  0  0  0
    3.1661   -9.1799  -38.2965 O   0  0  0  0  0  0  0  0  0  0  0  0
    2.7033  -11.4854  -37.2461 O   0  0  0  0  0  0  0  0  0  0  0  0
    1.5084   -9.3265  -36.1909 C   0  0  0  0  0  0  0  0  0  0  0  0
    2.0578   -8.2338  -31.4523 O   0  0  0  0  0  0  0  0  0  0  0  0
    4.4635   -7.6731  -31.4429 O   0  0  0  0  0  0  0  0  0  0  0  0
    5.0431  -14.5372  -29.0484 O   0  0  0  0  0  0  0  0  0  0  0  0
    2.7043  -13.9017  -28.5246 O   0  0  0  0  0  0  0  0  0  0  0  0
    3.8761   -9.9004  -33.5368 C   0  0  0  0  0  0  0  0  0  0  0  0
    4.0888  -10.4694  -34.8031 C   0  0  0  0  0  0  0  0  0  0  0  0
    4.4230  -12.6392  -33.7834 C   0  0  0  0  0  0  0  0  0  0  0  0
    4.3548  -11.8379  -34.9297 C   0  0  0  0  0  0  0  0  0  0  0  0
    0.9221   -8.1132  -36.5977 C   0  0  0  0  0  0  0  0  0  0  0  0
    1.0460   -9.9691  -35.0275 C   0  0  0  0  0  0  0  0  0  0  0  0
    0.0005   -9.4043  -34.2793 C   0  0  0  0  0  0  0  0  0  0  0  0
   -0.1229   -7.5511  -35.8482 C   0  0  0  0  0  0  0  0  0  0  0  0
   -0.5846   -8.1962  -34.6900 C   0  0  0  0  0  0  0  0  0  0  0  0
    3.6419  -10.6302  -29.0024 H   0  0  0  0  0  0  0  0  0  0  0  0
    4.4787  -13.9161  -31.4974 H   0  0  0  0  0  0  0  0  0  0  0  0
    3.6682   -8.8926  -33.4582 H   0  0  0  0  0  0  0  0  0  0  0  0
    4.6234  -13.6476  -33.8732 H   0  0  0  0  0  0  0  0  0  0  0  0
    4.4997  -12.2540  -35.8628 H   0  0  0  0  0  0  0  0  0  0  0  0
    1.2610   -7.6364  -37.4479 H   0  0  0  0  0  0  0  0  0  0  0  0
    1.4759  -10.8566  -34.7237 H   0  0  0  0  0  0  0  0  0  0  0  0
   -0.3379   -9.8777  -33.4271 H   0  0  0  0  0  0  0  0  0  0  0  0
   -0.5525   -6.6623  -36.1490 H   0  0  0  0  0  0  0  0  0  0  0  0
   -1.3540   -7.7823  -34.1407 H   0  0  0  0  0  0  0  0  0  0  0  0
  1  8  1  0  0  0  0
  1 13  2  0  0  0  0
  1 14  2  0  0  0  0
  1 15  1  0  0  0  0
  2  4  1  0  0  0  0
  2 11  1  0  0  0  0
  2 16  2  0  0  0  0
  2 17  2  0  0  0  0
  3  5  1  0  0  0  0
  3 12  1  0  0  0  0
  3 18  2  0  0  0  0
  3 19  2  0  0  0  0
  4  7  2  0  0  0  0
  4  6  1  0  0  0  0
  5 10  1  0  0  0  0
  5  6  2  0  0  0  0
  6 29  1  0  0  0  0
  7 20  1  0  0  0  0
  7  9  1  0  0  0  0
  8 21  1  0  0  0  0
  9 22  1  0  0  0  0
  9 10  2  0  0  0  0
 10 30  1  0  0  0  0
 15 24  2  0  0  0  0
 15 25  1  0  0  0  0
 20 21  2  0  0  0  0
 20 31  1  0  0  0  0
 21 23  1  0  0  0  0
 22 23  2  0  0  0  0
 22 32  1  0  0  0  0
 23 33  1  0  0  0  0
 24 27  1  0  0  0  0
 24 34  1  0  0  0  0
 25 26  2  0  0  0  0
 25 35  1  0  0  0  0
 26 28  1  0  0  0  0
 26 36  1  0  0  0  0
 27 28  2  0  0  0  0
 27 37  1  0  0  0  0
 28 38  1  0  0  0  0
M  END
$$$$
