HTS1710-02528450-01
 OpenBabel03232612353D

 42 43  0  0  0  0  0  0  0  0999 V2000
    4.3683   -8.8538  -31.7271 C   0  0  0  0  0  0  0  0  0  0  0  0
    5.0584   -9.3111  -33.8986 C   0  0  0  0  0  0  0  0  0  0  0  0
    4.2617   -9.7142  -32.8214 N   0  0  0  0  0  0  0  0  0  0  0  0
    5.3050   -7.9179  -32.1091 C   0  0  0  0  0  0  0  0  0  0  0  0
    5.7261   -8.2000  -33.4395 C   0  0  0  0  0  0  0  0  0  0  0  0
    3.6262   -8.9518  -30.4406 C   0  0  0  0  0  0  0  0  0  0  0  0
    5.1721   -9.9354  -35.2475 C   0  0  0  0  0  0  0  0  0  0  0  0
    3.2648  -10.6780  -32.9281 C   0  0  0  0  0  0  0  0  0  0  0  0
    5.7645   -6.8760  -31.3852 O   0  5  0  0  0  0  0  0  0  0  0  0
    6.6277   -7.4580  -34.1177 O   0  5  0  0  0  0  0  0  0  0  0  0
    2.9336   -8.0525  -29.9909 O   0  0  0  0  0  0  0  0  0  0  0  0
    5.7923  -10.9689  -35.4406 O   0  0  0  0  0  0  0  0  0  0  0  0
    3.5514  -12.0144  -32.6052 C   0  0  0  0  0  0  0  0  0  0  0  0
    1.9916  -10.3150  -33.3969 C   0  0  0  0  0  0  0  0  0  0  0  0
    4.5285   -9.2621  -36.2471 O   0  0  0  0  0  0  0  0  0  0  0  0
    3.7896  -10.1518  -29.8044 O   0  0  0  0  0  0  0  0  0  0  0  0
    1.2849  -12.6444  -33.2423 C   0  0  0  0  0  0  0  0  0  0  0  0
    0.9999  -11.2964  -33.5538 C   0  0  0  0  0  0  0  0  0  0  0  0
    2.5608  -12.9948  -32.7637 C   0  0  0  0  0  0  0  0  0  0  0  0
    0.3489  -13.6502  -33.3969 O   0  0  0  0  0  0  0  0  0  0  0  0
    3.0332  -10.4439  -28.6152 C   0  0  0  0  0  0  0  0  0  0  0  0
    3.1434   -9.5275  -36.5262 C   0  0  0  0  0  0  0  0  0  0  0  0
    0.3692  -14.8628  -32.6237 C   0  0  0  0  0  0  0  0  0  0  0  0
    3.3667  -11.8820  -28.1749 C   0  0  0  0  0  0  0  0  0  0  0  0
    2.9733  -11.0523  -36.6604 C   0  0  0  0  0  0  0  0  0  0  0  0
    4.4862  -12.2739  -32.2532 H   0  0  0  0  0  0  0  0  0  0  0  0
    1.7858   -9.3299  -33.6255 H   0  0  0  0  0  0  0  0  0  0  0  0
    0.0629  -11.0330  -33.8966 H   0  0  0  0  0  0  0  0  0  0  0  0
    2.7687  -13.9778  -32.5282 H   0  0  0  0  0  0  0  0  0  0  0  0
    1.9867  -10.3617  -28.8221 H   0  0  0  0  0  0  0  0  0  0  0  0
    3.2831   -9.7517  -27.8384 H   0  0  0  0  0  0  0  0  0  0  0  0
    2.8577   -9.0478  -37.4391 H   0  0  0  0  0  0  0  0  0  0  0  0
    2.5247   -9.1505  -35.7388 H   0  0  0  0  0  0  0  0  0  0  0  0
   -0.4487  -15.4869  -32.9176 H   0  0  0  0  0  0  0  0  0  0  0  0
    0.2805  -14.6246  -31.5843 H   0  0  0  0  0  0  0  0  0  0  0  0
    1.2909  -15.3791  -32.7939 H   0  0  0  0  0  0  0  0  0  0  0  0
    3.1123  -12.5634  -28.9597 H   0  0  0  0  0  0  0  0  0  0  0  0
    2.8066  -12.1250  -27.2961 H   0  0  0  0  0  0  0  0  0  0  0  0
    4.4129  -11.9566  -27.9630 H   0  0  0  0  0  0  0  0  0  0  0  0
    3.5978  -11.4126  -37.4510 H   0  0  0  0  0  0  0  0  0  0  0  0
    1.9513  -11.2790  -36.8816 H   0  0  0  0  0  0  0  0  0  0  0  0
    3.2526  -11.5245  -35.7417 H   0  0  0  0  0  0  0  0  0  0  0  0
  1  3  1  0  0  0  0
  1  4  2  0  0  0  0
  1  6  1  0  0  0  0
  2  3  1  0  0  0  0
  2  5  2  0  0  0  0
  2  7  1  0  0  0  0
  3  8  1  0  0  0  0
  4  5  1  0  0  0  0
  4  9  1  0  0  0  0
  5 10  1  0  0  0  0
  6 11  2  0  0  0  0
  6 16  1  0  0  0  0
  7 12  2  0  0  0  0
  7 15  1  0  0  0  0
  8 13  2  0  0  0  0
  8 14  1  0  0  0  0
 13 19  1  0  0  0  0
 13 26  1  0  0  0  0
 14 18  2  0  0  0  0
 14 27  1  0  0  0  0
 15 22  1  0  0  0  0
 16 21  1  0  0  0  0
 17 18  1  0  0  0  0
 17 19  2  0  0  0  0
 17 20  1  0  0  0  0
 18 28  1  0  0  0  0
 19 29  1  0  0  0  0
 20 23  1  0  0  0  0
 21 24  1  0  0  0  0
 21 30  1  0  0  0  0
 21 31  1  0  0  0  0
 22 25  1  0  0  0  0
 22 32  1  0  0  0  0
 22 33  1  0  0  0  0
 23 34  1  0  0  0  0
 23 35  1  0  0  0  0
 23 36  1  0  0  0  0
 24 37  1  0  0  0  0
 24 38  1  0  0  0  0
 24 39  1  0  0  0  0
 25 40  1  0  0  0  0
 25 41  1  0  0  0  0
 25 42  1  0  0  0  0
M  CHG  2   9  -1  10  -1
M  END
$$$$
