##########                                Name: HTS1710-01430544-01
##########                    Molecular_Weight:             438.338
##########                DOCK_Rotatable_Bonds:                  11
##########                       Formal_Charge:                  -2
##########                     HBond_Acceptors:                  11
##########                        HBond_Donors:                   4
##########                         Heavy_Atoms:                  31
##########                          Grid_Score:          -78.801270
##########                     Grid_vdw_energy:          -43.482483
##########                      Grid_es_energy:          -35.318787
##########           Internal_energy_repulsive:           18.251356

@<TRIPOS>MOLECULE
HTS1710-01430544-01
 47 49 1 0 0
SMALL
USER_CHARGES


@<TRIPOS>ATOM
      1 C           3.6128   -7.6957  -31.6274 C.2     1  UNL1       -0.0603
      2 C           2.7513   -9.9443  -30.8826 C.2     1  UNL1       -0.0603
      3 C           2.3819   -8.5402  -31.3438 C.3     1  UNL1        0.0154
      4 C           4.7258   -8.2626  -32.2265 C.2     1  UNL1        0.1535
      5 C           3.4516  -10.1297  -29.7011 C.2     1  UNL1        0.1535
      6 C           3.8453  -11.4687  -29.2396 C.2     1  UNL1        0.2184
      7 C           5.9417   -7.4798  -32.4927 C.2     1  UNL1        0.2184
      8 O           2.3658  -10.9864  -31.7067 O.co2   1  UNL1       -0.7814
      9 O           3.5568   -6.3749  -31.2212 O.co2   1  UNL1       -0.7814
     10 C           3.4192  -12.5291  -30.1513 C.2     1  UNL1       -0.0198
     11 C           5.8233   -6.0900  -32.0559 C.2     1  UNL1       -0.0198
     12 C           1.4431   -8.5460  -32.5548 C.ar    1  UNL1       -0.0342
     13 C           4.6793   -5.6097  -31.4552 C.2     1  UNL1       -0.0884
     14 C           2.7186  -12.2565  -31.3067 C.2     1  UNL1       -0.0884
     15 C           2.6432  -10.2788  -36.3404 C.3     1  UNL1        0.3893
     16 C           1.8772   -9.0639  -33.7922 C.ar    1  UNL1       -0.0157
     17 O           4.4634  -11.6862  -28.2097 O.2     1  UNL1       -0.2841
     18 O           6.9472   -7.9291  -33.0187 O.2     1  UNL1       -0.2841
     19 O           1.3917   -9.5996  -36.1277 O.3     1  UNL1       -0.4342
     20 C           1.0101   -9.0806  -34.9048 C.ar    1  UNL1        0.1271
     21 O           3.8411   -9.1282  -28.8798 O.2     1  UNL1       -0.5038
     22 O           4.8116   -9.5570  -32.6109 O.2     1  UNL1       -0.5038
     23 F           2.7691  -11.2966  -35.4632 F       1  UNL1       -0.1663
     24 F           3.6801   -9.4412  -36.1162 F       1  UNL1       -0.1663
     25 C           0.1372   -8.0304  -32.4445 C.ar    1  UNL1       -0.0575
     26 C           4.6090   -4.1683  -31.0201 C.3     1  UNL1        0.0566
     27 C           2.3080  -13.3809  -32.2241 C.3     1  UNL1        0.0566
     28 O           3.6767   -3.9927  -29.9574 O.3     1  UNL1       -0.3915
     29 O           1.2090  -13.0030  -33.0480 O.3     1  UNL1       -0.3915
     30 C          -0.7217   -8.0322  -33.5541 C.ar    1  UNL1       -0.0580
     31 C          -0.2862   -8.5561  -34.7803 C.ar    1  UNL1       -0.0197
     32 H           1.8505   -8.0937  -30.5295 H       1  UNL1        0.0425
     33 H           3.6492  -13.5090  -29.9236 H       1  UNL1        0.0649
     34 H           6.6194   -5.4496  -32.2013 H       1  UNL1        0.0649
     35 H           2.6525  -10.6324  -37.3502 H       1  UNL1        0.1520
     36 H           2.8363   -9.4334  -33.8847 H       1  UNL1        0.0657
     37 H           4.3545   -9.3188  -28.1194 H       1  UNL1        0.2923
     38 H           4.0722  -10.1244  -32.5144 H       1  UNL1        0.2923
     39 H          -0.1897   -7.6493  -31.5430 H       1  UNL1        0.0621
     40 H           4.3061   -3.5675  -31.8521 H       1  UNL1        0.0596
     41 H           5.5768   -3.8733  -30.6721 H       1  UNL1        0.0596
     42 H           2.0256  -14.2271  -31.6332 H       1  UNL1        0.0596
     43 H           3.1372  -13.6199  -32.8566 H       1  UNL1        0.0596
     44 H           3.6435   -3.0559  -29.7079 H       1  UNL1        0.2098
     45 H           0.9122  -13.7697  -33.5628 H       1  UNL1        0.2098
     46 H          -1.6754   -7.6474  -33.4678 H       1  UNL1        0.0619
     47 H          -0.9212   -8.5561  -35.5939 H       1  UNL1        0.0654
@<TRIPOS>BOND
     1     2     3    1
     2     1     3    1
     3     1     4    2
     4     2     5    2
     5     5     6    1
     6     4     7    1
     7     2     8    1
     8     1     9    1
     9    10    14    2
    10    11    13    2
    11     3    12    1
    12     9    13    1
    13     8    14    1
    14    15    19    1
    15    12    16   ar
    16     6    17    2
    17     7    18    2
    18    19    20    1
    19    16    20   ar
    20     5    21    1
    21     4    22    1
    22    15    23    1
    23    15    24    1
    24    12    25   ar
    25    13    26    1
    26    14    27    1
    27    26    28    1
    28    27    29    1
    29    25    30   ar
    30    30    31   ar
    31     7    11    1
    32    20    31   ar
    33     6    10    1
    34     3    32    1
    35    10    33    1
    36    11    34    1
    37    15    35    1
    38    16    36    1
    39    21    37    1
    40    22    38    1
    41    25    39    1
    42    26    40    1
    43    26    41    1
    44    27    42    1
    45    27    43    1
    46    28    44    1
    47    29    45    1
    48    30    46    1
    49    31    47    1
@<TRIPOS>SUBSTRUCTURE
     1 UNL1        1 TEMP              0 ****  ****    0 ROOT


