##########                                Name: HTS1710-04760620-01
##########                    Molecular_Weight:             319.294
##########                DOCK_Rotatable_Bonds:                   6
##########                       Formal_Charge:                  -3
##########                     HBond_Acceptors:                   8
##########                        HBond_Donors:                   1
##########                         Heavy_Atoms:                  23
##########                          Grid_Score:          -85.221268
##########                     Grid_vdw_energy:          -38.861004
##########                      Grid_es_energy:          -46.360260
##########           Internal_energy_repulsive:            6.408340

@<TRIPOS>MOLECULE
HTS1710-04760620-01
 38 40 1 0 0
SMALL
USER_CHARGES


@<TRIPOS>ATOM
      1 C          -2.7824   -6.8700  -34.3102 C.3     1  UNL1       -0.0524
      2 C          -1.4943   -7.4256  -34.8617 C.2     1  UNL1       -0.1120
      3 O          -0.9431   -8.5311  -34.2664 O.co2   1  UNL1       -0.7845
      4 C           0.1705   -8.6964  -35.0419 C.2     1  UNL1       -0.1000
      5 C           1.1275   -9.8210  -34.7529 C.3     1  UNL1        0.0243
      6 N           2.1508   -9.3780  -33.7986 N.am    1  UNL1       -0.3071
      7 C           2.7664  -10.2514  -32.9115 C.2     1  UNL1        0.2618
      8 O           2.4450  -11.4282  -32.9240 O.2     1  UNL1       -0.2686
      9 C           3.7880   -9.6973  -31.9897 C.2     1  UNL1        0.1158
     10 N           4.4688   -8.5443  -32.2137 N.2     1  UNL1       -0.2657
     11 C           5.2508   -8.4406  -31.1520 C.2     1  UNL1       -0.0365
     12 O           5.1598   -9.4431  -30.2092 O.co2   1  UNL1       -0.7724
     13 C           4.2056  -10.2270  -30.7995 C.2     1  UNL1       -0.0569
     14 C           3.7455  -11.5267  -30.1694 C.3     1  UNL1        0.0731
     15 C           3.8743  -11.6205  -28.6314 C.3     1  UNL1       -0.0214
     16 C           4.1823  -13.1076  -28.3707 C.3     1  UNL1       -0.0268
     17 C           4.2877  -13.7336  -29.7736 C.3     1  UNL1        0.0485
     18 O           4.5720  -12.6105  -30.6198 O.3     1  UNL1       -0.3730
     19 C           0.3317   -7.7793  -36.0477 C.2     1  UNL1       -0.0630
     20 C          -0.7923   -6.9165  -35.9374 C.2     1  UNL1       -0.0144
     21 C          -1.0892   -5.7516  -36.8046 C.2     1  UNL1        0.0708
     22 O          -0.3123   -5.5269  -37.7169 O.co2   1  UNL1       -0.5447
     23 O          -2.0831   -5.0873  -36.5671 O.co2   1  UNL1       -0.5447
     24 H          -3.0993   -7.4631  -33.4779 H       1  UNL1        0.0266
     25 H          -3.5347   -6.8919  -35.0707 H       1  UNL1        0.0266
     26 H          -2.6276   -5.8607  -33.9906 H       1  UNL1        0.0266
     27 H           1.6003  -10.1263  -35.6629 H       1  UNL1        0.0500
     28 H           0.5866  -10.6423  -34.3312 H       1  UNL1        0.0500
     29 H           2.4100   -8.4284  -33.7870 H       1  UNL1        0.1493
     30 H           5.8992   -7.6463  -31.0344 H       1  UNL1        0.0668
     31 H           2.7149  -11.5715  -30.4535 H       1  UNL1        0.0635
     32 H           2.9603  -11.3327  -28.1554 H       1  UNL1        0.0294
     33 H           4.6293  -10.9701  -28.2419 H       1  UNL1        0.0294
     34 H           3.3929  -13.5645  -27.8113 H       1  UNL1        0.0288
     35 H           5.0758  -13.2428  -27.7977 H       1  UNL1        0.0288
     36 H           3.3668  -14.2007  -30.0543 H       1  UNL1        0.0560
     37 H           5.0317  -14.5001  -29.8337 H       1  UNL1        0.0560
     38 H           1.1004   -7.7267  -36.7343 H       1  UNL1        0.0615
@<TRIPOS>BOND
     1     1     2    1
     2     2     3    1
     3     3     4    1
     4     4     5    1
     5     5     6    1
     6     6     7   am
     7     7     8    2
     8     7     9    1
     9     9    10    1
    10    10    11    2
    11    11    12    1
    12    12    13    1
    13     9    13    2
    14    13    14    1
    15    14    15    1
    16    15    16    1
    17    16    17    1
    18    17    18    1
    19    14    18    1
    20     4    19    2
    21    19    20    1
    22     2    20    2
    23    20    21    1
    24    21    22   ar
    25    21    23   ar
    26     1    24    1
    27     1    25    1
    28     1    26    1
    29     5    27    1
    30     5    28    1
    31     6    29    1
    32    11    30    1
    33    14    31    1
    34    15    32    1
    35    15    33    1
    36    16    34    1
    37    16    35    1
    38    17    36    1
    39    17    37    1
    40    19    38    1
@<TRIPOS>SUBSTRUCTURE
     1 UNL1        1 TEMP              0 ****  ****    0 ROOT


