##########                                Name: HTS1710-04853524-01
##########                    Molecular_Weight:             336.307
##########                DOCK_Rotatable_Bonds:                   6
##########                       Formal_Charge:                  -2
##########                     HBond_Acceptors:                   8
##########                        HBond_Donors:                   1
##########                         Heavy_Atoms:                  25
##########                          Grid_Score:          -76.813919
##########                     Grid_vdw_energy:          -37.542809
##########                      Grid_es_energy:          -39.271111
##########           Internal_energy_repulsive:            9.009768

@<TRIPOS>MOLECULE
HTS1710-04853524-01
 37 39 1 0 0
SMALL
USER_CHARGES


@<TRIPOS>ATOM
      1 C           2.8636  -10.3815  -30.7667 C.2     1  UNL1        0.0173
      2 C           2.8881  -11.4658  -29.6506 C.3     1  UNL1        0.0714
      3 N           3.1542  -13.8045  -29.5272 N.2     1  UNL1       -0.1890
      4 C           3.1852   -9.0475  -30.5837 C.2     1  UNL1       -0.0766
      5 C           4.1878  -13.2928  -28.9497 C.2     1  UNL1        0.0862
      6 N           2.4066  -12.7939  -30.0381 N.pl3   1  UNL1       -0.2608
      7 C           2.4873  -10.9568  -32.1282 C.2     1  UNL1        0.2086
      8 C           4.2656  -11.7792  -29.0302 C.3     1  UNL1        0.0172
      9 C           3.2077   -7.8842  -31.5653 C.2     1  UNL1        0.0573
     10 C           5.2339  -14.1105  -28.2708 C.ar    1  UNL1        0.0866
     11 C           3.4652  -10.9123  -33.2764 C.ar    1  UNL1        0.1107
     12 N           6.3515  -13.4637  -27.8660 N.ar    1  UNL1       -0.2537
     13 N           4.7385  -10.5370  -33.0137 N.ar    1  UNL1       -0.2517
     14 O           1.4017  -11.4772  -32.3272 O.2     1  UNL1       -0.2853
     15 O           3.9061   -6.9236  -31.2818 O.co2   1  UNL1       -0.5458
     16 O           3.5927   -8.6507  -29.3484 O.co2   1  UNL1       -0.8722
     17 O           2.5513   -7.9480  -32.5838 O.co2   1  UNL1       -0.5458
     18 C           5.6263  -10.5054  -34.0272 C.ar    1  UNL1        0.0284
     19 C           7.3220  -14.1654  -27.2465 C.ar    1  UNL1        0.0283
     20 C           5.0611  -15.4974  -28.0618 C.ar    1  UNL1       -0.0345
     21 C           3.0523  -11.3019  -34.5670 C.ar    1  UNL1       -0.0325
     22 C           7.2268  -15.5448  -26.9989 C.ar    1  UNL1       -0.0436
     23 C           5.2924  -10.8601  -35.3453 C.ar    1  UNL1       -0.0436
     24 C           6.0727  -16.2237  -27.4158 C.ar    1  UNL1       -0.0583
     25 C           3.9790  -11.2709  -35.6199 C.ar    1  UNL1       -0.0582
     26 H           2.2350  -10.9739  -28.9603 H       1  UNL1        0.0568
     27 H           1.6196  -12.9387  -30.6117 H       1  UNL1        0.1686
     28 H           5.0669  -11.4569  -29.6618 H       1  UNL1        0.0351
     29 H           4.4592  -11.2902  -28.0984 H       1  UNL1        0.0351
     30 H           6.5937  -10.2076  -33.8264 H       1  UNL1        0.0830
     31 H           8.1724  -13.6669  -26.9407 H       1  UNL1        0.0830
     32 H           4.2010  -15.9703  -28.3805 H       1  UNL1        0.0639
     33 H           2.0807  -11.6061  -34.7350 H       1  UNL1        0.0640
     34 H           7.9902  -16.0481  -26.5203 H       1  UNL1        0.0633
     35 H           5.9990  -10.8193  -36.0963 H       1  UNL1        0.0633
     36 H           5.9696  -17.2372  -27.2508 H       1  UNL1        0.0619
     37 H           3.7009  -11.5441  -36.5754 H       1  UNL1        0.0619
@<TRIPOS>BOND
     1     1     2    1
     2     3     6    1
     3     1     4    2
     4     5     8    1
     5     2     6    1
     6     1     7    1
     7     2     8    1
     8     4     9    1
     9     5    10    1
    10     7    11    1
    11    10    12   ar
    12    11    13   ar
    13     7    14    2
    14     9    15   ar
    15     4    16    1
    16     9    17   ar
    17    13    18   ar
    18    12    19   ar
    19    10    20   ar
    20    11    21   ar
    21    22    24   ar
    22    23    25   ar
    23    20    24   ar
    24    21    25   ar
    25     3     5    2
    26    18    23   ar
    27    19    22   ar
    28     2    26    1
    29     6    27    1
    30     8    28    1
    31     8    29    1
    32    18    30    1
    33    19    31    1
    34    20    32    1
    35    21    33    1
    36    22    34    1
    37    23    35    1
    38    24    36    1
    39    25    37    1
@<TRIPOS>SUBSTRUCTURE
     1 UNL1        1 TEMP              0 ****  ****    0 ROOT


