##########                                Name: HTS1710-03300162-01
##########                    Molecular_Weight:             416.407
##########                DOCK_Rotatable_Bonds:                  12
##########                       Formal_Charge:                  -1
##########                     HBond_Acceptors:                   9
##########                        HBond_Donors:                   2
##########                         Heavy_Atoms:                  30
##########                          Grid_Score:          -75.808632
##########                     Grid_vdw_energy:          -49.731262
##########                      Grid_es_energy:          -26.077372
##########           Internal_energy_repulsive:           15.290421

@<TRIPOS>MOLECULE
HTS1710-03300162-01
 52 54 1 0 0
SMALL
USER_CHARGES


@<TRIPOS>ATOM
      1 C           4.0556  -11.0514  -29.8273 C.2     1  UNL1        0.0249
      2 N           4.9207  -10.3371  -31.8924 N.am    1  UNL1       -0.2851
      3 C           4.2375   -9.7116  -29.8220 C.2     1  UNL1       -0.0353
      4 C           4.7712   -9.2179  -31.0986 C.2     1  UNL1        0.2330
      5 C           4.4016  -11.5605  -31.2346 C.3     1  UNL1        0.0802
      6 C           3.5469  -12.0208  -28.7947 C.2     1  UNL1        0.2256
      7 C           3.2026  -12.1505  -31.9744 C.ar    1  UNL1       -0.0188
      8 C           4.3906  -13.1838  -28.4136 C.ar    1  UNL1        0.1744
      9 C           2.3455  -11.3090  -32.7061 C.ar    1  UNL1       -0.0110
     10 C           1.2371  -11.8444  -33.3989 C.ar    1  UNL1        0.1620
     11 O           5.0385   -8.0689  -31.4043 O.2     1  UNL1       -0.2712
     12 O           5.5509  -12.9693  -27.7087 O.2     1  UNL1       -0.4597
     13 C           2.9458  -13.5336  -31.9293 C.ar    1  UNL1       -0.0528
     14 O           2.4457  -11.8682  -28.2951 O.2     1  UNL1       -0.2836
     15 C           0.9870  -13.2297  -33.3383 C.ar    1  UNL1        0.1585
     16 C           4.1024  -14.5164  -28.5979 C.ar    1  UNL1       -0.0126
     17 O           3.9189   -8.8343  -28.8432 O.co2   1  UNL1       -0.8701
     18 C           6.0017  -14.2460  -27.5035 C.ar    1  UNL1        0.0927
     19 C           5.1798  -15.2171  -28.0065 C.ar    1  UNL1       -0.0232
     20 C           1.8406  -14.0687  -32.6068 C.ar    1  UNL1       -0.0162
     21 C           5.4035  -10.3602  -33.2831 C.3     1  UNL1        0.0393
     22 O           0.3689  -11.0498  -34.1297 O.3     1  UNL1       -0.4886
     23 O          -0.0848  -13.7642  -33.9961 O.3     1  UNL1       -0.5033
     24 O           2.8126  -11.6715  -37.0629 O.3     1  UNL1       -0.3927
     25 O           5.2315   -9.3664  -35.5231 O.3     1  UNL1       -0.3760
     26 C           4.8868   -9.1741  -34.1363 C.3     1  UNL1        0.0635
     27 C           3.8494  -11.2421  -36.1858 C.3     1  UNL1        0.0676
     28 C           0.6864   -9.7300  -34.6179 C.3     1  UNL1        0.0870
     29 C           4.1376   -9.7409  -36.3868 C.3     1  UNL1        0.0708
     30 C          -0.0804   -8.6775  -33.7846 C.3     1  UNL1       -0.0307
     31 H           5.0978  -12.3729  -31.2221 H       1  UNL1        0.0602
     32 H           2.5275  -10.2937  -32.7369 H       1  UNL1        0.0659
     33 H           3.5729  -14.1560  -31.3960 H       1  UNL1        0.0622
     34 H           3.2764  -14.9190  -29.0676 H       1  UNL1        0.0656
     35 H           6.8845  -14.4572  -27.0124 H       1  UNL1        0.1029
     36 H           5.3161  -16.2392  -27.9637 H       1  UNL1        0.0649
     37 H           1.6546  -15.0831  -32.5671 H       1  UNL1        0.0655
     38 H           5.0791  -11.2721  -33.7392 H       1  UNL1        0.0487
     39 H           6.4700  -10.2814  -33.2475 H       1  UNL1        0.0487
     40 H          -0.6265  -13.2176  -34.5308 H       1  UNL1        0.2923
     41 H           2.7150  -12.6346  -37.0011 H       1  UNL1        0.2095
     42 H           5.3316   -8.2666  -33.7849 H       1  UNL1        0.0575
     43 H           3.8220   -9.1196  -34.0472 H       1  UNL1        0.0575
     44 H           4.7381  -11.8020  -36.3900 H       1  UNL1        0.0580
     45 H           3.5371  -11.4028  -35.1751 H       1  UNL1        0.0580
     46 H           0.3990   -9.6505  -35.6455 H       1  UNL1        0.0694
     47 H           1.7389   -9.5591  -34.5293 H       1  UNL1        0.0694
     48 H           4.4038   -9.5575  -37.4069 H       1  UNL1        0.0583
     49 H           3.2679   -9.1648  -36.1487 H       1  UNL1        0.0583
     50 H          -1.1327   -8.8493  -33.8740 H       1  UNL1        0.0262
     51 H           0.1530   -7.6976  -34.1457 H       1  UNL1        0.0262
     52 H           0.2079   -8.7570  -32.7572 H       1  UNL1        0.0262
@<TRIPOS>BOND
     1     1     3    2
     2     1     5    1
     3     1     6    1
     4     2     4   am
     5     2     5    1
     6     2    21    1
     7     3     4    1
     8     3    17    1
     9     4    11    2
    10     5     7    1
    11     6     8    1
    12     6    14    2
    13     7     9   ar
    14     7    13   ar
    15     8    12   ar
    16     8    16   ar
    17     9    10   ar
    18    10    15   ar
    19    10    22    1
    20    12    18   ar
    21    13    20   ar
    22    15    20   ar
    23    15    23    1
    24    16    19   ar
    25    18    19   ar
    26    21    26    1
    27    22    28    1
    28    24    27    1
    29    25    26    1
    30    25    29    1
    31    27    29    1
    32    28    30    1
    33     5    31    1
    34     9    32    1
    35    13    33    1
    36    16    34    1
    37    18    35    1
    38    19    36    1
    39    20    37    1
    40    21    38    1
    41    21    39    1
    42    23    40    1
    43    24    41    1
    44    26    42    1
    45    26    43    1
    46    27    44    1
    47    27    45    1
    48    28    46    1
    49    28    47    1
    50    29    48    1
    51    29    49    1
    52    30    50    1
    53    30    51    1
    54    30    52    1
@<TRIPOS>SUBSTRUCTURE
     1 UNL1        1 TEMP              0 ****  ****    0 ROOT


