##########                                Name: HTS1710-00147674-01
##########                    Molecular_Weight:             215.079
##########                DOCK_Rotatable_Bonds:                   3
##########                       Formal_Charge:                  -3
##########                     HBond_Acceptors:                   6
##########                        HBond_Donors:                   0
##########                         Heavy_Atoms:                  14
##########                          Grid_Score:          -79.567764
##########                     Grid_vdw_energy:          -22.267006
##########                      Grid_es_energy:          -57.300758
##########           Internal_energy_repulsive:            7.335911

@<TRIPOS>MOLECULE
HTS1710-00147674-01
 18 18 1 0 0
SMALL
USER_CHARGES


@<TRIPOS>ATOM
      1 P           3.3910  -10.0738  -28.9310 P.3     1  UNL1        0.0441
      2 C           4.7890   -9.8264  -32.3384 C.ar    1  UNL1        0.0392
      3 C           3.7149  -10.3877  -31.6017 C.ar    1  UNL1        0.1321
      4 C           5.3944   -8.4905  -31.9863 C.2     1  UNL1        0.0752
      5 O           3.2131   -9.7066  -30.5032 O.3     1  UNL1       -0.4814
      6 O           2.1612  -10.7500  -28.4359 O.2     1  UNL1       -0.6291
      7 O           5.1387   -8.0426  -30.8805 O.co2   1  UNL1       -0.5445
      8 O           4.5565  -10.9834  -28.7712 O.co2   1  UNL1       -0.5675
      9 O           3.6213   -8.8278  -28.1517 O.co2   1  UNL1       -0.5675
     10 O           6.1164   -7.9582  -32.8121 O.co2   1  UNL1       -0.5445
     11 C           5.3208  -10.5334  -33.4350 C.ar    1  UNL1       -0.0494
     12 C           3.1911  -11.6435  -31.9897 C.ar    1  UNL1       -0.0190
     13 C           4.7938  -11.7780  -33.8086 C.ar    1  UNL1       -0.0609
     14 C           3.7286  -12.3308  -33.0874 C.ar    1  UNL1       -0.0583
     15 H           6.1067  -10.1309  -33.9691 H       1  UNL1        0.0625
     16 H           2.4072  -12.0569  -31.4607 H       1  UNL1        0.0654
     17 H           5.1906  -12.2860  -34.6145 H       1  UNL1        0.0618
     18 H           3.3386  -13.2454  -33.3640 H       1  UNL1        0.0619
@<TRIPOS>BOND
     1     2     3   ar
     2     3     5    1
     3     2     4    1
     4     1     5    1
     5     1     6    2
     6     4     7   ar
     7     1     8    1
     8     1     9    1
     9     4    10   ar
    10     2    11   ar
    11     3    12   ar
    12    13    14   ar
    13    12    14   ar
    14    11    13   ar
    15    11    15    1
    16    12    16    1
    17    13    17    1
    18    14    18    1
@<TRIPOS>SUBSTRUCTURE
     1 UNL1        1 TEMP              0 ****  ****    0 ROOT


