##########                                Name: HTS1710-00384858-01
##########                    Molecular_Weight:              327.32
##########                DOCK_Rotatable_Bonds:                   6
##########                       Formal_Charge:                  -2
##########                     HBond_Acceptors:                   8
##########                        HBond_Donors:                   0
##########                         Heavy_Atoms:                  24
##########                          Grid_Score:          -76.752228
##########                     Grid_vdw_energy:          -36.084503
##########                      Grid_es_energy:          -40.667721
##########           Internal_energy_repulsive:           10.254793

@<TRIPOS>MOLECULE
HTS1710-00384858-01
 39 41 1 0 0
SMALL
USER_CHARGES


@<TRIPOS>ATOM
      1 C           4.8456  -13.4048  -28.9207 C.3     1  UNL1        0.0035
      2 N           4.0282  -12.2683  -29.3918 N.am    1  UNL1       -0.2998
      3 C           4.2393  -10.9988  -28.6732 C.3     1  UNL1        0.0266
      4 C           4.1693   -9.8331  -29.6232 C.2     1  UNL1       -0.0998
      5 C           3.1675   -8.9006  -29.6219 C.2     1  UNL1       -0.0630
      6 C           3.5455   -7.9581  -30.6135 C.2     1  UNL1       -0.0144
      7 C           2.7873   -6.7432  -30.9958 C.2     1  UNL1        0.0708
      8 O           2.8007   -5.7875  -30.2399 O.co2   1  UNL1       -0.5447
      9 O           2.1860   -6.7772  -32.0542 O.co2   1  UNL1       -0.5447
     10 C           4.7477   -8.4451  -31.0899 C.2     1  UNL1       -0.1120
     11 C           5.5915   -7.8058  -32.1615 C.3     1  UNL1       -0.0524
     12 O           5.1838   -9.6099  -30.5117 O.co2   1  UNL1       -0.7845
     13 C           2.9792  -12.3918  -30.3080 C.2     1  UNL1        0.2371
     14 O           2.1476  -11.5135  -30.4615 O.2     1  UNL1       -0.2736
     15 C           2.8269  -13.7489  -31.0157 C.3     1  UNL1        0.1201
     16 N           2.0017  -13.6489  -32.2306 N.ar    1  UNL1       -0.2351
     17 N           0.8442  -14.3909  -32.4146 N.ar    1  UNL1       -0.0641
     18 N           0.2722  -13.9853  -33.5595 N.ar    1  UNL1       -0.1295
     19 C           1.0615  -13.0098  -34.0688 C.ar    1  UNL1        0.1127
     20 C           0.8794  -12.2863  -35.2532 C.ar    1  UNL1       -0.0324
     21 C           1.8600  -11.3264  -35.5889 C.ar    1  UNL1       -0.0596
     22 C           2.9856  -11.1196  -34.7520 C.ar    1  UNL1       -0.0596
     23 C           3.1360  -11.8628  -33.5625 C.ar    1  UNL1       -0.0345
     24 C           2.1300  -12.7913  -33.2740 C.ar    1  UNL1        0.0895
     25 H           5.5801  -13.0524  -28.2269 H       1  UNL1        0.0429
     26 H           5.3341  -13.8629  -29.7552 H       1  UNL1        0.0429
     27 H           4.2148  -14.1222  -28.4387 H       1  UNL1        0.0429
     28 H           5.2022  -11.0148  -28.2069 H       1  UNL1        0.0502
     29 H           3.4721  -10.8886  -27.9356 H       1  UNL1        0.0502
     30 H           2.3225   -8.8860  -29.0296 H       1  UNL1        0.0615
     31 H           5.1141   -6.9122  -32.5056 H       1  UNL1        0.0266
     32 H           5.7057   -8.4866  -32.9791 H       1  UNL1        0.0266
     33 H           6.5539   -7.5646  -31.7611 H       1  UNL1        0.0266
     34 H           2.3663  -14.4402  -30.3413 H       1  UNL1        0.0606
     35 H           3.8018  -14.0812  -31.3054 H       1  UNL1        0.0606
     36 H           0.0594  -12.4480  -35.8585 H       1  UNL1        0.0640
     37 H           1.7559  -10.7702  -36.4519 H       1  UNL1        0.0618
     38 H           3.6988  -10.4214  -35.0146 H       1  UNL1        0.0618
     39 H           3.9462  -11.7286  -32.9374 H       1  UNL1        0.0639
@<TRIPOS>BOND
     1     1     2    1
     2     2     3    1
     3     3     4    1
     4     4     5    2
     5     5     6    1
     6     6     7    1
     7     7     8   ar
     8     7     9   ar
     9     6    10    2
    10    10    11    1
    11    10    12    1
    12     4    12    1
    13     2    13   am
    14    13    14    2
    15    13    15    1
    16    15    16    1
    17    16    17   ar
    18    17    18   ar
    19    18    19   ar
    20    19    20   ar
    21    20    21   ar
    22    21    22   ar
    23    22    23   ar
    24    23    24   ar
    25    16    24   ar
    26    19    24   ar
    27     1    25    1
    28     1    26    1
    29     1    27    1
    30     3    28    1
    31     3    29    1
    32     5    30    1
    33    11    31    1
    34    11    32    1
    35    11    33    1
    36    15    34    1
    37    15    35    1
    38    20    36    1
    39    21    37    1
    40    22    38    1
    41    23    39    1
@<TRIPOS>SUBSTRUCTURE
     1 UNL1        1 TEMP              0 ****  ****    0 ROOT


