##########                                Name: HTS1710-02169109-01
##########                    Molecular_Weight:             384.367
##########                DOCK_Rotatable_Bonds:                  10
##########                       Formal_Charge:                  -2
##########                     HBond_Acceptors:                  11
##########                        HBond_Donors:                   1
##########                         Heavy_Atoms:                  26
##########                          Grid_Score:          -81.216537
##########                     Grid_vdw_energy:          -42.954834
##########                      Grid_es_energy:          -38.261707
##########           Internal_energy_repulsive:           14.118592

@<TRIPOS>MOLECULE
HTS1710-02169109-01
 42 43 1 0 0
SMALL
USER_CHARGES


@<TRIPOS>ATOM
      1 N           3.7279  -11.7288  -30.9879 N.am    1  UNL1       -0.2533
      2 C           3.9002  -10.7287  -31.9263 C.2     1  UNL1        0.2438
      3 C           3.8714  -12.8255  -31.9510 C.3     1  UNL1        0.1041
      4 CA          4.1722  -11.7552  -33.0615 C.3     1  UNL1        0.1283
      5 CA          3.3649  -11.9587  -29.5994 C.2     1  UNL1        0.0631
      6 S           2.2462  -13.6853  -31.8716 S.3     1  UNL1       -0.1310
      7 C           2.8534  -13.1833  -29.2349 C.2     1  UNL1        0.0004
      8 N           3.1437  -11.6939  -34.1053 N.am    1  UNL1       -0.3017
      9 C           3.5750  -10.8073  -28.6285 C.2     1  UNL1        0.0860
     10 C           2.6281  -14.3486  -30.2023 C.3     1  UNL1        0.0219
     11 O           3.8001   -9.5253  -31.7654 O.2     1  UNL1       -0.2731
     12 C           3.2762  -10.8842  -35.2238 C.2     1  UNL1        0.2137
     13 C           2.4659  -13.5986  -27.8191 C.3     1  UNL1        0.1164
     14 C           4.8261  -13.9333  -27.3940 C.2     1  UNL1        0.3043
     15 C           0.5531   -9.0153  -33.8094 C.2     1  UNL1        0.0418
     16 O           2.7524  -10.6035  -27.7542 O.co2   1  UNL1       -0.5433
     17 O           3.6185  -13.4595  -26.9666 O.3     1  UNL1       -0.4603
     18 O           4.2802  -10.2069  -35.3686 O.2     1  UNL1       -0.2758
     19 O           5.7442  -13.2412  -27.8028 O.2     1  UNL1       -0.2512
     20 O           0.3500   -9.8534  -32.9471 O.co2   1  UNL1       -0.5498
     21 OXT         4.5784  -10.1317  -28.7697 O.co2   1  UNL1       -0.5433
     22 O           0.9646   -7.8851  -33.6119 O.co2   1  UNL1       -0.5498
     23 C           2.1479  -10.8879  -36.2601 C.3     1  UNL1        0.0243
     24 C           0.2631   -9.4123  -35.2637 C.3     1  UNL1       -0.0128
     25 C           0.7404  -10.8459  -35.6115 C.3     1  UNL1       -0.0397
     26 C           4.8875  -15.4561  -27.2945 C.3     1  UNL1        0.0332
     27 H           4.5504  -13.6525  -31.9451 H       1  UNL1        0.0644
     28 H           5.0571  -11.7727  -33.6627 H       1  UNL1        0.0622
     29 H           2.3336  -12.2450  -34.0090 H       1  UNL1        0.1495
     30 H           3.5120  -14.9497  -30.2501 H       1  UNL1        0.0424
     31 H           1.8105  -14.9473  -29.8585 H       1  UNL1        0.0424
     32 H           2.1388  -14.6173  -27.8193 H       1  UNL1        0.0746
     33 H           1.6704  -12.9787  -27.4616 H       1  UNL1        0.0746
     34 H           2.2271  -11.7776  -36.8492 H       1  UNL1        0.0358
     35 H           2.2549  -10.0070  -36.8580 H       1  UNL1        0.0358
     36 H           0.7617   -8.7213  -35.9109 H       1  UNL1        0.0325
     37 H          -0.7987   -9.3900  -35.3940 H       1  UNL1        0.0325
     38 H           0.7652  -11.4227  -34.7106 H       1  UNL1        0.0273
     39 H           0.0515  -11.2423  -36.3277 H       1  UNL1        0.0273
     40 H           3.9607  -15.8260  -26.9085 H       1  UNL1        0.0342
     41 H           5.6849  -15.7388  -26.6395 H       1  UNL1        0.0342
     42 H           5.0601  -15.8704  -28.2658 H       1  UNL1        0.0342
@<TRIPOS>BOND
     1     1     2   am
     2     1     3    1
     3     1     5    1
     4     2     4    1
     5     2    11    2
     6     3     4    1
     7     3     6    1
     8     4     8    1
     9     5     7    2
    10     5     9    1
    11     6    10    1
    12     7    10    1
    13     7    13    1
    14     8    12   am
    15     9    16   ar
    16     9    21   ar
    17    12    18    2
    18    12    23    1
    19    13    17    1
    20    14    17    1
    21    14    19    2
    22    14    26    1
    23    15    20   ar
    24    15    22   ar
    25    15    24    1
    26    23    25    1
    27    24    25    1
    28     3    27    1
    29     4    28    1
    30     8    29    1
    31    10    30    1
    32    10    31    1
    33    13    32    1
    34    13    33    1
    35    23    34    1
    36    23    35    1
    37    24    36    1
    38    24    37    1
    39    25    38    1
    40    25    39    1
    41    26    40    1
    42    26    41    1
    43    26    42    1
@<TRIPOS>SUBSTRUCTURE
     1 UNL1        1 TEMP              0 ****  ****    0 ROOT


