PubChem-136494086


 38 41  0  0  0  0  0  0  0  0999 V2000
   -0.3010   26.5026   64.9762 C   0  0  0  0  0
    1.2541   28.0380   63.8724 C   0  0  0  0  0
    1.5125   28.6752   62.4960 C   0  0  0  0  0
    1.8618   27.6599   61.4059 C   0  0  0  0  0
    1.0200   26.3830   61.4547 C   0  0  0  0  0
    0.7848   25.8535   62.8800 C   0  0  0  0  0
    2.0675   25.2117   63.5084 C   0  0  0  0  0
    3.1629   26.2474   63.8996 C   0  0  0  0  0
    2.5646   27.5251   64.5593 C   0  0  0  0  0
    0.6102   28.7991   59.4901 C   0  0  0  0  0
    0.6853   29.3949   58.1432 C   0  0  0  0  0
    0.3130   30.3562   56.2031 C   0  0  0  0  0
   -0.3204   29.9658   57.3627 C   0  0  0  0  0
   -1.6958   30.1776   57.5479 C   0  0  0  0  0
   -2.4169   30.8025   56.5136 C   0  0  0  0  0
   -1.7671   31.2018   55.3267 C   0  0  0  0  0
   -0.3884   30.9810   55.1599 C   0  0  0  0  0
    2.6800   30.2628   55.2876 C   0  0  0  0  0
    0.2550   26.9630   63.6999 N   0  0  0  0  0
    1.8038   28.2730   60.0835 N   0  0  0  0  0
    1.8480   29.4573   57.4550 N   0  0  0  0  0
    1.6258   30.0379   56.2822 N   0  0  0  0  0
    3.5228   28.5449   64.5314 O   0  0  0  0  0
    2.2858   27.2457   65.9029 O   0  0  0  0  0
    3.9139   26.5979   62.7729 O   0  0  0  0  0
    4.0473   25.6465   64.8040 O   0  0  0  0  0
    2.6096   24.2947   62.6006 O   0  0  0  0  0
    1.6957   24.4996   64.6554 O   0  0  0  0  0
   -0.1960   24.8606   62.7652 O   0  0  0  0  0
   -0.4781   28.7470   60.1198 O   0  0  0  0  0
    0.2398   31.3789   53.9862 O   0  0  0  0  0
   -2.4950   31.8181   54.3147 O   0  0  0  0  0
   -3.7809   31.0285   56.6623 O   0  0  0  0  0
   -2.3538   29.7924   58.7078 O   0  0  0  0  0
    3.9012   29.7828   55.7661 O   0  0  0  0  0
    2.3662   29.5910   54.1056 O   0  0  0  0  0
    2.8046   31.6288   55.0312 O   0  0  0  0  0
    0.7043   29.0503   64.6685 O   0  0  0  0  0
  1 19  1  0  0  0
  2 19  1  0  0  0
  2  3  1  0  0  0
  2 38  1  0  0  0
  3  4  1  0  0  0
  4  5  1  0  0  0
  4 20  1  0  0  0
  5  6  1  0  0  0
  6  7  1  0  0  0
  6 29  1  0  0  0
  6 19  1  0  0  0
  7  8  1  0  0  0
  7 27  1  0  0  0
  7 28  1  0  0  0
  8  9  1  0  0  0
  8 25  1  0  0  0
  8 26  1  0  0  0
  9 23  1  0  0  0
  9 24  1  0  0  0
  9  2  1  0  0  0
 10 11  1  0  0  0
 13 14  1  0  0  0
 13 11  1  0  0  0
 14 34  1  0  0  0
 15 16  1  0  0  0
 15 33  1  0  0  0
 16 32  1  0  0  0
 17 31  1  0  0  0
 17 12  1  0  0  0
 18 22  1  0  0  0
 18 35  1  0  0  0
 18 36  1  0  0  0
 18 37  1  0  0  0
 20 10  1  0  0  0
 22 21  1  0  0  0
 22 12  1  0  0  0
 10 30  2  0  0  0
 11 21  2  0  0  0
 12 13  2  0  0  0
 14 15  2  0  0  0
 16 17  2  0  0  0
M  END
> <rmsd>
0.802958369

$$$$
PubChem-71222092


 41 44  0  0  0  0  0  0  0  0999 V2000
    4.1221   21.8176   61.9007 C   0  0  0  0  0
    3.2059   21.0807   61.1518 C   0  0  0  0  0
    2.0782   21.7078   60.6256 C   0  0  0  0  0
    1.8415   23.0754   60.8436 C   0  0  0  0  0
    2.7560   23.8152   61.6362 C   0  0  0  0  0
    3.8987   23.1743   62.1371 C   0  0  0  0  0
    3.2352   26.0289   62.8506 C   0  0  0  0  0
    2.8603   27.4416   62.9864 C   0  0  0  0  0
    3.4656   28.2208   63.8873 C   0  0  0  0  0
    3.1090   29.6688   63.9992 C   0  0  0  0  0
    1.6289   29.8937   63.6834 C   0  0  0  0  0
    1.2732   29.2652   62.3337 C   0  0  0  0  0
    0.6781   30.0289   60.3324 C   0  0  0  0  0
    1.2535   29.6366   58.9639 C   0  0  0  0  0
    2.3590   30.5743   58.4953 C   0  0  0  0  0
    1.7548   31.2269   57.2780 C   0  0  0  0  0
    0.6759   30.2554   56.8612 C   0  0  0  0  0
   -1.2351   31.7788   56.9655 C   0  0  0  0  0
   -2.3092   32.4462   56.3820 C   0  0  0  0  0
   -2.5413   32.2553   55.0219 C   0  0  0  0  0
   -0.6863   30.7916   54.8886 C   0  0  0  0  0
    3.6046   29.7534   58.1774 C   0  0  0  0  0
   -0.1064   31.3086   60.3035 C   0  0  0  0  0
    2.5191   25.2034   61.9216 N   0  0  0  0  0
   -0.4385   30.9589   56.2250 N   0  0  0  0  0
   -1.7281   31.4399   54.3040 N   0  0  0  0  0
    0.5384   32.5602   60.0687 N   0  0  0  0  0
    0.6635   23.6777   60.2768 N   0  0  0  0  0
    4.1426   25.5435   63.5786 O   0  0  0  0  0
    1.8437   27.9590   62.1705 O   0  0  0  0  0
    1.6932   30.0991   61.2943 O   0  0  0  0  0
    0.2286   29.5498   57.9971 O   0  0  0  0  0
   -3.5048   32.8387   54.4635 O   0  0  0  0  0
    0.0481   30.0430   54.1867 O   0  0  0  0  0
    2.6775   31.4198   56.2426 O   0  0  0  0  0
    4.1740   29.2727   59.3588 O   0  0  0  0  0
   -1.3443   31.2787   60.5181 O   0  0  0  0  0
    0.8240   29.3407   64.6823 O   0  0  0  0  0
    3.4129   30.1347   65.2811 O   0  0  0  0  0
   -0.2294   22.9549   59.7863 O   0  0  0  0  0
    0.5297   25.0450   60.1868 O   0  0  0  0  0
  2  3  1  0  0  0
  4  5  1  0  0  0
  4 28  1  0  0  0
  5 24  1  0  0  0
  6  1  1  0  0  0
  7  8  1  0  0  0
  8 30  1  0  0  0
 10  9  1  0  0  0
 10 11  1  0  0  0
 10 39  1  0  0  0
 11 12  1  0  0  0
 11 38  1  0  0  0
 12 30  1  0  0  0
 12 31  1  0  0  0
 13 31  1  0  0  0
 13 14  1  0  0  0
 13 23  1  0  0  0
 14 15  1  0  0  0
 14 32  1  0  0  0
 15 16  1  0  0  0
 15 22  1  0  0  0
 16 17  1  0  0  0
 16 35  1  0  0  0
 17 32  1  0  0  0
 17 25  1  0  0  0
 19 20  1  0  0  0
 20 26  1  0  0  0
 21 25  1  0  0  0
 22 36  1  0  0  0
 23 27  1  0  0  0
 24  7  1  0  0  0
 25 18  1  0  0  0
 26 21  1  0  0  0
 28 41  1  0  0  0
  1  2  2  0  0  0
  3  4  2  0  0  0
  5  6  2  0  0  0
  7 29  2  0  0  0
  8  9  2  0  0  0
 18 19  2  0  0  0
 20 33  2  0  0  0
 21 34  2  0  0  0
 23 37  2  0  0  0
 28 40  2  0  0  0
M  CHG  2  28   1  41  -1
M  END
> <rmsd>
0.737453818

$$$$
PubChem-130461674


 39 44  0  0  0  0  0  0  0  0999 V2000
    0.2561   27.4023   62.2916 C   0  0  0  0  0
    0.8980   26.2861   61.7480 C   0  0  0  0  0
    2.1420   25.8826   62.2426 C   0  0  0  0  0
    2.7464   26.5994   63.2841 C   0  0  0  0  0
    2.1034   27.7159   63.8263 C   0  0  0  0  0
    0.8536   28.1166   63.3350 C   0  0  0  0  0
    0.1732   29.3291   63.8796 C   0  0  0  0  0
    0.9188   30.6502   63.4228 C   0  0  0  0  0
    0.3478   31.9079   64.1269 C   0  0  0  0  0
    0.2435   31.5185   65.4622 C   0  0  0  0  0
    1.1162   32.5245   65.8008 C   0  0  0  0  0
    1.6191   32.6488   67.0891 C   0  0  0  0  0
    1.2807   31.5608   67.9602 C   0  0  0  0  0
    0.6150   30.3807   67.4624 C   0  0  0  0  0
    0.1569   30.3517   66.1237 C   0  0  0  0  0
    1.9528   30.7749   61.1910 C   0  0  0  0  0
    1.7949   30.8656   59.7262 C   0  0  0  0  0
    2.9351   30.8471   58.9529 C   0  0  0  0  0
    3.1180   30.9101   57.5852 C   0  0  0  0  0
    2.1418   31.0141   56.5771 C   0  0  0  0  0
    0.7177   31.0786   56.7104 C   0  0  0  0  0
    0.0040   31.0482   57.9517 C   0  0  0  0  0
    0.5106   30.9555   59.2361 C   0  0  0  0  0
   -1.3916   31.1160   57.9633 C   0  0  0  0  0
   -2.1310   31.2137   56.7994 C   0  0  0  0  0
   -1.4794   31.2467   55.5777 C   0  0  0  0  0
   -0.0825   31.1817   55.5185 C   0  0  0  0  0
    1.2662   32.9216   64.4259 O   0  0  0  0  0
    0.0118   29.2149   65.3238 O   0  0  0  0  0
    1.6747   31.6080   69.2902 O   0  0  0  0  0
    0.8231   30.8022   62.0140 O   0  0  0  0  0
    3.1029   30.6640   61.7013 O   0  0  0  0  0
    4.3230   30.8671   57.2160 O   0  0  0  0  0
    0.4825   31.2221   54.2464 O   0  0  0  0  0
   -2.2214   31.3454   54.4049 O   0  0  0  0  0
   -3.5174   31.2778   56.8644 O   0  0  0  0  0
    2.6836   31.0558   55.2921 O   0  0  0  0  0
    3.9833   26.2088   63.7811 O   0  0  0  0  0
    2.7725   24.7719   61.6960 O   0  0  0  0  0
  2  3  1  0  0  0
  3 39  1  0  0  0
  4  5  1  0  0  0
  4 38  1  0  0  0
  6  1  1  0  0  0
  7  6  1  0  0  0
  7  8  1  0  0  0
  7 29  1  0  0  0
  8  9  1  0  0  0
  8 31  1  0  0  0
  9 10  1  0  0  0
  9 28  1  0  0  0
 11 28  1  0  0  0
 11 12  1  0  0  0
 13 14  1  0  0  0
 13 30  1  0  0  0
 15 29  1  0  0  0
 15 10  1  0  0  0
 16 31  1  0  0  0
 16 17  1  0  0  0
 18 19  1  0  0  0
 19 20  1  0  0  0
 20 37  1  0  0  0
 21 22  1  0  0  0
 22 24  1  0  0  0
 23 17  1  0  0  0
 25 26  1  0  0  0
 25 36  1  0  0  0
 26 35  1  0  0  0
 27 34  1  0  0  0
 27 21  1  0  0  0
  1  2  2  0  0  0
  3  4  2  0  0  0
  5  6  2  0  0  0
 10 11  2  0  0  0
 12 13  2  0  0  0
 14 15  2  0  0  0
 16 32  2  0  0  0
 17 18  2  0  0  0
 19 33  2  0  0  0
 20 21  2  0  0  0
 22 23  2  0  0  0
 24 25  2  0  0  0
 26 27  2  0  0  0
M  END
> <rmsd>
0.674402654

$$$$
PubChem-160698143 PubChem-9867013 MolPort-016-581-139 ZINC000044171668 ZINC44171668


 29 31  0  0  0  0  0  0  0  0999 V2000
    0.6945   29.1231   64.6010 O   0  0  0  0  0
    2.3095   28.0940   62.4756 O   0  0  0  0  0
    2.5365   28.3840   60.2179 O   0  0  0  0  0
    0.5023   29.3560   57.4093 O   0  0  0  0  0
    2.9040   31.2741   55.8787 O   0  0  0  0  0
    3.8211   30.2642   58.0624 O   0  0  0  0  0
   -3.6495   33.2015   55.1021 O   0  0  0  0  0
   -0.2822   30.4326   53.8797 O   0  0  0  0  0
    2.6493   25.5904   59.8728 O   0  0  0  0  0
    3.2371   24.1131   62.2832 O   0  0  0  0  0
    3.6897   26.1806   64.0398 O   0  0  0  0  0
    1.5192   28.0071   64.7437 C   0  0  0  0  0
    1.6420   27.2828   63.4133 C   0  0  0  0  0
    2.1053   27.5047   61.2130 C   0  0  0  0  0
    1.3692   28.7731   59.5568 C   0  0  0  0  0
    1.6924   29.1866   58.1316 C   0  0  0  0  0
    0.8015   30.2966   56.4075 C   0  0  0  0  0
    1.9302   31.1941   56.8787 C   0  0  0  0  0
    2.4440   30.4984   58.1168 C   0  0  0  0  0
   -1.0290   31.7919   57.0391 C   0  0  0  0  0
   -2.1643   32.5384   56.7340 C   0  0  0  0  0
   -2.6268   32.5379   55.4184 C   0  0  0  0  0
   -0.8629   31.0903   54.7852 C   0  0  0  0  0
    2.8821   26.1842   61.1141 C   0  0  0  0  0
    2.4166   25.2414   62.2266 C   0  0  0  0  0
    2.3868   25.9528   63.5832 C   0  0  0  0  0
   -0.3880   31.0794   56.0682 N   0  0  0  0  0
   -1.9703   31.8160   54.4742 N   0  0  0  0  0
   -2.7981   33.2471   57.7011 F   0  0  0  0  0
 12  1  1  0  0  0
 13 12  1  0  0  0
 13  2  1  0  0  0
 14  2  1  0  0  0
 14  3  1  0  0  0
 14 24  1  0  0  0
 15  3  1  0  0  0
 16 15  1  0  0  0
 16  4  1  0  0  0
 17  4  1  0  0  0
 17 18  1  0  0  0
 17 27  1  0  0  0
 18  5  1  0  0  0
 18 19  1  0  0  0
 19  6  1  0  0  0
 19 16  1  0  0  0
 21 29  1  0  0  0
 21 22  1  0  0  0
 22 28  1  0  0  0
 23 27  1  0  0  0
 24  9  1  0  0  0
 24 25  1  0  0  0
 25 10  1  0  0  0
 25 26  1  0  0  0
 26 11  1  0  0  0
 26 13  1  0  0  0
 27 20  1  0  0  0
 28 23  1  0  0  0
 20 21  2  0  0  0
 22  7  2  0  0  0
 23  8  2  0  0  0
M  END
> <rmsd>
0.494345933

$$$$
PubChem-439349


 34 36  0  0  0  0  0  0  0  0999 V2000
    5.5141   25.5513   64.2997 C   0  0  0  0  0
    5.7132   24.6424   63.0854 C   0  0  0  0  0
    4.9465   25.2032   61.8785 C   0  0  0  0  0
    3.5179   25.5837   62.2751 C   0  0  0  0  0
    3.5447   26.3876   63.5852 C   0  0  0  0  0
    2.4702   30.3588   59.7239 C   0  0  0  0  0
    1.8114   31.2693   58.7021 C   0  0  0  0  0
    2.8491   31.8972   57.8031 C   0  0  0  0  0
    2.1399   32.0221   56.4970 C   0  0  0  0  0
    1.0290   30.9972   56.5944 C   0  0  0  0  0
   -0.8194   32.5874   56.8013 C   0  0  0  0  0
   -2.0341   33.1201   56.3759 C   0  0  0  0  0
   -2.6417   32.5646   55.2541 C   0  0  0  0  0
   -0.8644   31.0186   55.0311 C   0  0  0  0  0
    4.1453   25.6361   64.6123 O   0  0  0  0  0
    2.2477   26.7501   63.9591 O   0  0  0  0  0
    3.1030   29.0337   64.9119 O   0  0  0  0  0
    0.6080   28.9451   64.1277 O   0  0  0  0  0
    2.7144   28.9149   62.2953 O   0  0  0  0  0
    1.0996   31.0127   62.2961 O   0  0  0  0  0
    3.4475   31.3740   63.3936 O   0  0  0  0  0
    3.1522   31.1202   60.6770 O   0  0  0  0  0
    0.9117   30.5260   57.9181 O   0  0  0  0  0
   -3.7387   33.0212   54.8413 O   0  0  0  0  0
   -0.3471   30.0547   54.4044 O   0  0  0  0  0
    3.0039   31.6842   55.4563 O   0  0  0  0  0
    3.1876   33.1635   58.2793 O   0  0  0  0  0
    2.7459   24.4297   62.4285 O   0  0  0  0  0
    5.5994   26.3251   61.3603 O   0  0  0  0  0
    7.0725   24.5232   62.7932 O   0  0  0  0  0
    2.2002   28.4428   63.8505 P   0  0  0  0  0
    2.5530   30.6076   62.1787 P   0  0  0  0  0
   -0.2446   31.5487   56.1290 N   0  0  0  0  0
   -2.0501   31.5293   54.6058 N   0  0  0  0  0
  1  2  1  0  0  0
  1 15  1  0  0  0
  2  3  1  0  0  0
  2 30  1  0  0  0
  3  4  1  0  0  0
  3 29  1  0  0  0
  4  5  1  0  0  0
  4 28  1  0  0  0
  5 15  1  0  0  0
  5 16  1  0  0  0
  6 22  1  0  0  0
  7  6  1  0  0  0
  7  8  1  0  0  0
  7 23  1  0  0  0
  8  9  1  0  0  0
  8 27  1  0  0  0
  9 10  1  0  0  0
  9 26  1  0  0  0
 10 23  1  0  0  0
 10 33  1  0  0  0
 12 13  1  0  0  0
 13 34  1  0  0  0
 14 33  1  0  0  0
 31 16  1  0  0  0
 31 18  1  0  0  0
 31 19  1  0  0  0
 32 19  1  0  0  0
 32 21  1  0  0  0
 32 22  1  0  0  0
 33 11  1  0  0  0
 34 14  1  0  0  0
 11 12  2  0  0  0
 13 24  2  0  0  0
 14 25  2  0  0  0
 31 17  2  0  0  0
 32 20  2  0  0  0
M  END
> <rmsd>
0.720112562

$$$$
PubChem-11966154


 35 37  0  0  0  0  0  0  0  0999 V2000
   -0.6518   25.6312   65.9953 C   0  0  0  0  0
    0.7436   25.6185   65.3956 C   0  0  0  0  0
    0.7848   24.7364   64.1377 C   0  0  0  0  0
    2.2036   24.7377   63.5646 C   0  0  0  0  0
    2.7540   26.1573   63.4458 C   0  0  0  0  0
    2.4890   26.9101   64.7601 C   0  0  0  0  0
    1.7723   28.3460   59.3747 C   0  0  0  0  0
    2.1874   28.6535   57.9395 C   0  0  0  0  0
    2.9636   29.9565   57.8683 C   0  0  0  0  0
    2.0355   30.8669   57.1153 C   0  0  0  0  0
    1.1576   29.8990   56.3585 C   0  0  0  0  0
   -0.9839   30.7816   57.1495 C   0  0  0  0  0
   -2.2361   31.3495   56.9257 C   0  0  0  0  0
   -2.6247   31.5911   55.6112 C   0  0  0  0  0
   -0.5772   30.7078   54.8201 C   0  0  0  0  0
    1.1144   26.9363   65.0766 O   0  0  0  0  0
    3.0840   28.1925   64.8037 O   0  0  0  0  0
    0.9230   29.6724   64.5246 O   0  0  0  0  0
    3.1728   30.7012   63.6934 O   0  0  0  0  0
    1.8934   28.6406   62.3016 O   0  0  0  0  0
    2.6120   30.7861   60.9380 O   0  0  0  0  0
    0.2132   30.8524   61.9755 O   0  0  0  0  0
    0.8061   29.2549   59.8205 O   0  0  0  0  0
    1.0520   28.7108   57.1017 O   0  0  0  0  0
   -3.7386   32.1285   55.3701 O   0  0  0  0  0
    0.1685   30.4204   53.8443 O   0  0  0  0  0
    2.7172   31.7058   56.2297 O   0  0  0  0  0
    4.1468   29.7381   57.1592 O   0  0  0  0  0
    4.1263   26.1051   63.1942 O   0  0  0  0  0
    2.2091   24.1216   62.3115 O   0  0  0  0  0
    0.4228   23.4271   64.4618 O   0  0  0  0  0
    2.2203   29.3087   63.8350 P   0  0  0  0  0
    1.4236   29.9070   61.2613 P   0  0  0  0  0
   -0.1668   30.4689   56.1029 N   0  0  0  0  0
   -1.7950   31.2648   54.5874 N   0  0  0  0  0
  2  1  1  0  0  0
  2  3  1  0  0  0
  2 16  1  0  0  0
  3  4  1  0  0  0
  3 31  1  0  0  0
  4  5  1  0  0  0
  4 30  1  0  0  0
  5  6  1  0  0  0
  5 29  1  0  0  0
  6 16  1  0  0  0
  6 17  1  0  0  0
  7 23  1  0  0  0
  8  7  1  0  0  0
  8  9  1  0  0  0
  8 24  1  0  0  0
  9 10  1  0  0  0
  9 28  1  0  0  0
 10 11  1  0  0  0
 10 27  1  0  0  0
 11 24  1  0  0  0
 11 34  1  0  0  0
 13 14  1  0  0  0
 14 35  1  0  0  0
 15 34  1  0  0  0
 32 17  1  0  0  0
 32 19  1  0  0  0
 32 20  1  0  0  0
 33 20  1  0  0  0
 33 22  1  0  0  0
 33 23  1  0  0  0
 34 12  1  0  0  0
 35 15  1  0  0  0
 12 13  2  0  0  0
 14 25  2  0  0  0
 15 26  2  0  0  0
 32 18  2  0  0  0
 33 21  2  0  0  0
M  END
> <rmsd>
0.702639401

$$$$
PubChem-10885397


 32 34  0  0  0  0  0  0  0  0999 V2000
   -2.0230   33.0236   56.7323 C   0  0  0  0  0
   -0.8901   32.3518   57.1835 C   0  0  0  0  0
   -0.8457   31.0546   55.2053 C   0  0  0  0  0
   -2.5460   32.6750   55.4912 C   0  0  0  0  0
    0.8871   30.6919   56.9093 C   0  0  0  0  0
    2.0843   31.6217   56.8918 C   0  0  0  0  0
    2.6466   31.5099   58.2706 C   0  0  0  0  0
    1.5025   30.9395   59.0681 C   0  0  0  0  0
    2.0395   30.0643   60.1842 C   0  0  0  0  0
    2.6145   27.2649   62.2492 C   0  0  0  0  0
    3.1869   26.2106   63.2331 C   0  0  0  0  0
    3.7105   24.9748   62.4943 C   0  0  0  0  0
    4.6030   25.3511   61.3045 C   0  0  0  0  0
    4.2277   26.7207   60.7189 C   0  0  0  0  0
    4.5729   26.7836   59.2411 C   0  0  0  0  0
   -0.3140   31.3755   56.4244 N   0  0  0  0  0
   -1.9517   31.7027   54.7539 N   0  0  0  0  0
   -0.3185   30.1608   54.4892 O   0  0  0  0  0
   -3.5691   33.2605   55.0529 O   0  0  0  0  0
    0.6841   30.1848   58.2092 O   0  0  0  0  0
    0.9883   29.6219   60.9909 O   0  0  0  0  0
    1.9762   30.9057   63.0547 O   0  0  0  0  0
    0.4794   28.8388   63.5901 O   0  0  0  0  0
    3.0387   28.5657   62.5560 O   0  0  0  0  0
    2.8520   26.9628   60.8862 O   0  0  0  0  0
    5.9560   26.8610   59.0742 O   0  0  0  0  0
    5.9381   25.3656   61.7088 O   0  0  0  0  0
    2.6364   24.2042   62.0480 O   0  0  0  0  0
    4.2090   26.7518   64.0179 O   0  0  0  0  0
    2.9763   32.7763   58.7518 O   0  0  0  0  0
    3.0203   31.1673   55.9646 O   0  0  0  0  0
    1.6341   29.5193   62.5567 P   0  0  0  0  0
  2 16  1  0  0  0
  3 17  1  0  0  0
  4  1  1  0  0  0
  5 16  1  0  0  0
  5  6  1  0  0  0
  5 20  1  0  0  0
  6  7  1  0  0  0
  6 31  1  0  0  0
  7  8  1  0  0  0
  7 30  1  0  0  0
  8 20  1  0  0  0
  8  9  1  0  0  0
  9 21  1  0  0  0
 10 24  1  0  0  0
 10 11  1  0  0  0
 10 25  1  0  0  0
 11 12  1  0  0  0
 11 29  1  0  0  0
 12 13  1  0  0  0
 12 28  1  0  0  0
 13 14  1  0  0  0
 13 27  1  0  0  0
 14 25  1  0  0  0
 14 15  1  0  0  0
 15 26  1  0  0  0
 16  3  1  0  0  0
 17  4  1  0  0  0
 32 21  1  0  0  0
 32 23  1  0  0  0
 32 24  1  0  0  0
  1  2  2  0  0  0
  3 18  2  0  0  0
  4 19  2  0  0  0
 32 22  2  0  0  0
M  END
> <rmsd>
0.637150407

$$$$
PubChem-98072852 100204574 ZINC000100204574


 42 46  0  0  0  0  0  0  0  0999 V2000
    2.2781   27.2897   58.2605 C   0  0  0  0  0
    2.4287   27.0838   59.7573 C   0  0  0  0  0
    3.4925   27.8861   61.6508 C   0  0  0  0  0
    2.5901   29.6781   62.5954 C   0  0  0  0  0
    2.2698   29.9400   64.0848 C   0  0  0  0  0
    0.8991   30.6055   64.3324 C   0  0  0  0  0
    0.5521   31.6408   63.2340 C   0  0  0  0  0
    0.1220   32.9540   63.8614 C   0  0  0  0  0
    1.8208   30.6537   61.6979 C   0  0  0  0  0
    1.8438   30.9503   59.2555 C   0  0  0  0  0
    2.5665   30.8476   58.0645 C   0  0  0  0  0
    1.9254   30.9422   56.8246 C   0  0  0  0  0
    0.5276   31.1513   56.7686 C   0  0  0  0  0
   -0.2005   31.2637   57.9801 C   0  0  0  0  0
    0.4571   31.1573   59.2053 C   0  0  0  0  0
   -2.2101   31.5949   56.8441 C   0  0  0  0  0
   -3.6521   31.8476   56.9334 C   0  0  0  0  0
   -4.5617   30.7840   56.8380 C   0  0  0  0  0
   -5.9368   31.0266   56.9559 C   0  0  0  0  0
   -6.4028   32.3334   57.1615 C   0  0  0  0  0
   -5.4904   33.3922   57.2705 C   0  0  0  0  0
   -4.1167   33.1492   57.1575 C   0  0  0  0  0
   -1.5716   31.4833   55.6001 C   0  0  0  0  0
   -0.1911   31.2632   55.5604 C   0  0  0  0  0
    3.8539   26.4765   62.1484 C   0  0  0  0  0
    2.8894   25.4443   61.5754 C   0  0  0  0  0
    2.7699   25.6192   60.0673 C   0  0  0  0  0
    3.4465   27.9435   60.2354 O   0  0  0  0  0
    2.2990   28.3601   62.2230 O   0  0  0  0  0
    2.4217   28.7870   64.8604 O   0  0  0  0  0
   -0.1129   29.6385   64.3849 O   0  0  0  0  0
   -1.1203   32.8108   64.4775 O   0  0  0  0  0
    1.6349   31.8697   62.3675 O   0  0  0  0  0
    2.5158   30.8527   60.4755 O   0  0  0  0  0
    2.6881   30.8226   55.6714 O   0  0  0  0  0
   -1.5094   31.4827   57.9676 O   0  0  0  0  0
   -7.7665   32.5798   57.2591 O   0  0  0  0  0
   -2.2989   31.6040   54.4191 O   0  0  0  0  0
    0.3860   31.1687   54.4449 O   0  0  0  0  0
    3.8325   26.4301   63.5444 O   0  0  0  0  0
    3.3439   24.1606   61.8667 O   0  0  0  0  0
    1.7761   24.7669   59.5683 O   0  0  0  0  0
  2  1  1  0  0  0
  2 28  1  0  0  0
  3 28  1  0  0  0
  3 29  1  0  0  0
  3 25  1  0  0  0
  4 29  1  0  0  0
  4  5  1  0  0  0
  5 30  1  0  0  0
  5  6  1  0  0  0
  6 31  1  0  0  0
  6  7  1  0  0  0
  7  8  1  0  0  0
  7 33  1  0  0  0
  8 32  1  0  0  0
  9 33  1  0  0  0
  9 34  1  0  0  0
  9  4  1  0  0  0
 10 34  1  0  0  0
 11 12  1  0  0  0
 12 35  1  0  0  0
 13 14  1  0  0  0
 14 36  1  0  0  0
 15 10  1  0  0  0
 16 36  1  0  0  0
 16 17  1  0  0  0
 18 19  1  0  0  0
 20 37  1  0  0  0
 20 21  1  0  0  0
 22 17  1  0  0  0
 23 38  1  0  0  0
 23 24  1  0  0  0
 24 13  1  0  0  0
 25 40  1  0  0  0
 25 26  1  0  0  0
 26 41  1  0  0  0
 26 27  1  0  0  0
 27 42  1  0  0  0
 27  2  1  0  0  0
 10 11  2  0  0  0
 12 13  2  0  0  0
 14 15  2  0  0  0
 16 23  2  0  0  0
 17 18  2  0  0  0
 19 20  2  0  0  0
 21 22  2  0  0  0
 24 39  2  0  0  0
M  END
> <rmsd>
0.596395433

$$$$
PubChem-146550811


 40 43  0  0  0  0  0  0  0  0999 V2000
    0.9602   28.0065   60.5290 C   0  0  0  0  0
    0.2369   28.8343   59.6700 C   0  0  0  0  0
   -0.4749   29.9391   60.1636 C   0  0  0  0  0
   -0.4563   30.1971   61.5528 C   0  0  0  0  0
    0.2698   29.3625   62.4151 C   0  0  0  0  0
    0.9767   28.2698   61.8975 C   0  0  0  0  0
    0.9486   29.0205   66.0214 C   0  0  0  0  0
    0.2023   30.0756   66.5624 C   0  0  0  0  0
    0.1703   30.2847   67.9406 C   0  0  0  0  0
    0.8856   29.4411   68.7896 C   0  0  0  0  0
    1.6324   28.3817   68.2679 C   0  0  0  0  0
    1.6651   28.1522   66.8758 C   0  0  0  0  0
    2.4691   27.0326   66.3199 C   0  0  0  0  0
    1.9575   26.1721   65.2252 C   0  0  0  0  0
    0.5794   25.9271   65.1301 C   0  0  0  0  0
    0.0628   25.1341   64.1050 C   0  0  0  0  0
    0.9229   24.5681   63.1585 C   0  0  0  0  0
    2.3017   24.7961   63.2435 C   0  0  0  0  0
    2.8225   25.5939   64.2723 C   0  0  0  0  0
   -1.2604   30.7831   59.2253 C   0  0  0  0  0
   -0.8652   30.9571   57.8029 C   0  0  0  0  0
    0.4901   30.8838   57.4477 C   0  0  0  0  0
    0.8974   31.0700   56.1262 C   0  0  0  0  0
   -0.0508   31.3409   55.1350 C   0  0  0  0  0
   -1.4072   31.4235   55.4708 C   0  0  0  0  0
   -1.8184   31.2338   56.7982 C   0  0  0  0  0
    0.2791   29.6227   63.7852 O   0  0  0  0  0
    0.9925   28.8352   64.6393 O   0  0  0  0  0
    3.6126   26.8048   66.8009 O   0  0  0  0  0
    4.1942   25.8219   64.3276 O   0  0  0  0  0
    3.1561   24.2331   62.3017 O   0  0  0  0  0
    0.4089   23.7805   62.1343 O   0  0  0  0  0
   -1.3066   24.9133   64.0308 O   0  0  0  0  0
    2.3240   27.5536   69.1449 O   0  0  0  0  0
   -1.1427   31.2851   62.0837 O   0  0  0  0  0
   -2.2934   31.3695   59.6492 O   0  0  0  0  0
   -3.1740   31.3077   57.1041 O   0  0  0  0  0
   -2.3496   31.6926   54.4842 O   0  0  0  0  0
    0.3535   31.5282   53.8177 O   0  0  0  0  0
    2.2462   30.9866   55.8046 O   0  0  0  0  0
  2  3  1  0  0  0
  3 20  1  0  0  0
  4  5  1  0  0  0
  4 35  1  0  0  0
  5 27  1  0  0  0
  6  1  1  0  0  0
  7 28  1  0  0  0
  8  9  1  0  0  0
 10 11  1  0  0  0
 11 34  1  0  0  0
 12 13  1  0  0  0
 12  7  1  0  0  0
 13 14  1  0  0  0
 15 16  1  0  0  0
 16 33  1  0  0  0
 17 18  1  0  0  0
 17 32  1  0  0  0
 18 31  1  0  0  0
 19 30  1  0  0  0
 19 14  1  0  0  0
 20 21  1  0  0  0
 22 23  1  0  0  0
 23 40  1  0  0  0
 24 25  1  0  0  0
 24 39  1  0  0  0
 25 38  1  0  0  0
 26 37  1  0  0  0
 26 21  1  0  0  0
 27 28  1  0  0  0
  1  2  2  0  0  0
  3  4  2  0  0  0
  5  6  2  0  0  0
  7  8  2  0  0  0
  9 10  2  0  0  0
 11 12  2  0  0  0
 13 29  2  0  0  0
 14 15  2  0  0  0
 16 17  2  0  0  0
 18 19  2  0  0  0
 20 36  2  0  0  0
 21 22  2  0  0  0
 23 24  2  0  0  0
 25 26  2  0  0  0
M  END
> <rmsd>
0.689792991

$$$$
PubChem-146550811


 40 43  0  0  0  0  0  0  0  0999 V2000
    0.8167   28.1411   60.4366 C   0  0  0  0  0
    0.1148   28.9481   59.5408 C   0  0  0  0  0
   -0.6185   30.0570   59.9919 C   0  0  0  0  0
   -0.6438   30.3407   61.3761 C   0  0  0  0  0
    0.0608   29.5270   62.2753 C   0  0  0  0  0
    0.7898   28.4297   61.7999 C   0  0  0  0  0
    0.6316   29.2560   65.9064 C   0  0  0  0  0
   -0.1373   30.3160   66.4047 C   0  0  0  0  0
   -0.2126   30.5502   67.7771 C   0  0  0  0  0
    0.4817   29.7272   68.6630 C   0  0  0  0  0
    1.2505   28.6633   68.1841 C   0  0  0  0  0
    1.3270   28.4085   66.7981 C   0  0  0  0  0
    2.1545   27.2842   66.2877 C   0  0  0  0  0
    1.6817   26.4003   65.1943 C   0  0  0  0  0
    0.3087   26.1443   65.0620 C   0  0  0  0  0
   -0.1716   25.3291   64.0366 C   0  0  0  0  0
    0.7204   24.7516   63.1273 C   0  0  0  0  0
    2.0946   24.9904   63.2499 C   0  0  0  0  0
    2.5789   25.8105   64.2790 C   0  0  0  0  0
   -1.3802   30.8783   59.0147 C   0  0  0  0  0
   -0.9430   31.0287   57.6019 C   0  0  0  0  0
    0.4229   30.9579   57.2894 C   0  0  0  0  0
    0.8691   31.1224   55.9777 C   0  0  0  0  0
   -0.0500   31.3688   54.9533 C   0  0  0  0  0
   -1.4165   31.4484   55.2462 C   0  0  0  0  0
   -1.8668   31.2804   56.5638 C   0  0  0  0  0
    0.0268   29.8124   63.6400 O   0  0  0  0  0
    0.7187   29.0457   64.5299 O   0  0  0  0  0
    3.2841   27.0730   66.8074 O   0  0  0  0  0
    3.9468   26.0486   64.3716 O   0  0  0  0  0
    2.9807   24.4159   62.3451 O   0  0  0  0  0
    0.2427   23.9419   62.1029 O   0  0  0  0  0
   -1.5367   25.0978   63.9251 O   0  0  0  0  0
    1.9202   27.8563   69.0969 O   0  0  0  0  0
   -1.3527   31.4337   61.8655 O   0  0  0  0  0
   -2.4292   31.4654   59.3960 O   0  0  0  0  0
   -3.2315   31.3508   56.8270 O   0  0  0  0  0
   -2.3301   31.6930   54.2266 O   0  0  0  0  0
    0.3931   31.5344   53.6456 O   0  0  0  0  0
    2.2276   31.0422   55.6988 O   0  0  0  0  0
  2  3  1  0  0  0
  3 20  1  0  0  0
  4  5  1  0  0  0
  4 35  1  0  0  0
  5 27  1  0  0  0
  6  1  1  0  0  0
  7 28  1  0  0  0
  8  9  1  0  0  0
 10 11  1  0  0  0
 11 34  1  0  0  0
 12 13  1  0  0  0
 12  7  1  0  0  0
 13 14  1  0  0  0
 15 16  1  0  0  0
 16 33  1  0  0  0
 17 18  1  0  0  0
 17 32  1  0  0  0
 18 31  1  0  0  0
 19 30  1  0  0  0
 19 14  1  0  0  0
 20 21  1  0  0  0
 22 23  1  0  0  0
 23 40  1  0  0  0
 24 25  1  0  0  0
 24 39  1  0  0  0
 25 38  1  0  0  0
 26 37  1  0  0  0
 26 21  1  0  0  0
 27 28  1  0  0  0
  1  2  2  0  0  0
  3  4  2  0  0  0
  5  6  2  0  0  0
  7  8  2  0  0  0
  9 10  2  0  0  0
 11 12  2  0  0  0
 13 29  2  0  0  0
 14 15  2  0  0  0
 16 17  2  0  0  0
 18 19  2  0  0  0
 20 36  2  0  0  0
 21 22  2  0  0  0
 23 24  2  0  0  0
 25 26  2  0  0  0
M  END
> <rmsd>
0.701016426

$$$$
PubChem-49792002


 35 37  0  0  0  0  0  0  0  0999 V2000
   -0.6518   25.6312   65.9953 C   0  0  0  0  0
    0.7436   25.6185   65.3956 C   0  0  0  0  0
    0.7848   24.7364   64.1377 C   0  0  0  0  0
    2.2036   24.7377   63.5646 C   0  0  0  0  0
    2.7540   26.1573   63.4458 C   0  0  0  0  0
    2.4890   26.9101   64.7601 C   0  0  0  0  0
    1.7723   28.3460   59.3747 C   0  0  0  0  0
    2.1874   28.6535   57.9395 C   0  0  0  0  0
    2.9636   29.9565   57.8683 C   0  0  0  0  0
    2.0355   30.8669   57.1153 C   0  0  0  0  0
    1.1576   29.8990   56.3585 C   0  0  0  0  0
   -0.9839   30.7816   57.1495 C   0  0  0  0  0
   -2.2361   31.3495   56.9257 C   0  0  0  0  0
   -2.6247   31.5911   55.6112 C   0  0  0  0  0
   -0.5772   30.7078   54.8201 C   0  0  0  0  0
    1.1144   26.9363   65.0766 O   0  0  0  0  0
    3.0840   28.1925   64.8037 O   0  0  0  0  0
    0.9230   29.6724   64.5246 O   0  0  0  0  0
    3.1728   30.7012   63.6934 O   0  0  0  0  0
    1.8934   28.6406   62.3016 O   0  0  0  0  0
    2.6120   30.7861   60.9380 O   0  0  0  0  0
    0.2132   30.8524   61.9755 O   0  0  0  0  0
    0.8061   29.2549   59.8205 O   0  0  0  0  0
    1.0520   28.7108   57.1017 O   0  0  0  0  0
   -3.7386   32.1285   55.3701 O   0  0  0  0  0
    0.1685   30.4204   53.8443 O   0  0  0  0  0
    2.7172   31.7058   56.2297 O   0  0  0  0  0
    4.1468   29.7381   57.1592 O   0  0  0  0  0
    4.1263   26.1051   63.1942 O   0  0  0  0  0
    2.2091   24.1216   62.3115 O   0  0  0  0  0
    0.4228   23.4271   64.4618 O   0  0  0  0  0
    2.2203   29.3087   63.8350 P   0  0  0  0  0
    1.4236   29.9070   61.2613 P   0  0  0  0  0
   -0.1668   30.4689   56.1029 N   0  0  0  0  0
   -1.7950   31.2648   54.5874 N   0  0  0  0  0
  2  1  1  0  0  0
  2  3  1  0  0  0
  2 16  1  0  0  0
  3  4  1  0  0  0
  3 31  1  0  0  0
  4  5  1  0  0  0
  4 30  1  0  0  0
  5  6  1  0  0  0
  5 29  1  0  0  0
  6 16  1  0  0  0
  6 17  1  0  0  0
  7 23  1  0  0  0
  8  7  1  0  0  0
  8  9  1  0  0  0
  8 24  1  0  0  0
  9 10  1  0  0  0
  9 28  1  0  0  0
 10 11  1  0  0  0
 10 27  1  0  0  0
 11 24  1  0  0  0
 11 34  1  0  0  0
 13 14  1  0  0  0
 14 35  1  0  0  0
 15 34  1  0  0  0
 32 17  1  0  0  0
 32 19  1  0  0  0
 32 20  1  0  0  0
 33 20  1  0  0  0
 33 22  1  0  0  0
 33 23  1  0  0  0
 34 12  1  0  0  0
 35 15  1  0  0  0
 12 13  2  0  0  0
 14 25  2  0  0  0
 15 26  2  0  0  0
 32 18  2  0  0  0
 33 21  2  0  0  0
M  CHG  2  19  -1  22  -1
M  END
> <rmsd>
0.702639401

$$$$
PubChem-73835652


 40 42  0  0  0  0  0  0  0  0999 V2000
    1.2176   25.8702   63.1299 C   0  0  0  0  0
    0.6751   26.7120   64.1065 C   0  0  0  0  0
    1.5059   27.2549   65.0931 C   0  0  0  0  0
    2.8737   26.9680   65.0980 C   0  0  0  0  0
    3.4167   26.1307   64.1143 C   0  0  0  0  0
    2.5846   25.5803   63.1303 C   0  0  0  0  0
   -0.7911   27.0196   64.1055 C   0  0  0  0  0
   -1.1475   28.3417   63.4086 C   0  0  0  0  0
   -1.0435   28.3075   61.9103 C   0  0  0  0  0
   -1.3006   29.5344   59.7101 C   0  0  0  0  0
   -1.3112   30.9872   59.2509 C   0  0  0  0  0
   -0.8537   31.1087   57.8350 C   0  0  0  0  0
    0.4681   30.8044   57.4888 C   0  0  0  0  0
    0.8910   30.9199   56.1616 C   0  0  0  0  0
   -0.0087   31.3444   55.1740 C   0  0  0  0  0
   -1.3308   31.6546   55.5220 C   0  0  0  0  0
   -1.7495   31.5382   56.8509 C   0  0  0  0  0
   -2.4472   28.7811   59.1118 C   0  0  0  0  0
   -4.9109   28.4950   58.8370 C   0  0  0  0  0
   -6.1432   28.8838   59.1413 C   0  0  0  0  0
   -7.3396   28.2351   58.5872 C   0  0  0  0  0
   -8.5991   28.7051   58.9723 C   0  0  0  0  0
   -9.7602   28.1130   58.4663 C   0  0  0  0  0
   -9.6665   27.0430   57.5662 C   0  0  0  0  0
   -8.4071   26.5683   57.1774 C   0  0  0  0  0
   -7.2491   27.1621   57.6875 C   0  0  0  0  0
    3.1103   24.7448   62.1532 O   0  0  0  0  0
    4.7773   25.8457   64.1154 O   0  0  0  0  0
    3.6879   27.5165   66.0810 O   0  0  0  0  0
   -0.6997   27.2541   61.3079 O   0  0  0  0  0
   -2.2313   32.0771   54.5517 O   0  0  0  0  0
    0.4092   31.4577   53.8526 O   0  0  0  0  0
    2.2040   30.6109   55.8297 O   0  0  0  0  0
   -2.2142   27.8064   58.3474 O   0  0  0  0  0
   -8.3006   25.5079   56.2866 O   0  0  0  0  0
  -10.8202   26.4546   57.0601 O   0  0  0  0  0
  -11.0033   28.5916   58.8605 O   0  0  0  0  0
   -1.3665   29.4839   61.1641 N   0  0  0  0  0
   -3.7916   29.1680   59.4060 N   0  0  0  0  0
   -0.3745   29.4476   63.9515 N   0  0  0  0  0
  2  3  1  0  0  0
  4  5  1  0  0  0
  4 29  1  0  0  0
  5 28  1  0  0  0
  6 27  1  0  0  0
  6  1  1  0  0  0
  7  2  1  0  0  0
  8  7  1  0  0  0
  8  9  1  0  0  0
  8 40  1  0  0  0
  9 38  1  0  0  0
 10 38  1  0  0  0
 10 11  1  0  0  0
 10 18  1  0  0  0
 11 12  1  0  0  0
 13 14  1  0  0  0
 14 33  1  0  0  0
 15 16  1  0  0  0
 15 32  1  0  0  0
 16 31  1  0  0  0
 17 12  1  0  0  0
 18 39  1  0  0  0
 20 21  1  0  0  0
 22 23  1  0  0  0
 23 37  1  0  0  0
 24 25  1  0  0  0
 24 36  1  0  0  0
 25 35  1  0  0  0
 26 21  1  0  0  0
 39 19  1  0  0  0
  1  2  2  0  0  0
  3  4  2  0  0  0
  5  6  2  0  0  0
  9 30  2  0  0  0
 12 13  2  0  0  0
 14 15  2  0  0  0
 16 17  2  0  0  0
 18 34  2  0  0  0
 19 20  2  0  0  0
 21 22  2  0  0  0
 23 24  2  0  0  0
 25 26  2  0  0  0
M  END
> <rmsd>
0.76939404

$$$$
PubChem-136498312


 36 38  0  0  0  0  0  0  0  0999 V2000
   -1.2069   31.1358   53.8478 C   0  0  0  0  0
   -0.5865   30.8145   56.0724 C   0  0  0  0  0
   -1.6724   31.4866   56.5101 C   0  0  0  0  0
   -2.5769   32.0076   55.5962 C   0  0  0  0  0
   -0.5353   30.8883   58.2009 C   0  0  0  0  0
    1.4199   29.7197   57.0984 C   0  0  0  0  0
    2.5509   30.6914   57.3096 C   0  0  0  0  0
    3.5871   29.8543   58.0015 C   0  0  0  0  0
    2.7575   28.7769   58.6719 C   0  0  0  0  0
    2.6588   29.0462   60.1631 C   0  0  0  0  0
    3.2051   26.3967   62.4552 C   0  0  0  0  0
    3.9523   25.7127   63.5686 C   0  0  0  0  0
    2.1723   25.4283   61.8633 C   0  0  0  0  0
    1.3122   26.0847   60.7737 C   0  0  0  0  0
    0.4945   25.0606   59.9916 C   0  0  0  0  0
   -0.3216   30.6246   54.7571 N   0  0  0  0  0
   -2.3214   31.8185   54.2676 N   0  0  0  0  0
   -1.6740   31.5542   57.8547 N   0  0  0  0  0
    0.1410   30.4183   57.1200 N   0  0  0  0  0
   -3.5999   32.6381   55.9712 O   0  0  0  0  0
    1.4617   28.7476   58.1157 O   0  0  0  0  0
    3.8821   28.7710   60.7767 O   0  0  0  0  0
    4.9034   28.7877   63.1719 O   0  0  0  0  0
    2.5849   27.5643   62.9255 O   0  0  0  0  0
    3.9462   26.1538   64.7076 O   0  0  0  0  0
   -0.4184   24.4158   60.8294 O   0  0  0  0  0
    0.4486   27.0286   61.3345 O   0  0  0  0  0
    2.8397   24.3187   61.3339 O   0  0  0  0  0
    2.8374   30.3562   62.7896 O   0  0  0  0  0
    0.9556   29.4115   64.3706 O   0  0  0  0  0
    3.3338   29.6252   65.4497 O   0  0  0  0  0
    1.7932   31.8270   64.8724 O   0  0  0  0  0
    4.4462   29.2505   57.0783 O   0  0  0  0  0
    3.0080   31.1912   56.0879 O   0  0  0  0  0
    3.5793   28.8617   62.4433 P   0  0  0  0  0
    2.2024   30.2669   64.3662 P   0  0  0  0  0
  2 16  1  0  0  0
  3  4  1  0  0  0
  3 18  1  0  0  0
  4 17  1  0  0  0
  5 19  1  0  0  0
  6 19  1  0  0  0
  6  7  1  0  0  0
  6 21  1  0  0  0
  7  8  1  0  0  0
  7 34  1  0  0  0
  8  9  1  0  0  0
  8 33  1  0  0  0
  9 21  1  0  0  0
  9 10  1  0  0  0
 10 22  1  0  0  0
 11 24  1  0  0  0
 11 12  1  0  0  0
 11 13  1  0  0  0
 13 14  1  0  0  0
 13 28  1  0  0  0
 14 15  1  0  0  0
 14 27  1  0  0  0
 15 26  1  0  0  0
 17  1  1  0  0  0
 19  2  1  0  0  0
 35 22  1  0  0  0
 35 24  1  0  0  0
 35 29  1  0  0  0
 36 29  1  0  0  0
 36 31  1  0  0  0
 36 32  1  0  0  0
  1 16  2  0  0  0
  2  3  2  0  0  0
  4 20  2  0  0  0
  5 18  2  0  0  0
 12 25  2  0  0  0
 35 23  2  0  0  0
 36 30  2  0  0  0
M  END
> <rmsd>
0.760479927

$$$$
PubChem-91010877


 36 38  0  0  0  0  0  0  0  0999 V2000
   -3.4924   32.4301   51.0602 C   0  0  0  0  0
   -4.3126   31.6836   51.9084 C   0  0  0  0  0
   -4.4342   30.3613   50.1145 C   0  0  0  0  0
   -4.5773   32.0921   53.3168 C   0  0  0  0  0
   -3.6447   31.3902   54.2421 C   0  0  0  0  0
   -1.3907   31.4497   55.4258 C   0  0  0  0  0
   -0.0378   31.3249   55.0778 C   0  0  0  0  0
    0.9009   30.8972   56.0245 C   0  0  0  0  0
    0.4951   30.6047   57.3355 C   0  0  0  0  0
   -0.8529   30.7545   57.6968 C   0  0  0  0  0
   -1.7910   31.1911   56.7526 C   0  0  0  0  0
    1.4929   30.1250   58.3413 C   0  0  0  0  0
    1.5525   28.6098   58.3335 C   0  0  0  0  0
    2.3537   26.7116   59.4514 C   0  0  0  0  0
    1.2352   26.3281   60.4150 C   0  0  0  0  0
    1.5649   26.7229   61.8242 C   0  0  0  0  0
    2.5731   26.0524   62.5399 C   0  0  0  0  0
    2.8676   26.4301   63.8563 C   0  0  0  0  0
    2.1548   27.4704   64.4645 C   0  0  0  0  0
    1.1437   28.1331   63.7586 C   0  0  0  0  0
    0.8460   27.7599   62.4416 C   0  0  0  0  0
   -4.8294   30.5366   51.3891 N   0  0  0  0  0
   -4.8223   29.2467   49.3209 N   0  0  0  0  0
   -2.3210   31.9008   54.4303 N   0  0  0  0  0
    2.4763   28.1588   59.3594 N   0  0  0  0  0
   -3.4380   31.6004   49.5926 S   0  0  0  0  0
   -4.0043   30.3119   54.7854 O   0  0  0  0  0
   -3.1074   31.3979   57.1505 O   0  0  0  0  0
   -1.2633   30.4802   58.9985 O   0  0  0  0  0
   -0.1598   28.4267   61.7478 O   0  0  0  0  0
    0.4335   29.1628   64.3660 O   0  0  0  0  0
    2.4495   27.8436   65.7712 O   0  0  0  0  0
    3.8689   25.7710   64.5606 O   0  0  0  0  0
    3.2818   25.0111   61.9484 O   0  0  0  0  0
    2.2369   30.7638   55.6580 O   0  0  0  0  0
    0.3747   31.6144   53.7814 O   0  0  0  0  0
  1 26  1  0  0  0
  2 22  1  0  0  0
  3 26  1  0  0  0
  3 23  1  0  0  0
  4  2  1  0  0  0
  4  5  1  0  0  0
  5 24  1  0  0  0
  7  8  1  0  0  0
  7 36  1  0  0  0
  8 35  1  0  0  0
  9 10  1  0  0  0
 10 29  1  0  0  0
 11 28  1  0  0  0
 11  6  1  0  0  0
 12  9  1  0  0  0
 12 13  1  0  0  0
 13 25  1  0  0  0
 14 25  1  0  0  0
 14 15  1  0  0  0
 15 16  1  0  0  0
 17 18  1  0  0  0
 17 34  1  0  0  0
 18 33  1  0  0  0
 19 20  1  0  0  0
 19 32  1  0  0  0
 20 31  1  0  0  0
 21 30  1  0  0  0
 21 16  1  0  0  0
 24  6  1  0  0  0
  1  2  2  0  0  0
  3 22  2  0  0  0
  5 27  2  0  0  0
  6  7  2  0  0  0
  8  9  2  0  0  0
 10 11  2  0  0  0
 16 17  2  0  0  0
 18 19  2  0  0  0
 20 21  2  0  0  0
M  END
> <rmsd>
0.754573822

$$$$
PubChem-131698923


 36 38  0  0  0  0  0  0  0  0999 V2000
   -1.0842   26.6752   59.4855 C   0  0  0  0  0
    1.2710   29.2043   58.6313 C   0  0  0  0  0
    2.1454   30.4368   58.5969 C   0  0  0  0  0
    1.7386   31.1358   57.3212 C   0  0  0  0  0
    0.6215   30.2674   56.7788 C   0  0  0  0  0
   -1.1880   31.8816   57.0969 C   0  0  0  0  0
   -2.2397   32.6574   56.6159 C   0  0  0  0  0
   -2.5409   32.5922   55.2592 C   0  0  0  0  0
   -0.7921   31.0347   54.9237 C   0  0  0  0  0
    3.3442   26.2614   63.2587 C   0  0  0  0  0
    3.1530   24.7660   63.5805 C   0  0  0  0  0
    4.4960   24.0252   63.6360 C   0  0  0  0  0
    5.4749   24.7489   64.5670 C   0  0  0  0  0
    5.1861   26.2547   64.6353 C   0  0  0  0  0
    6.4502   27.0134   64.9925 C   0  0  0  0  0
    0.2470   26.3630   59.2060 O   0  0  0  0  0
    2.6312   27.0346   60.0235 O   0  0  0  0  0
    0.8419   28.9733   59.9403 O   0  0  0  0  0
    0.1607   29.4198   57.8000 O   0  0  0  0  0
   -3.4854   33.2780   54.7905 O   0  0  0  0  0
   -0.1419   30.2981   54.1339 O   0  0  0  0  0
    2.7814   31.1913   56.3917 O   0  0  0  0  0
    3.4908   30.0588   58.5890 O   0  0  0  0  0
    0.7524   26.9557   61.8583 O   0  0  0  0  0
    0.6322   28.8496   63.6548 O   0  0  0  0  0
    2.7197   29.0084   62.1059 O   0  0  0  0  0
    2.4724   27.0440   64.0240 O   0  0  0  0  0
    4.6805   26.7146   63.4020 O   0  0  0  0  0
    6.1430   28.3527   65.2263 O   0  0  0  0  0
    5.3973   24.1999   65.8466 O   0  0  0  0  0
    5.0557   23.9317   62.3595 O   0  0  0  0  0
    1.1645   27.3334   60.2513 P   0  0  0  0  0
    1.6220   27.9903   62.9040 P   0  0  0  0  0
   -0.4753   31.0810   56.2532 N   0  0  0  0  0
   -1.8153   31.7879   54.4414 N   0  0  0  0  0
    2.2614   24.1521   62.6118 N   0  0  0  0  0
  1 16  1  0  0  0
  2 18  1  0  0  0
  2  3  1  0  0  0
  2 19  1  0  0  0
  3  4  1  0  0  0
  3 23  1  0  0  0
  4  5  1  0  0  0
  4 22  1  0  0  0
  5 19  1  0  0  0
  5 34  1  0  0  0
  7  8  1  0  0  0
  8 35  1  0  0  0
  9 34  1  0  0  0
 10 27  1  0  0  0
 10 11  1  0  0  0
 10 28  1  0  0  0
 11 12  1  0  0  0
 11 36  1  0  0  0
 12 13  1  0  0  0
 12 31  1  0  0  0
 13 14  1  0  0  0
 13 30  1  0  0  0
 14 28  1  0  0  0
 14 15  1  0  0  0
 15 29  1  0  0  0
 32 16  1  0  0  0
 32 18  1  0  0  0
 32 24  1  0  0  0
 33 24  1  0  0  0
 33 26  1  0  0  0
 33 27  1  0  0  0
 34  6  1  0  0  0
 35  9  1  0  0  0
  6  7  2  0  0  0
  8 20  2  0  0  0
  9 21  2  0  0  0
 32 17  2  0  0  0
 33 25  2  0  0  0
M  END
> <rmsd>
0.785935462

$$$$
PubChem-102025782


 34 37  0  0  0  0  0  0  0  0999 V2000
   -1.8703   31.1945   56.5926 C   0  0  0  0  0
   -0.9820   30.8097   57.6091 C   0  0  0  0  0
    0.3824   30.6886   57.3113 C   0  0  0  0  0
    0.8545   30.9460   56.0213 C   0  0  0  0  0
   -0.0383   31.3296   55.0125 C   0  0  0  0  0
   -1.4031   31.4540   55.3012 C   0  0  0  0  0
   -1.4628   30.5308   58.9773 C   0  0  0  0  0
   -2.8223   30.6386   59.2946 C   0  0  0  0  0
   -3.2492   30.3675   60.5920 C   0  0  0  0  0
   -2.3055   29.9889   61.5679 C   0  0  0  0  0
   -2.6495   29.6942   62.9073 C   0  0  0  0  0
   -1.6527   29.3240   63.8214 C   0  0  0  0  0
   -0.3137   29.2426   63.4199 C   0  0  0  0  0
    0.0283   29.5350   62.0933 C   0  0  0  0  0
   -0.9502   29.9035   61.1704 C   0  0  0  0  0
    2.0419   28.7210   64.0313 C   0  0  0  0  0
    2.8977   28.6133   65.3026 C   0  0  0  0  0
    2.7412   27.2466   65.9823 C   0  0  0  0  0
    2.7621   26.0996   64.9707 C   0  0  0  0  0
    1.8430   26.4458   63.7921 C   0  0  0  0  0
    1.7153   25.3024   62.7921 C   0  0  0  0  0
   -2.2990   31.8329   54.3094 O   0  0  0  0  0
    0.4292   31.5873   53.7287 O   0  0  0  0  0
    2.2103   30.8178   55.7477 O   0  0  0  0  0
   -4.4753   30.4689   60.8626 O   0  0  0  0  0
   -0.5924   30.1717   59.9187 O   0  0  0  0  0
    0.6587   28.8707   64.3556 O   0  0  0  0  0
    2.2587   27.6322   63.1520 O   0  0  0  0  0
    2.8949   25.1457   62.0620 O   0  0  0  0  0
    4.0714   25.8809   64.5341 O   0  0  0  0  0
    1.5520   27.2128   66.7122 O   0  0  0  0  0
    4.2384   28.8353   64.9864 O   0  0  0  0  0
   -1.9958   29.0343   65.1377 O   0  0  0  0  0
   -3.9696   29.7635   63.3434 O   0  0  0  0  0
  2  3  1  0  0  0
  2  7  1  0  0  0
  4  5  1  0  0  0
  4 24  1  0  0  0
  5 23  1  0  0  0
  6 22  1  0  0  0
  6  1  1  0  0  0
  7 26  1  0  0  0
  8  9  1  0  0  0
  9 10  1  0  0  0
 11 12  1  0  0  0
 11 34  1  0  0  0
 12 33  1  0  0  0
 13 14  1  0  0  0
 13 27  1  0  0  0
 15 26  1  0  0  0
 15 10  1  0  0  0
 16 27  1  0  0  0
 16 17  1  0  0  0
 16 28  1  0  0  0
 17 18  1  0  0  0
 17 32  1  0  0  0
 18 19  1  0  0  0
 18 31  1  0  0  0
 19 20  1  0  0  0
 19 30  1  0  0  0
 20 28  1  0  0  0
 20 21  1  0  0  0
 21 29  1  0  0  0
  1  2  2  0  0  0
  3  4  2  0  0  0
  5  6  2  0  0  0
  7  8  2  0  0  0
  9 25  2  0  0  0
 10 11  2  0  0  0
 12 13  2  0  0  0
 14 15  2  0  0  0
M  END
> <rmsd>
0.773652136

$$$$
PubChem-14825135


 34 37  0  0  0  0  0  0  0  0999 V2000
   -4.7375   31.1582   60.7353 O   0  0  0  0  0
   -0.9119   30.2879   59.9194 O   0  0  0  0  0
    0.8389   29.2708   61.7343 O   0  0  0  0  0
    3.0661   29.0078   62.2870 O   0  0  0  0  0
    3.8300   30.0617   64.8559 O   0  0  0  0  0
    4.9121   26.2277   63.7828 O   0  0  0  0  0
    2.7422   24.9094   62.4379 O   0  0  0  0  0
    0.3961   26.5361   62.2738 O   0  0  0  0  0
   -0.1247   28.8467   64.4405 O   0  0  0  0  0
   -2.7697   29.4048   65.0452 O   0  0  0  0  0
    2.1252   30.5379   55.8740 O   0  0  0  0  0
    0.5613   31.5679   53.7921 O   0  0  0  0  0
   -2.1231   32.2100   54.2643 O   0  0  0  0  0
   -3.5323   30.8802   60.4927 C   0  0  0  0  0
   -3.0227   31.0900   59.2139 C   0  0  0  0  0
   -1.6817   30.7791   58.9484 C   0  0  0  0  0
   -1.3534   30.0707   61.1567 C   0  0  0  0  0
   -0.4823   29.5462   62.1244 C   0  0  0  0  0
    1.7640   28.4988   62.4902 C   0  0  0  0  0
    3.9683   28.3649   63.1696 C   0  0  0  0  0
    3.6884   28.6912   64.6400 C   0  0  0  0  0
    4.0536   26.8581   62.8794 C   0  0  0  0  0
    2.6692   26.2164   62.9221 C   0  0  0  0  0
    1.6890   27.0241   62.0768 C   0  0  0  0  0
   -0.9606   29.3310   63.4400 C   0  0  0  0  0
   -2.2945   29.6210   63.7577 C   0  0  0  0  0
   -3.1553   30.1330   62.7877 C   0  0  0  0  0
   -2.6943   30.3631   61.4883 C   0  0  0  0  0
   -1.1094   30.9888   57.6034 C   0  0  0  0  0
    0.2337   30.6694   57.3600 C   0  0  0  0  0
    0.7921   30.8611   56.0933 C   0  0  0  0  0
    0.0080   31.3764   55.0533 C   0  0  0  0  0
   -1.3349   31.6982   55.2873 C   0  0  0  0  0
   -1.8886   31.5047   56.5559 C   0  0  0  0  0
 14 15  1  0  0  0
 16  2  1  0  0  0
 16 29  1  0  0  0
 17  2  1  0  0  0
 18  3  1  0  0  0
 18 25  1  0  0  0
 19  3  1  0  0  0
 19  4  1  0  0  0
 20  4  1  0  0  0
 20 21  1  0  0  0
 20 22  1  0  0  0
 21  5  1  0  0  0
 22  6  1  0  0  0
 22 23  1  0  0  0
 23  7  1  0  0  0
 23 24  1  0  0  0
 24  8  1  0  0  0
 24 19  1  0  0  0
 25  9  1  0  0  0
 26 10  1  0  0  0
 26 27  1  0  0  0
 28 14  1  0  0  0
 28 17  1  0  0  0
 29 34  1  0  0  0
 30 31  1  0  0  0
 31 11  1  0  0  0
 32 12  1  0  0  0
 32 33  1  0  0  0
 33 13  1  0  0  0
 14  1  2  0  0  0
 15 16  2  0  0  0
 17 18  2  0  0  0
 25 26  2  0  0  0
 27 28  2  0  0  0
 29 30  2  0  0  0
 31 32  2  0  0  0
 33 34  2  0  0  0
M  END
> <rmsd>
0.850636244

$$$$
PubChem-136647449


 41 44  0  0  0  0  0  0  0  0999 V2000
    0.3384   26.6832   62.1949 C   0  0  0  0  0
    1.2780   27.8836   62.1329 C   0  0  0  0  0
    2.6699   27.5611   62.6577 C   0  0  0  0  0
    2.6693   26.7410   63.9647 C   0  0  0  0  0
    2.1857   27.5593   65.2014 C   0  0  0  0  0
    0.6647   27.8822   65.1977 C   0  0  0  0  0
   -0.1831   26.6657   64.7299 C   0  0  0  0  0
    0.4213   25.8935   63.5172 C   0  0  0  0  0
    2.4108   24.4481   62.9305 C   0  0  0  0  0
    0.2806   29.0271   60.1027 C   0  0  0  0  0
    0.4559   29.4644   58.7052 C   0  0  0  0  0
    0.2462   30.2605   56.6684 C   0  0  0  0  0
   -0.4533   30.0743   57.8407 C   0  0  0  0  0
   -1.7947   30.4712   57.9592 C   0  0  0  0  0
   -2.4104   31.0724   56.8459 C   0  0  0  0  0
   -1.6922   31.2649   55.6469 C   0  0  0  0  0
   -0.3500   30.8576   55.5467 C   0  0  0  0  0
    2.5970   29.7726   55.8406 C   0  0  0  0  0
    1.8335   25.5094   63.8224 N   0  0  0  0  0
    1.3712   28.3861   60.7707 N   0  0  0  0  0
    1.6289   29.3069   58.0507 N   0  0  0  0  0
    1.5050   29.7876   56.8196 N   0  0  0  0  0
    1.6220   23.2970   62.9610 O   0  0  0  0  0
    2.5040   24.8929   61.6097 O   0  0  0  0  0
    3.6826   24.0751   63.3682 O   0  0  0  0  0
   -0.3705   24.7527   63.3446 O   0  0  0  0  0
   -0.2903   25.7675   65.7996 O   0  0  0  0  0
   -1.4728   27.1021   64.4050 O   0  0  0  0  0
    0.2753   28.2284   66.4977 O   0  0  0  0  0
    0.4057   28.9941   64.3902 O   0  0  0  0  0
    2.9092   28.7551   65.2771 O   0  0  0  0  0
    2.4728   26.8101   66.3498 O   0  0  0  0  0
    4.0031   26.4014   64.2166 O   0  0  0  0  0
   -0.8021   29.2173   60.7152 O   0  0  0  0  0
    0.3460   31.0513   54.3597 O   0  0  0  0  0
   -2.3161   31.8609   54.5563 O   0  0  0  0  0
   -3.7375   31.4796   56.9275 O   0  0  0  0  0
   -2.5199   30.2863   59.1283 O   0  0  0  0  0
    2.9026   31.0778   55.4530 O   0  0  0  0  0
    3.7367   29.1926   56.4021 O   0  0  0  0  0
    2.2194   29.0281   54.7224 O   0  0  0  0  0
  1  2  1  0  0  0
  2  3  1  0  0  0
  2 20  1  0  0  0
  3  4  1  0  0  0
  4  5  1  0  0  0
  4 33  1  0  0  0
  4 19  1  0  0  0
  5  6  1  0  0  0
  5 31  1  0  0  0
  5 32  1  0  0  0
  6  7  1  0  0  0
  6 29  1  0  0  0
  6 30  1  0  0  0
  7  8  1  0  0  0
  7 27  1  0  0  0
  7 28  1  0  0  0
  8 19  1  0  0  0
  8 26  1  0  0  0
  8  1  1  0  0  0
  9 19  1  0  0  0
  9 23  1  0  0  0
  9 24  1  0  0  0
  9 25  1  0  0  0
 10 11  1  0  0  0
 13 14  1  0  0  0
 13 11  1  0  0  0
 14 38  1  0  0  0
 15 16  1  0  0  0
 15 37  1  0  0  0
 16 36  1  0  0  0
 17 35  1  0  0  0
 17 12  1  0  0  0
 18 22  1  0  0  0
 18 39  1  0  0  0
 18 40  1  0  0  0
 18 41  1  0  0  0
 20 10  1  0  0  0
 22 21  1  0  0  0
 22 12  1  0  0  0
 10 34  2  0  0  0
 11 21  2  0  0  0
 12 13  2  0  0  0
 14 15  2  0  0  0
 16 17  2  0  0  0
M  END
> <rmsd>
0.572525501

$$$$
PubChem-136647449


 41 44  0  0  0  0  0  0  0  0999 V2000
    0.9424   26.3647   61.4616 C   0  0  0  0  0
    1.5920   27.7415   61.5152 C   0  0  0  0  0
    1.0483   28.6210   62.6339 C   0  0  0  0  0
    0.9423   27.8730   63.9814 C   0  0  0  0  0
    2.3306   27.5445   64.6137 C   0  0  0  0  0
    3.1278   26.4300   63.8732 C   0  0  0  0  0
    2.2100   25.2552   63.4303 C   0  0  0  0  0
    0.8320   25.7008   62.8534 C   0  0  0  0  0
   -1.3231   26.7598   63.6457 C   0  0  0  0  0
    0.3837   28.8656   59.5485 C   0  0  0  0  0
    0.5073   29.4209   58.1885 C   0  0  0  0  0
    0.2157   30.3764   56.2326 C   0  0  0  0  0
   -0.4316   30.1091   57.4179 C   0  0  0  0  0
   -1.7504   30.5363   57.6425 C   0  0  0  0  0
   -2.4075   31.2325   56.6108 C   0  0  0  0  0
   -1.7465   31.4998   55.3928 C   0  0  0  0  0
   -0.4196   31.0739   55.1929 C   0  0  0  0  0
    2.5215   29.9299   55.2606 C   0  0  0  0  0
    0.1595   26.6055   63.8349 N   0  0  0  0  0
    1.5643   28.4110   60.2183 N   0  0  0  0  0
    1.6490   29.3077   57.4711 N   0  0  0  0  0
    1.4743   29.8818   56.2881 N   0  0  0  0  0
   -1.8755   27.5914   64.6208 O   0  0  0  0  0
   -1.9547   25.5208   63.7672 O   0  0  0  0  0
   -1.6168   27.2867   62.3874 O   0  0  0  0  0
    0.0828   24.5313   62.6653 O   0  0  0  0  0
    1.9623   24.4482   64.5490 O   0  0  0  0  0
    2.8814   24.4768   62.4795 O   0  0  0  0  0
    4.1121   25.9348   64.7346 O   0  0  0  0  0
    3.7961   26.9660   62.7670 O   0  0  0  0  0
    3.1060   28.7069   64.6635 O   0  0  0  0  0
    2.1093   27.1189   65.9302 O   0  0  0  0  0
    0.3068   28.7504   64.8684 O   0  0  0  0  0
   -0.7374   28.7812   60.1168 O   0  0  0  0  0
    0.2211   31.3493   53.9922 O   0  0  0  0  0
   -2.4116   32.1871   54.3841 O   0  0  0  0  0
   -3.7183   31.6633   56.7920 O   0  0  0  0  0
   -2.4074   30.3004   58.8422 O   0  0  0  0  0
    3.6776   29.2980   55.7239 O   0  0  0  0  0
    2.8248   31.2590   54.9583 O   0  0  0  0  0
    2.0804   29.2755   54.1082 O   0  0  0  0  0
  1  2  1  0  0  0
  2  3  1  0  0  0
  2 20  1  0  0  0
  3  4  1  0  0  0
  4  5  1  0  0  0
  4 33  1  0  0  0
  4 19  1  0  0  0
  5  6  1  0  0  0
  5 31  1  0  0  0
  5 32  1  0  0  0
  6  7  1  0  0  0
  6 29  1  0  0  0
  6 30  1  0  0  0
  7  8  1  0  0  0
  7 27  1  0  0  0
  7 28  1  0  0  0
  8 19  1  0  0  0
  8 26  1  0  0  0
  8  1  1  0  0  0
  9 19  1  0  0  0
  9 23  1  0  0  0
  9 24  1  0  0  0
  9 25  1  0  0  0
 10 11  1  0  0  0
 13 14  1  0  0  0
 13 11  1  0  0  0
 14 38  1  0  0  0
 15 16  1  0  0  0
 15 37  1  0  0  0
 16 36  1  0  0  0
 17 35  1  0  0  0
 17 12  1  0  0  0
 18 22  1  0  0  0
 18 39  1  0  0  0
 18 40  1  0  0  0
 18 41  1  0  0  0
 20 10  1  0  0  0
 22 21  1  0  0  0
 22 12  1  0  0  0
 10 34  2  0  0  0
 11 21  2  0  0  0
 12 13  2  0  0  0
 14 15  2  0  0  0
 16 17  2  0  0  0
M  END
> <rmsd>
0.725010395

$$$$
PubChem-163002448


 42 46  0  0  0  0  0  0  0  0999 V2000
   -4.7752   31.1693   60.7046 O   0  0  0  0  0
   -0.9416   30.3039   59.9518 O   0  0  0  0  0
    0.8140   29.3277   61.7510 O   0  0  0  0  0
    3.0459   28.9965   62.2198 O   0  0  0  0  0
    4.8688   26.2681   63.7285 O   0  0  0  0  0
    2.7234   24.9462   62.2932 O   0  0  0  0  0
    0.3405   26.5850   62.3356 O   0  0  0  0  0
   -0.1068   28.9114   64.4561 O   0  0  0  0  0
   -2.6899   29.3727   65.1355 O   0  0  0  0  0
   -4.0735   29.3630   66.9889 O   0  0  0  0  0
   -5.7252   27.2379   67.9511 O   0  0  0  0  0
   -6.6241   26.5681   65.4184 O   0  0  0  0  0
   -3.8797   26.8537   65.6520 O   0  0  0  0  0
   -4.5005   30.4597   63.1858 O   0  0  0  0  0
    2.1310   30.5241   55.9311 O   0  0  0  0  0
    0.5808   31.5268   53.8256 O   0  0  0  0  0
   -2.1101   32.1627   54.2686 O   0  0  0  0  0
   -3.5647   30.8889   60.4970 C   0  0  0  0  0
   -3.0433   31.0874   59.2223 C   0  0  0  0  0
   -1.7028   30.7809   58.9706 C   0  0  0  0  0
   -1.3886   30.0956   61.1884 C   0  0  0  0  0
   -0.5079   29.5891   62.1506 C   0  0  0  0  0
    1.7435   28.5343   62.4797 C   0  0  0  0  0
    3.8902   28.3671   63.1506 C   0  0  0  0  0
    4.0284   26.8860   62.8029 C   0  0  0  0  0
    2.6487   26.2287   62.8380 C   0  0  0  0  0
    1.6245   27.0604   62.0637 C   0  0  0  0  0
   -0.9683   29.3749   63.4670 C   0  0  0  0  0
   -2.3022   29.6335   63.8096 C   0  0  0  0  0
   -4.0347   29.2555   65.5863 C   0  0  0  0  0
   -5.4246   29.5376   67.3445 C   0  0  0  0  0
   -6.2116   28.2443   67.1127 C   0  0  0  0  0
   -6.0830   27.8367   65.6391 C   0  0  0  0  0
   -4.6350   27.9139   65.1409 C   0  0  0  0  0
   -3.1883   30.1523   62.8379 C   0  0  0  0  0
   -2.7344   30.3805   61.5194 C   0  0  0  0  0
   -1.1200   30.9793   57.6284 C   0  0  0  0  0
    0.2264   30.6630   57.3996 C   0  0  0  0  0
    0.7948   30.8441   56.1358 C   0  0  0  0  0
    0.0176   31.3457   55.0840 C   0  0  0  0  0
   -1.3286   31.6645   55.3034 C   0  0  0  0  0
   -1.8922   31.4815   56.5691 C   0  0  0  0  0
 18 19  1  0  0  0
 20  2  1  0  0  0
 20 37  1  0  0  0
 21  2  1  0  0  0
 21 36  1  0  0  0
 22  3  1  0  0  0
 22 28  1  0  0  0
 23  3  1  0  0  0
 23  4  1  0  0  0
 24  4  1  0  0  0
 24 25  1  0  0  0
 25  5  1  0  0  0
 25 26  1  0  0  0
 26  6  1  0  0  0
 26 27  1  0  0  0
 27  7  1  0  0  0
 27 23  1  0  0  0
 28  8  1  0  0  0
 29  9  1  0  0  0
 29 35  1  0  0  0
 30  9  1  0  0  0
 30 10  1  0  0  0
 31 10  1  0  0  0
 31 32  1  0  0  0
 32 11  1  0  0  0
 32 33  1  0  0  0
 33 12  1  0  0  0
 33 34  1  0  0  0
 34 13  1  0  0  0
 34 30  1  0  0  0
 35 14  1  0  0  0
 36 18  1  0  0  0
 37 42  1  0  0  0
 38 39  1  0  0  0
 39 15  1  0  0  0
 40 16  1  0  0  0
 40 41  1  0  0  0
 41 17  1  0  0  0
 18  1  2  0  0  0
 19 20  2  0  0  0
 21 22  2  0  0  0
 28 29  2  0  0  0
 35 36  2  0  0  0
 37 38  2  0  0  0
 39 40  2  0  0  0
 41 42  2  0  0  0
M  END
> <rmsd>
0.836355627

$$$$
PubChem-136649640


 39 41  0  0  0  0  0  0  0  0999 V2000
    0.7414   23.1112   65.0854 C   0  0  0  0  0
    1.1288   23.3893   63.6414 C   0  0  0  0  0
    2.2222   24.4915   63.5276 C   0  0  0  0  0
    1.8178   25.8719   64.1673 C   0  0  0  0  0
    2.8320   27.0385   63.8558 C   0  0  0  0  0
    2.7781   27.4835   62.3789 C   0  0  0  0  0
    1.5243   28.2769   62.0562 C   0  0  0  0  0
    1.4783   29.5043   62.9464 C   0  0  0  0  0
    1.5019   29.1048   64.4222 C   0  0  0  0  0
    3.8049   29.0278   64.8981 C   0  0  0  0  0
    0.4229   29.2511   59.9913 C   0  0  0  0  0
    0.5549   29.6524   58.5783 C   0  0  0  0  0
    0.2827   30.3970   56.5294 C   0  0  0  0  0
   -0.3744   30.2581   57.7324 C   0  0  0  0  0
   -1.6982   30.6967   57.8939 C   0  0  0  0  0
   -2.3441   31.2807   56.7885 C   0  0  0  0  0
   -1.6710   31.4197   55.5564 C   0  0  0  0  0
   -0.3438   30.9773   55.4153 C   0  0  0  0  0
    2.5909   29.8410   55.6280 C   0  0  0  0  0
    2.6076   28.1963   64.7789 N   0  0  0  0  0
    1.5498   28.6730   60.6562 N   0  0  0  0  0
    1.6993   29.4546   57.8849 N   0  0  0  0  0
    1.5372   29.9034   56.6462 N   0  0  0  0  0
    0.2716   28.5961   64.8387 O   0  0  0  0  0
   -0.6613   29.3984   60.6131 O   0  0  0  0  0
    0.3087   31.1215   54.1970 O   0  0  0  0  0
   -2.3245   31.9991   54.4742 O   0  0  0  0  0
   -3.6560   31.7251   56.9116 O   0  0  0  0  0
   -2.3760   30.5737   59.0990 O   0  0  0  0  0
    2.1578   29.0741   54.5456 O   0  0  0  0  0
    3.7403   29.2546   56.1622 O   0  0  0  0  0
    2.9053   31.1292   55.1931 O   0  0  0  0  0
    4.1240   26.5393   64.0722 O   0  0  0  0  0
    0.5427   26.2198   63.7147 O   0  0  0  0  0
    1.7558   25.7194   65.5569 O   0  0  0  0  0
    2.5027   24.6719   62.1696 O   0  0  0  0  0
    3.3810   24.0144   64.1518 O   0  0  0  0  0
    1.6173   22.2013   63.0926 O   0  0  0  0  0
   -0.0169   23.7588   62.9335 O   0  0  0  0  0
  1  2  1  0  0  0
  2  3  1  0  0  0
  2 38  1  0  0  0
  2 39  1  0  0  0
  3  4  1  0  0  0
  3 36  1  0  0  0
  3 37  1  0  0  0
  4  5  1  0  0  0
  4 34  1  0  0  0
  4 35  1  0  0  0
  5  6  1  0  0  0
  5 33  1  0  0  0
  5 20  1  0  0  0
  6  7  1  0  0  0
  7  8  1  0  0  0
  7 21  1  0  0  0
  8  9  1  0  0  0
  9 20  1  0  0  0
  9 24  1  0  0  0
 10 20  1  0  0  0
 11 12  1  0  0  0
 14 15  1  0  0  0
 14 12  1  0  0  0
 15 29  1  0  0  0
 16 17  1  0  0  0
 16 28  1  0  0  0
 17 27  1  0  0  0
 18 26  1  0  0  0
 18 13  1  0  0  0
 19 23  1  0  0  0
 19 30  1  0  0  0
 19 31  1  0  0  0
 19 32  1  0  0  0
 21 11  1  0  0  0
 23 22  1  0  0  0
 23 13  1  0  0  0
 11 25  2  0  0  0
 12 22  2  0  0  0
 13 14  2  0  0  0
 15 16  2  0  0  0
 17 18  2  0  0  0
M  END
> <rmsd>
0.624507308

$$$$
