MolPort-006-822-498 CSSS00020617458 LN01285449 MCULE-4568201349 PubChem-3659


 36 39  0  0  0  0  0  0  0  0999 V2000
    6.4931   17.1199   68.7948 C   0  0  0  0  0
    6.3330   18.8776   70.3434 C   0  0  0  0  0
    7.4475   19.8613   69.9678 C   0  0  0  0  0
    6.9927   21.3247   69.8196 C   0  0  0  0  0
    5.4992   21.4765   69.4807 C   0  0  0  0  0
    4.5911   20.7516   70.4876 C   0  0  0  0  0
    2.7532   21.5430   71.4451 C   0  0  0  0  0
    0.9646   20.6542   72.5944 C   0  0  0  0  0
    0.5908   19.6545   71.4974 C   0  0  0  0  0
    0.1309   21.9366   72.5204 C   0  0  0  0  0
    0.6239   22.8858   71.4251 C   0  0  0  0  0
    1.0459   23.1225   69.2784 C   0  0  0  0  0
    2.1164   22.9258   71.2517 C   0  0  0  0  0
   -0.7013   24.2409   68.2566 C   0  0  0  0  0
   -1.4452   25.5801   68.1846 C   0  0  0  0  0
   -0.7877   26.5909   67.2543 C   0  0  0  0  0
   -0.6247   23.4576   66.9319 C   0  0  0  0  0
   -0.0122   22.0800   67.1959 C   0  0  0  0  0
    1.2551   22.1993   68.0557 C   0  0  0  0  0
    5.2671   19.5629   71.1958 C   0  0  0  0  0
    5.7386   18.3178   69.1387 N   0  0  0  0  0
    7.8033   21.9814   68.8058 N   0  0  0  0  0
   -2.8244   25.3632   67.7890 N   0  0  0  0  0
    5.2355   21.0110   68.1905 O   0  0  0  0  0
    4.1443   21.6646   71.4418 O   0  0  0  0  0
    2.3503   20.9421   72.6601 O   0  0  0  0  0
    1.2122   18.4250   71.7378 O   0  0  0  0  0
    0.1849   22.5897   73.7547 O   0  0  0  0  0
    0.1248   22.5348   70.1785 O   0  0  0  0  0
    2.2971   23.3159   69.9195 O   0  0  0  0  0
    0.5743   24.3902   68.8455 O   0  0  0  0  0
    0.3845   27.0735   67.8285 O   0  0  0  0  0
    0.1481   24.1455   65.9903 O   0  0  0  0  0
   -0.9535   21.2639   67.8176 O   0  0  0  0  0
    1.7050   20.9334   68.4513 O   0  0  0  0  0
    4.3036   18.6445   71.5935 O   0  0  0  0  0
  1 21  1  0  0  0
  2 21  1  0  0  0
  2  3  1  0  0  0
  3  4  1  0  0  0
  4 22  1  0  0  0
  4  5  1  0  0  0
  5 24  1  0  0  0
  5  6  1  0  0  0
  6 25  1  0  0  0
  6 20  1  0  0  0
  7 25  1  0  0  0
  7 26  1  0  0  0
  8 26  1  0  0  0
  8  9  1  0  0  0
  8 10  1  0  0  0
  9 27  1  0  0  0
 10 28  1  0  0  0
 10 11  1  0  0  0
 11 29  1  0  0  0
 12 29  1  0  0  0
 12 30  1  0  0  0
 12 31  1  0  0  0
 13 30  1  0  0  0
 13  7  1  0  0  0
 13 11  1  0  0  0
 14 31  1  0  0  0
 14 15  1  0  0  0
 14 17  1  0  0  0
 15 23  1  0  0  0
 15 16  1  0  0  0
 16 32  1  0  0  0
 17 33  1  0  0  0
 17 18  1  0  0  0
 18 34  1  0  0  0
 18 19  1  0  0  0
 19 35  1  0  0  0
 19 12  1  0  0  0
 20 36  1  0  0  0
 20  2  1  0  0  0
M  END
> <rmsd>
0.7159338

$$$$
MolPort-046-856-815 Molport-047-579-525 71788526 LN02182337 MCULE-1045742625 MCULE-7164244671 MCULE-9193085917 PubChem-163332236 PubChem-9850347 ZINC000071788526


 38 37  0  0  0  0  0  0  0  0999 V2000
    1.7134   24.9911   64.2925 C   0  0  0  0  0
    1.9135   23.5148   64.5871 C   0  0  0  0  0
    2.9696   23.3014   65.6336 C   0  0  0  0  0
    5.4001   23.5211   66.3092 C   0  0  0  0  0
    5.7341   22.0405   66.4586 C   0  0  0  0  0
    6.3949   21.7731   67.7684 C   0  0  0  0  0
    6.5937   24.2826   65.8297 C   0  0  0  0  0
   -0.1998   23.2391   66.0164 C   0  0  0  0  0
   -1.3704   22.3635   66.3598 C   0  0  0  0  0
   -2.5311   23.1235   67.0196 C   0  0  0  0  0
   -3.6654   22.1760   67.3704 C   0  0  0  0  0
   -3.0718   24.1916   66.0854 C   0  0  0  0  0
   -0.3807   21.3513   68.4960 C   0  0  0  0  0
    0.1127   20.1240   69.1893 C   0  0  0  0  0
   -0.6499   19.8885   70.4901 C   0  0  0  0  0
   -2.0285   19.3907   70.2156 C   0  0  0  0  0
    2.3563   19.1516   69.8476 C   0  0  0  0  0
    3.8118   19.3781   70.1101 C   0  0  0  0  0
    4.6959   18.4217   69.2989 C   0  0  0  0  0
    6.1633   18.6450   69.6167 C   0  0  0  0  0
    4.4934   18.6335   67.8079 C   0  0  0  0  0
    4.4473   20.3350   72.3539 C   0  0  0  0  0
    4.6695   20.1300   73.8068 C   0  0  0  0  0
    2.6793   22.7853   66.7487 O   0  0  0  0  0
    5.7748   21.9763   68.8446 O   0  0  0  0  0
    7.6946   21.2878   67.8004 O   0  0  0  0  0
    7.5787   24.4067   66.5391 O   0  0  0  0  0
    0.0782   24.2443   66.7275 O   0  0  0  0  0
   -0.3146   22.4734   69.0700 O   0  0  0  0  0
   -3.0235   20.0752   70.5677 O   0  0  0  0  0
   -2.2172   18.1706   69.5791 O   0  0  0  0  0
    1.8561   18.0028   69.9911 O   0  0  0  0  0
    4.5947   21.4822   71.8561 O   0  0  0  0  0
    4.3165   23.6880   65.3523 N   0  0  0  0  0
    0.6481   22.8646   64.9240 N   0  0  0  0  0
   -0.9246   21.2349   67.1767 N   0  0  0  0  0
    1.5386   20.2542   69.4550 N   0  0  0  0  0
    4.0687   19.2290   71.5360 N   0  0  0  0  0
  2  1  1  0  0  0
  2  3  1  0  0  0
  2 35  1  0  0  0
  3 34  1  0  0  0
  4 34  1  0  0  0
  4  5  1  0  0  0
  4  7  1  0  0  0
  5  6  1  0  0  0
  6 26  1  0  0  0
  9  8  1  0  0  0
  9 10  1  0  0  0
  9 36  1  0  0  0
 10 11  1  0  0  0
 10 12  1  0  0  0
 14 13  1  0  0  0
 14 15  1  0  0  0
 14 37  1  0  0  0
 15 16  1  0  0  0
 16 31  1  0  0  0
 18 17  1  0  0  0
 18 19  1  0  0  0
 18 38  1  0  0  0
 19 20  1  0  0  0
 19 21  1  0  0  0
 23 22  1  0  0  0
 35  8  1  0  0  0
 36 13  1  0  0  0
 37 17  1  0  0  0
 38 22  1  0  0  0
  3 24  2  0  0  0
  6 25  2  0  0  0
  7 27  2  0  0  0
  8 28  2  0  0  0
 13 29  2  0  0  0
 16 30  2  0  0  0
 17 32  2  0  0  0
 22 33  2  0  0  0
M  END
> <rmsd>
0.686930716

$$$$
Molport-053-175-684 MCULE-8321565977 PubChem-85136907


 41 40  0  0  0  0  0  0  0  0999 V2000
    9.8586   18.8205   70.5203 C   0  0  0  0  0
    8.4432   18.5928   70.1344 C   0  0  0  0  0
    6.0133   19.2730   70.3308 C   0  0  0  0  0
    5.7469   19.8053   68.9161 C   0  0  0  0  0
    6.2294   21.2058   68.7029 C   0  0  0  0  0
    5.1231   19.8917   71.3598 C   0  0  0  0  0
    3.4103   19.5005   73.2271 C   0  0  0  0  0
    4.1358   20.3416   74.2794 C   0  0  0  0  0
    3.3105   20.4594   75.5550 C   0  0  0  0  0
    3.3142   19.1532   76.3339 C   0  0  0  0  0
    4.8076   18.8146   78.2057 C   0  0  0  0  0
    2.2357   20.1969   72.6009 C   0  0  0  0  0
    0.1087   20.0042   71.2368 C   0  0  0  0  0
    0.5046   20.7195   69.9922 C   0  0  0  0  0
    1.3401   20.5334   67.5659 C   0  0  0  0  0
    2.3282   21.6916   67.6863 C   0  0  0  0  0
    2.9128   22.0467   66.3591 C   0  0  0  0  0
    0.1069   20.9083   66.8026 C   0  0  0  0  0
   -1.8426   22.4873   66.4597 C   0  0  0  0  0
   -2.7331   23.3458   67.3447 C   0  0  0  0  0
   -1.3398   23.2825   65.2975 C   0  0  0  0  0
    8.1622   17.6941   69.2973 O   0  0  0  0  0
    5.4015   22.1308   68.5057 O   0  0  0  0  0
    7.5872   21.4894   68.6955 O   0  0  0  0  0
    5.0863   21.1446   71.5052 O   0  0  0  0  0
    2.0966   21.4470   72.7009 O   0  0  0  0  0
    0.4047   21.9743   69.9418 O   0  0  0  0  0
    3.6276   21.2185   65.7369 O   0  0  0  0  0
    2.6702   23.2974   65.8089 O   0  0  0  0  0
   -0.1909   20.2621   65.7628 O   0  0  0  0  0
   -3.9517   23.5858   66.7065 O   0  0  0  0  0
   -1.5733   22.8940   64.1247 O   0  0  0  0  0
   -0.5958   24.4381   65.5064 O   0  0  0  0  0
    7.4146   19.3975   70.7147 N   0  0  0  0  0
    4.3396   19.0368   72.2000 N   0  0  0  0  0
    4.6257   18.9291   76.9273 N   0  0  0  0  0
    3.7129   18.9056   79.1150 N   0  0  0  0  0
    6.1192   18.6002   78.7104 N   0  0  0  0  0
    1.2755   19.4202   71.8806 N   0  0  0  0  0
    1.0052   19.9744   68.8749 N   0  0  0  0  0
   -0.7181   21.9926   67.2409 N   0  0  0  0  0
  1  2  1  0  0  0
  2 34  1  0  0  0
  3 34  1  0  0  0
  3  4  1  0  0  0
  3  6  1  0  0  0
  4  5  1  0  0  0
  5 24  1  0  0  0
  6 35  1  0  0  0
  7 35  1  0  0  0
  7  8  1  0  0  0
  7 12  1  0  0  0
  8  9  1  0  0  0
  9 10  1  0  0  0
 10 36  1  0  0  0
 11 37  1  0  0  0
 11 38  1  0  0  0
 12 39  1  0  0  0
 13 39  1  0  0  0
 13 14  1  0  0  0
 14 40  1  0  0  0
 15 40  1  0  0  0
 15 16  1  0  0  0
 15 18  1  0  0  0
 16 17  1  0  0  0
 17 29  1  0  0  0
 18 41  1  0  0  0
 19 41  1  0  0  0
 19 20  1  0  0  0
 19 21  1  0  0  0
 20 31  1  0  0  0
 21 33  1  0  0  0
  2 22  2  0  0  0
  5 23  2  0  0  0
  6 25  2  0  0  0
 11 36  2  0  0  0
 12 26  2  0  0  0
 14 27  2  0  0  0
 17 28  2  0  0  0
 18 30  2  0  0  0
 21 32  2  0  0  0
M  END
> <rmsd>
0.702235281

$$$$
MolPort-046-702-561 MCULE-6628110408 PubChem-158828385 PubChem-3600220


 24 25  0  0  0  0  0  0  0  0999 V2000
    1.1285   26.8887   68.3246 C   0  0  0  0  0
    0.0017   25.0191   67.9565 C   0  0  0  0  0
   -0.8020   24.2041   68.9729 C   0  0  0  0  0
   -0.1310   22.8532   69.2086 C   0  0  0  0  0
    0.1694   22.1432   67.8907 C   0  0  0  0  0
    0.9044   23.0880   66.9328 C   0  0  0  0  0
    2.3854   23.2559   67.2654 C   0  0  0  0  0
    3.7351   21.9351   68.4173 C   0  0  0  0  0
    3.2074   20.7878   69.3019 C   0  0  0  0  0
    4.3263   20.2243   70.1858 C   0  0  0  0  0
    5.3751   21.2800   70.5699 C   0  0  0  0  0
    5.7642   22.1569   69.3608 C   0  0  0  0  0
    7.2714   22.1524   69.1561 C   0  0  0  0  0
    1.1870   25.5080   68.5159 O   0  0  0  0  0
    0.2396   24.3289   66.7354 O   0  0  0  0  0
    3.0354   22.0211   67.2102 O   0  0  0  0  0
    5.1088   21.7747   68.1716 O   0  0  0  0  0
    7.7129   20.8780   68.7942 O   0  0  0  0  0
    4.8900   22.1003   71.5907 O   0  0  0  0  0
    3.7912   19.6128   71.3209 O   0  0  0  0  0
    2.6847   19.7552   68.5199 O   0  0  0  0  0
   -1.0065   21.6856   67.2911 O   0  0  0  0  0
   -0.9079   22.0480   70.0442 O   0  0  0  0  0
   -2.1116   24.0386   68.5156 O   0  0  0  0  0
  1 14  1  0  0  0
  2 14  1  0  0  0
  2  3  1  0  0  0
  2 15  1  0  0  0
  3  4  1  0  0  0
  3 24  1  0  0  0
  4  5  1  0  0  0
  4 23  1  0  0  0
  5  6  1  0  0  0
  5 22  1  0  0  0
  6 15  1  0  0  0
  6  7  1  0  0  0
  7 16  1  0  0  0
  8 16  1  0  0  0
  8  9  1  0  0  0
  8 17  1  0  0  0
  9 10  1  0  0  0
  9 21  1  0  0  0
 10 11  1  0  0  0
 10 20  1  0  0  0
 11 12  1  0  0  0
 11 19  1  0  0  0
 12 17  1  0  0  0
 12 13  1  0  0  0
 13 18  1  0  0  0
M  END
> <rmsd>
0.649930477

$$$$
Molport-053-110-193 MCULE-1924363487 MCULE-7391755458


 41 41  0  0  0  0  0  0  0  0999 V2000
    3.1256   17.0315   72.6605 C   0  0  0  0  0
    3.5741   17.9226   71.5490 C   0  0  0  0  0
    3.7118   20.2719   70.5608 C   0  0  0  0  0
    4.2954   21.5724   71.1847 C   0  0  0  0  0
    4.6505   22.6698   70.1548 C   0  0  0  0  0
    5.7035   22.2316   69.1698 C   0  0  0  0  0
    7.1392   22.3712   69.4623 C   0  0  0  0  0
    2.5041   20.4653   69.5907 C   0  0  0  0  0
    1.2708   21.1485   70.2431 C   0  0  0  0  0
    0.2696   21.7233   69.2013 C   0  0  0  0  0
   -0.5556   20.6274   68.4984 C   0  0  0  0  0
   -0.5648   23.9509   69.4346 C   0  0  0  0  0
   -1.7011   24.7133   70.1805 C   0  0  0  0  0
   -2.9776   24.7452   69.3298 C   0  0  0  0  0
   -2.6904   25.4592   67.9890 C   0  0  0  0  0
   -4.2091   27.4947   67.7653 C   0  0  0  0  0
   -4.4345   28.9518   68.0077 C   0  0  0  0  0
   -1.2128   25.2379   67.5367 C   0  0  0  0  0
   -1.0494   25.2362   65.9958 C   0  0  0  0  0
   -1.4815   26.5531   65.2929 C   0  0  0  0  0
   -0.6216   27.7741   65.6871 C   0  0  0  0  0
    0.7783   24.5467   69.8156 C   0  0  0  0  0
    4.1555   17.4235   70.5479 O   0  0  0  0  0
    5.4404   21.2356   71.9279 O   0  0  0  0  0
    5.3488   21.7172   68.0756 O   0  0  0  0  0
    8.0801   21.9236   68.5437 O   0  0  0  0  0
    7.5279   22.8983   70.5380 O   0  0  0  0  0
    2.1254   19.2134   69.0762 O   0  0  0  0  0
    0.6270   20.2529   71.1148 O   0  0  0  0  0
   -1.5048   21.2006   67.6402 O   0  0  0  0  0
   -0.6280   22.5984   69.8790 O   0  0  0  0  0
   -3.4266   23.4368   69.0801 O   0  0  0  0  0
   -5.1115   26.8084   67.2139 O   0  0  0  0  0
   -0.7478   23.9852   68.0148 O   0  0  0  0  0
    0.2950   24.9528   65.6899 O   0  0  0  0  0
   -1.4744   26.3762   63.8970 O   0  0  0  0  0
   -1.0095   28.9028   64.9510 O   0  0  0  0  0
    1.7049   24.8806   68.8348 O   0  0  0  0  0
    1.0859   24.6936   71.0287 O   0  0  0  0  0
    3.3536   19.3378   71.6361 N   0  0  0  0  0
   -2.9613   26.8946   68.1402 N   0  0  0  0  0
  1  2  1  0  0  0
  2 40  1  0  0  0
  3 40  1  0  0  0
  3  4  1  0  0  0
  3  8  1  0  0  0
  4 24  1  0  0  0
  4  5  1  0  0  0
  5  6  1  0  0  0
  6  7  1  0  0  0
  7 26  1  0  0  0
  8 28  1  0  0  0
  8  9  1  0  0  0
  9 29  1  0  0  0
  9 10  1  0  0  0
 10 11  1  0  0  0
 10 31  1  0  0  0
 11 30  1  0  0  0
 12 31  1  0  0  0
 12 13  1  0  0  0
 12 22  1  0  0  0
 12 34  1  0  0  0
 13 14  1  0  0  0
 14 32  1  0  0  0
 14 15  1  0  0  0
 15 41  1  0  0  0
 15 18  1  0  0  0
 17 16  1  0  0  0
 18 34  1  0  0  0
 18 19  1  0  0  0
 19 35  1  0  0  0
 19 20  1  0  0  0
 20 36  1  0  0  0
 20 21  1  0  0  0
 21 37  1  0  0  0
 22 38  1  0  0  0
 41 16  1  0  0  0
  2 23  2  0  0  0
  6 25  2  0  0  0
  7 27  2  0  0  0
 16 33  2  0  0  0
 22 39  2  0  0  0
M  CHG  2  26  -1  38  -1
M  END
> <rmsd>
0.793703914

$$$$
Molport-046-935-292


 23 23  0  0  0  0  0  0  0  0999 V2000
    3.0499   25.0780   65.0091 O   0  0  0  0  0
    0.5559   24.3704   66.0018 O   0  0  0  0  0
    2.6582   22.7846   68.5359 O   0  0  0  0  0
    4.7959   21.9373   68.1641 O   0  0  0  0  0
    7.4726   21.6287   68.9207 O   0  0  0  0  0
    5.3336   21.4087   71.7493 O   0  0  0  0  0
    3.3657   19.4090   71.1140 O   0  0  0  0  0
    1.7186   20.0887   68.8770 O   0  0  0  0  0
    0.3275   22.3553   69.8153 O   0  0  0  0  0
   -1.6201   24.4537   68.1106 O   0  0  0  0  0
   -1.0585   20.9843   67.8228 O   0  0  0  0  0
    2.9194   24.0071   65.9053 C   0  0  0  0  0
    1.6923   24.2065   66.8127 C   0  0  0  0  0
    1.4722   23.0100   67.7830 C   0  0  0  0  0
    3.4071   21.6524   68.0973 C   0  0  0  0  0
    5.2101   22.2456   69.4885 C   0  0  0  0  0
    6.6864   22.6619   69.4491 C   0  0  0  0  0
    4.9899   21.0425   70.4371 C   0  0  0  0  0
    3.5166   20.6045   70.3921 C   0  0  0  0  0
    3.0869   20.3928   68.9330 C   0  0  0  0  0
    0.3348   23.3191   68.7944 C   0  0  0  0  0
   -1.0349   23.3814   68.1412 C   0  0  0  0  0
   -1.7026   22.1872   67.5005 C   0  0  0  0  0
 12  1  1  0  0  0
 12 13  1  0  0  0
 13  2  1  0  0  0
 13 14  1  0  0  0
 14  3  1  0  0  0
 14 21  1  0  0  0
 15  3  1  0  0  0
 15  4  1  0  0  0
 16  4  1  0  0  0
 16 17  1  0  0  0
 16 18  1  0  0  0
 17  5  1  0  0  0
 18  6  1  0  0  0
 18 19  1  0  0  0
 19  7  1  0  0  0
 19 20  1  0  0  0
 20  8  1  0  0  0
 20 15  1  0  0  0
 21  9  1  0  0  0
 21 22  1  0  0  0
 23 22  1  0  0  0
 23 11  1  0  0  0
 22 10  2  0  0  0
M  END
> <rmsd>
0.654243052

$$$$
MolPort-047-145-608 CSSS00161148745 MCULE-2432798859 PubChem-75009172


 33 35  0  0  0  0  0  0  0  0999 V2000
    7.2168   25.7014   65.6160 C   0  0  0  0  0
    7.7550   24.4109   65.6460 C   0  0  0  0  0
    7.6847   23.6507   66.8177 C   0  0  0  0  0
    7.0647   24.1751   67.9620 C   0  0  0  0  0
    6.5412   25.4722   67.9303 C   0  0  0  0  0
    6.6143   26.2334   66.7590 C   0  0  0  0  0
    6.9896   23.3833   69.2353 C   0  0  0  0  0
    8.1995   23.6140   70.0877 C   0  0  0  0  0
    5.4807   21.7477   69.1526 C   0  0  0  0  0
    5.2829   20.8383   70.3734 C   0  0  0  0  0
    4.1028   19.8778   70.1612 C   0  0  0  0  0
    2.9921   20.5547   69.3622 C   0  0  0  0  0
    3.5452   21.1522   68.0532 C   0  0  0  0  0
    2.9629   22.5340   67.7731 C   0  0  0  0  0
    0.9679   23.3194   68.3513 C   0  0  0  0  0
   -0.1174   24.1296   67.6266 C   0  0  0  0  0
   -1.2419   23.2197   67.1421 C   0  0  0  0  0
   -1.4563   22.0222   68.0725 C   0  0  0  0  0
   -0.8603   22.2501   69.4767 C   0  0  0  0  0
   -1.6964   23.2185   70.3026 C   0  0  0  0  0
    9.3367   23.2148   69.7099 O   0  0  0  0  0
    8.0668   24.2628   71.3115 O   0  0  0  0  0
    6.8410   22.0142   68.9751 O   0  0  0  0  0
    4.9607   21.1574   67.9810 O   0  0  0  0  0
    1.6023   22.4261   67.4779 O   0  0  0  0  0
    0.5110   22.6302   69.5100 O   0  0  0  0  0
   -2.9647   22.6862   70.5310 O   0  0  0  0  0
   -0.9017   20.8759   67.5012 O   0  0  0  0  0
   -2.4257   23.9518   67.0398 O   0  0  0  0  0
    0.4318   24.8257   66.5480 O   0  0  0  0  0
    1.9817   19.6363   69.0675 O   0  0  0  0  0
    3.6136   19.4081   71.3828 O   0  0  0  0  0
    5.0741   21.6366   71.5026 O   0  0  0  0  0
  2  3  1  0  0  0
  4  5  1  0  0  0
  6  1  1  0  0  0
  7  4  1  0  0  0
  7  8  1  0  0  0
  7 23  1  0  0  0
  8 22  1  0  0  0
  9 23  1  0  0  0
  9 10  1  0  0  0
  9 24  1  0  0  0
 10 11  1  0  0  0
 10 33  1  0  0  0
 11 12  1  0  0  0
 11 32  1  0  0  0
 12 13  1  0  0  0
 12 31  1  0  0  0
 13 24  1  0  0  0
 13 14  1  0  0  0
 14 25  1  0  0  0
 15 25  1  0  0  0
 15 16  1  0  0  0
 15 26  1  0  0  0
 16 17  1  0  0  0
 16 30  1  0  0  0
 17 18  1  0  0  0
 17 29  1  0  0  0
 18 19  1  0  0  0
 18 28  1  0  0  0
 19 26  1  0  0  0
 19 20  1  0  0  0
 20 27  1  0  0  0
  1  2  2  0  0  0
  3  4  2  0  0  0
  5  6  2  0  0  0
  8 21  2  0  0  0
M  END
> <rmsd>
0.796071708

$$$$
