Molport-006-111-672 Molport-051-912-675 13522851 LN02124825 MCULE-2660250643 MCULE-3600615609 PubChem-131728109 PubChem-90479496 PubChem-92797 ZINC000013522851 ZINC13522851


 23 23  0  0  0  0  0  0  0  0999 V2000
    6.7014   22.6684   69.3769 C   0  0  0  0  0
    5.2927   22.0864   69.3977 C   0  0  0  0  0
    5.1543   20.9914   70.4668 C   0  0  0  0  0
    3.7315   20.4295   70.4445 C   0  0  0  0  0
    3.2738   20.1273   69.0175 C   0  0  0  0  0
    3.5898   21.3294   68.1230 C   0  0  0  0  0
    2.6527   22.2969   66.3536 C   0  0  0  0  0
    3.4303   22.7734   65.1646 C   0  0  0  0  0
    1.1576   22.1873   66.0366 C   0  0  0  0  0
    0.3224   22.0644   67.3172 C   0  0  0  0  0
    0.2006   23.4069   68.0507 C   0  0  0  0  0
   -0.6946   23.2917   69.2799 C   0  0  0  0  0
    4.9757   21.5689   68.1282 O   0  0  0  0  0
    3.1651   21.0770   66.8144 O   0  0  0  0  0
    3.5066   22.0963   64.1513 O   0  0  0  0  0
   -0.1347   22.4193   70.2161 O   0  0  0  0  0
    1.4544   23.8854   68.4375 O   0  0  0  0  0
   -0.9559   21.5948   66.9995 O   0  0  0  0  0
    0.9271   21.0913   65.1980 O   0  0  0  0  0
    1.9009   19.8773   69.0135 O   0  0  0  0  0
    3.6714   19.2677   71.2153 O   0  0  0  0  0
    5.4205   21.5213   71.7310 O   0  0  0  0  0
    7.6324   21.6915   69.0171 O   0  0  0  0  0
  1 23  1  0  0  0
  2  1  1  0  0  0
  2  3  1  0  0  0
  2 13  1  0  0  0
  3  4  1  0  0  0
  3 22  1  0  0  0
  4  5  1  0  0  0
  4 21  1  0  0  0
  5  6  1  0  0  0
  5 20  1  0  0  0
  6 13  1  0  0  0
  6 14  1  0  0  0
  7 14  1  0  0  0
  7  8  1  0  0  0
  7  9  1  0  0  0
  9 10  1  0  0  0
  9 19  1  0  0  0
 10 11  1  0  0  0
 10 18  1  0  0  0
 11 12  1  0  0  0
 11 17  1  0  0  0
 12 16  1  0  0  0
  8 15  2  0  0  0
M  END
> <rmsd>
0.586361229

$$$$
MolPort-006-822-498 CSSS00020617458 LN01285449 MCULE-4568201349 PubChem-3659


 36 39  0  0  0  0  0  0  0  0999 V2000
    6.5008   17.0668   68.9617 C   0  0  0  0  0
    6.3319   18.8816   70.4420 C   0  0  0  0  0
    7.4558   19.8454   70.0433 C   0  0  0  0  0
    7.0105   21.3043   69.8355 C   0  0  0  0  0
    5.5219   21.4507   69.4736 C   0  0  0  0  0
    4.5983   20.7681   70.4959 C   0  0  0  0  0
    2.7535   21.6033   71.4015 C   0  0  0  0  0
    0.9471   20.7664   72.5618 C   0  0  0  0  0
    0.5808   19.7284   71.4983 C   0  0  0  0  0
    0.1210   22.0493   72.4303 C   0  0  0  0  0
    0.6317   22.9547   71.3064 C   0  0  0  0  0
    1.0799   23.1093   69.1576 C   0  0  0  0  0
    2.1263   22.9810   71.1494 C   0  0  0  0  0
   -0.6494   24.1973   68.0744 C   0  0  0  0  0
   -1.3854   25.5365   67.9439 C   0  0  0  0  0
   -0.7118   26.5088   66.9845 C   0  0  0  0  0
   -0.5615   23.3649   66.7807 C   0  0  0  0  0
    0.0407   21.9952   67.1029 C   0  0  0  0  0
    1.2984   22.1403   67.9725 C   0  0  0  0  0
    5.2598   19.6033   71.2556 C   0  0  0  0  0
    5.7487   18.2803   69.2519 N   0  0  0  0  0
    7.8363   21.9190   68.8077 N   0  0  0  0  0
   -2.7610   25.3117   67.5403 N   0  0  0  0  0
    5.2708   20.9387   68.1985 O   0  0  0  0  0
    4.1452   21.7180   71.4101 O   0  0  0  0  0
    2.3334   21.0499   72.6331 O   0  0  0  0  0
    1.1929   18.5058   71.7915 O   0  0  0  0  0
    0.1640   22.7475   73.6401 O   0  0  0  0  0
    0.1453   22.5599   70.0679 O   0  0  0  0  0
    2.3245   23.3205   69.8058 O   0  0  0  0  0
    0.6200   24.3623   68.6723 O   0  0  0  0  0
    0.4561   27.0068   67.5543 O   0  0  0  0  0
    0.2258   24.0137   65.8234 O   0  0  0  0  0
   -0.9121   21.2073   67.7433 O   0  0  0  0  0
    1.7371   20.8878   68.4202 O   0  0  0  0  0
    4.2869   18.7049   71.6757 O   0  0  0  0  0
  1 21  1  0  0  0
  2 21  1  0  0  0
  2  3  1  0  0  0
  3  4  1  0  0  0
  4 22  1  0  0  0
  4  5  1  0  0  0
  5 24  1  0  0  0
  5  6  1  0  0  0
  6 25  1  0  0  0
  6 20  1  0  0  0
  7 25  1  0  0  0
  7 26  1  0  0  0
  8 26  1  0  0  0
  8  9  1  0  0  0
  8 10  1  0  0  0
  9 27  1  0  0  0
 10 28  1  0  0  0
 10 11  1  0  0  0
 11 29  1  0  0  0
 12 29  1  0  0  0
 12 30  1  0  0  0
 12 31  1  0  0  0
 13 30  1  0  0  0
 13  7  1  0  0  0
 13 11  1  0  0  0
 14 31  1  0  0  0
 14 15  1  0  0  0
 14 17  1  0  0  0
 15 23  1  0  0  0
 15 16  1  0  0  0
 16 32  1  0  0  0
 17 33  1  0  0  0
 17 18  1  0  0  0
 18 34  1  0  0  0
 18 19  1  0  0  0
 19 35  1  0  0  0
 19 12  1  0  0  0
 20 36  1  0  0  0
 20  2  1  0  0  0
M  END
> <rmsd>
0.755440712

$$$$
Molport-052-063-485 PubChem-78299122


 40 40  0  0  0  0  0  0  0  0999 V2000
    5.1256   20.2047   73.5956 C   0  0  0  0  0
    4.6384   20.3251   72.1979 C   0  0  0  0  0
    4.3998   19.2952   69.8967 C   0  0  0  0  0
    5.1377   18.2600   69.0606 C   0  0  0  0  0
    6.5586   18.7156   68.7623 C   0  0  0  0  0
    6.5940   19.6693   67.5730 C   0  0  0  0  0
    6.7861   21.8632   68.8094 C   0  0  0  0  0
    2.9266   19.0508   69.8460 C   0  0  0  0  0
    0.6529   19.9798   69.1863 C   0  0  0  0  0
   -0.0973   21.1459   68.6004 C   0  0  0  0  0
   -1.0986   20.7056   67.5392 C   0  0  0  0  0
   -1.6493   21.2846   70.4507 C   0  0  0  0  0
   -2.7523   22.2032   70.9564 C   0  0  0  0  0
   -3.6355   22.6952   69.8157 C   0  0  0  0  0
   -4.4529   21.5594   69.2100 C   0  0  0  0  0
   -5.0883   21.9711   67.9092 C   0  0  0  0  0
   -6.9390   20.2905   68.2653 C   0  0  0  0  0
   -6.6491   20.4273   69.7375 C   0  0  0  0  0
   -8.4312   20.1911   67.9481 C   0  0  0  0  0
   -9.1877   21.4495   68.3582 C   0  0  0  0  0
  -10.6649   21.3163   68.0178 C   0  0  0  0  0
  -11.4956   20.4187   70.2280 C   0  0  0  0  0
    4.0223   21.3647   71.8401 O   0  0  0  0  0
    7.8827   21.5201   69.3243 O   0  0  0  0  0
    4.9226   21.4118   67.3693 O   0  0  0  0  0
    2.4474   17.9709   70.2885 O   0  0  0  0  0
    0.0315   18.9570   69.5857 O   0  0  0  0  0
   -1.5377   21.8119   66.8126 O   0  0  0  0  0
   -4.5208   22.7977   67.1464 O   0  0  0  0  0
   -7.4124   19.9115   70.5972 O   0  0  0  0  0
  -11.1273   21.4601   70.8343 O   0  0  0  0  0
  -11.7572   19.1607   68.2025 O   0  0  0  0  0
    0.2672   22.5053   70.4058 O   0  0  0  0  0
    4.8776   19.2616   71.2730 N   0  0  0  0  0
    6.0745   20.9836   67.9344 N   0  0  0  0  0
    2.0768   20.0638   69.2980 N   0  0  0  0  0
   -0.7160   22.0246   69.6057 N   0  0  0  0  0
   -6.3327   21.3876   67.5141 N   0  0  0  0  0
   -5.4752   21.1258   70.1612 N   0  0  0  0  0
  -11.2950   20.2730   68.8198 N   0  0  0  0  0
  1  2  1  0  0  0
  2 34  1  0  0  0
  3 34  1  0  0  0
  3  4  1  0  0  0
  3  8  1  0  0  0
  4  5  1  0  0  0
  5  6  1  0  0  0
  6 35  1  0  0  0
  8 36  1  0  0  0
 10  9  1  0  0  0
 10 11  1  0  0  0
 10 37  1  0  0  0
 11 28  1  0  0  0
 12 37  1  0  0  0
 12 13  1  0  0  0
 13 14  1  0  0  0
 15 14  1  0  0  0
 15 16  1  0  0  0
 15 39  1  0  0  0
 16 38  1  0  0  0
 17 38  1  0  0  0
 17 18  1  0  0  0
 17 19  1  0  0  0
 18 39  1  0  0  0
 19 20  1  0  0  0
 20 21  1  0  0  0
 21 40  1  0  0  0
 35  7  1  0  0  0
 35 25  1  0  0  0
 36  9  1  0  0  0
 37 33  1  0  0  0
 40 22  1  0  0  0
 40 32  1  0  0  0
  2 23  2  0  0  0
  7 24  2  0  0  0
  8 26  2  0  0  0
  9 27  2  0  0  0
 16 29  2  0  0  0
 18 30  2  0  0  0
 22 31  2  0  0  0
M  END
> <rmsd>
0.831592739

$$$$
Molport-052-063-485 PubChem-78299122


 40 40  0  0  0  0  0  0  0  0999 V2000
    5.3925   20.1846   73.6269 C   0  0  0  0  0
    4.8570   20.3272   72.2492 C   0  0  0  0  0
    4.4903   19.3126   69.9580 C   0  0  0  0  0
    5.1548   18.2516   69.0932 C   0  0  0  0  0
    6.5798   18.6526   68.7407 C   0  0  0  0  0
    6.6063   19.6070   67.5518 C   0  0  0  0  0
    6.9308   21.7889   68.7817 C   0  0  0  0  0
    3.0079   19.1255   69.9638 C   0  0  0  0  0
    0.7482   20.1434   69.3930 C   0  0  0  0  0
    0.0218   21.3390   68.8374 C   0  0  0  0  0
   -1.0359   20.9404   67.8151 C   0  0  0  0  0
   -1.4514   21.5333   70.7461 C   0  0  0  0  0
   -2.4977   22.4928   71.2948 C   0  0  0  0  0
   -3.4043   23.0213   70.1893 C   0  0  0  0  0
   -4.2879   21.9193   69.6146 C   0  0  0  0  0
   -4.9564   22.3584   68.3396 C   0  0  0  0  0
   -6.8557   20.7499   68.7652 C   0  0  0  0  0
   -6.5043   20.8719   70.2252 C   0  0  0  0  0
   -8.3618   20.7090   68.5056 C   0  0  0  0  0
   -9.0526   21.9948   68.9456 C   0  0  0  0  0
  -10.5458   21.9196   68.6622 C   0  0  0  0  0
  -11.3251   21.0497   70.9020 C   0  0  0  0  0
    4.2683   21.3906   71.9162 O   0  0  0  0  0
    8.0323   21.4024   69.2538 O   0  0  0  0  0
    4.9972   21.4133   67.4141 O   0  0  0  0  0
    2.5045   18.0639   70.4235 O   0  0  0  0  0
    0.1034   19.1445   69.8151 O   0  0  0  0  0
   -1.4593   22.0645   67.1069 O   0  0  0  0  0
   -4.3870   23.1642   67.5562 O   0  0  0  0  0
   -7.2534   20.3840   71.1133 O   0  0  0  0  0
  -10.8937   22.0746   71.4945 O   0  0  0  0  0
  -11.7130   19.8075   68.8870 O   0  0  0  0  0
    0.5079   22.6790   70.6286 O   0  0  0  0  0
    5.0189   19.2574   71.3148 N   0  0  0  0  0
    6.1525   20.9396   67.9341 N   0  0  0  0  0
    2.1776   20.1720   69.4498 N   0  0  0  0  0
   -0.5233   22.2387   69.8665 N   0  0  0  0  0
   -6.2367   21.8244   67.9922 N   0  0  0  0  0
   -5.2889   21.5234   70.6040 N   0  0  0  0  0
  -11.1846   20.8997   69.4870 N   0  0  0  0  0
  1  2  1  0  0  0
  2 34  1  0  0  0
  3 34  1  0  0  0
  3  4  1  0  0  0
  3  8  1  0  0  0
  4  5  1  0  0  0
  5  6  1  0  0  0
  6 35  1  0  0  0
  8 36  1  0  0  0
 10  9  1  0  0  0
 10 11  1  0  0  0
 10 37  1  0  0  0
 11 28  1  0  0  0
 12 37  1  0  0  0
 12 13  1  0  0  0
 13 14  1  0  0  0
 15 14  1  0  0  0
 15 16  1  0  0  0
 15 39  1  0  0  0
 16 38  1  0  0  0
 17 38  1  0  0  0
 17 18  1  0  0  0
 17 19  1  0  0  0
 18 39  1  0  0  0
 19 20  1  0  0  0
 20 21  1  0  0  0
 21 40  1  0  0  0
 35  7  1  0  0  0
 35 25  1  0  0  0
 36  9  1  0  0  0
 37 33  1  0  0  0
 40 22  1  0  0  0
 40 32  1  0  0  0
  2 23  2  0  0  0
  7 24  2  0  0  0
  8 26  2  0  0  0
  9 27  2  0  0  0
 16 29  2  0  0  0
 18 30  2  0  0  0
 22 31  2  0  0  0
M  END
> <rmsd>
0.731182456

$$$$
MolPort-023-331-082 LN00191842 MCULE-1111342615 PubChem-70700334


 20 20  0  0  0  0  0  0  0  0999 V2000
   -2.0181   23.6296   68.0034 O   0  0  0  0  0
   -0.7033   22.4594   70.1805 O   0  0  0  0  0
   -0.5355   21.1827   67.7411 O   0  0  0  0  0
    1.8112   19.9862   68.0064 O   0  0  0  0  0
    2.8834   23.0719   69.5741 O   0  0  0  0  0
    5.3630   21.6990   69.0089 O   0  0  0  0  0
    7.5637   21.1776   68.6292 O   0  0  0  0  0
    7.7199   20.6845   71.1838 O   0  0  0  0  0
    5.5269   22.0680   71.9168 O   0  0  0  0  0
    3.4844   19.3660   70.8385 O   0  0  0  0  0
   -0.8009   24.1382   68.4615 C   0  0  0  0  0
    0.0219   23.0512   69.1425 C   0  0  0  0  0
    0.5232   22.0025   68.1468 C   0  0  0  0  0
    1.6511   21.1581   68.7525 C   0  0  0  0  0
    2.9789   21.9275   68.7766 C   0  0  0  0  0
    4.1383   21.0518   69.2568 C   0  0  0  0  0
    6.3556   20.7148   69.1551 C   0  0  0  0  0
    6.5028   20.2737   70.6305 C   0  0  0  0  0
    5.3246   20.7497   71.4995 C   0  0  0  0  0
    3.9931   20.6613   70.7446 C   0  0  0  0  0
 11  1  1  0  0  0
 12 11  1  0  0  0
 12  2  1  0  0  0
 12 13  1  0  0  0
 13  3  1  0  0  0
 13 14  1  0  0  0
 14  4  1  0  0  0
 14 15  1  0  0  0
 15  5  1  0  0  0
 15 16  1  0  0  0
 16  6  1  0  0  0
 17  6  1  0  0  0
 17  7  1  0  0  0
 17 18  1  0  0  0
 18  8  1  0  0  0
 18 19  1  0  0  0
 19  9  1  0  0  0
 19 20  1  0  0  0
 20 10  1  0  0  0
 20 16  1  0  0  0
M  END
> <rmsd>
0.8082335

$$$$
MolPort-044-726-235 1529054598 ZINC001529054598


 40 44  0  0  0  0  0  0  0  0999 V2000
  -10.5279   24.2388   71.4766 C   0  0  0  0  0
   -9.0503   22.3665   72.1387 C   0  0  0  0  0
   -7.9601   22.8968   71.4297 C   0  0  0  0  0
   -6.7263   22.2303   71.4140 C   0  0  0  0  0
   -6.5846   21.0166   72.1168 C   0  0  0  0  0
   -7.6683   20.4909   72.8234 C   0  0  0  0  0
   -8.8956   21.1599   72.8354 C   0  0  0  0  0
   -4.3617   20.8067   71.4513 C   0  0  0  0  0
   -3.1893   20.0543   71.4882 C   0  0  0  0  0
   -2.0523   20.4765   70.8029 C   0  0  0  0  0
   -2.0743   21.6767   70.0682 C   0  0  0  0  0
   -0.8678   22.1396   69.3013 C   0  0  0  0  0
    1.2039   22.9996   69.4451 C   0  0  0  0  0
    2.3767   23.3290   70.3578 C   0  0  0  0  0
    4.3291   22.3009   70.6094 C   0  0  0  0  0
    6.2746   21.5453   71.4246 C   0  0  0  0  0
    6.0916   20.7669   70.1404 C   0  0  0  0  0
    6.0157   19.2661   70.4099 C   0  0  0  0  0
    4.7819   21.2818   69.5855 C   0  0  0  0  0
    1.7063   22.3162   68.1592 C   0  0  0  0  0
    0.8859   21.0747   67.7878 C   0  0  0  0  0
   -0.6109   21.2433   68.0789 C   0  0  0  0  0
   -3.2514   22.4466   70.0234 C   0  0  0  0  0
   -4.4096   22.0170   70.7163 C   0  0  0  0  0
   -5.6246   22.7376   70.7097 C   0  0  0  0  0
  -10.2881   23.0182   72.1627 O   0  0  0  0  0
   -9.9628   20.6178   73.5401 O   0  0  0  0  0
   -5.4274   20.3667   72.1108 O   0  0  0  0  0
   -0.9051   19.6930   70.8553 O   0  0  0  0  0
    0.2630   22.2100   70.1333 O   0  0  0  0  0
    2.9604   22.1545   70.8441 O   0  0  0  0  0
    5.0353   22.0842   71.8039 O   0  0  0  0  0
    7.1640   21.0277   69.2829 O   0  0  0  0  0
    4.9849   18.9598   71.3042 O   0  0  0  0  0
    4.9426   21.9038   68.3445 O   0  0  0  0  0
    1.6881   23.2298   67.1065 O   0  0  0  0  0
    1.3738   19.9712   68.4877 O   0  0  0  0  0
   -1.2531   21.7817   66.9640 O   0  0  0  0  0
   -3.2580   23.6297   69.2876 O   0  0  0  0  0
   -5.7316   23.8261   70.0801 O   0  0  0  0  0
  1 26  1  0  0  0
  2 26  1  0  0  0
  3  4  1  0  0  0
  5  6  1  0  0  0
  5 28  1  0  0  0
  7 27  1  0  0  0
  7  2  1  0  0  0
  8 28  1  0  0  0
  9 10  1  0  0  0
 10 29  1  0  0  0
 11 23  1  0  0  0
 12 11  1  0  0  0
 12 30  1  0  0  0
 13 30  1  0  0  0
 13 14  1  0  0  0
 13 20  1  0  0  0
 14 31  1  0  0  0
 15 31  1  0  0  0
 15 32  1  0  0  0
 16 32  1  0  0  0
 16 17  1  0  0  0
 17 33  1  0  0  0
 17 18  1  0  0  0
 17 19  1  0  0  0
 18 34  1  0  0  0
 19 35  1  0  0  0
 19 15  1  0  0  0
 20 36  1  0  0  0
 20 21  1  0  0  0
 21 37  1  0  0  0
 21 22  1  0  0  0
 22 38  1  0  0  0
 22 12  1  0  0  0
 23 39  1  0  0  0
 24 25  1  0  0  0
 24  8  1  0  0  0
 25  4  1  0  0  0
  2  3  2  0  0  0
  4  5  2  0  0  0
  6  7  2  0  0  0
  8  9  2  0  0  0
 10 11  2  0  0  0
 23 24  2  0  0  0
 25 40  2  0  0  0
M  END
> <rmsd>
0.717115641

$$$$
MolPort-046-856-815 Molport-047-579-525 71788526 LN02182337 MCULE-1045742625 MCULE-7164244671 MCULE-9193085917 PubChem-163332236 PubChem-9850347 ZINC000071788526


 38 37  0  0  0  0  0  0  0  0999 V2000
    1.6185   25.3764   64.7256 C   0  0  0  0  0
    1.8287   23.8823   64.8985 C   0  0  0  0  0
    2.9045   23.5914   65.9054 C   0  0  0  0  0
    5.3463   23.7679   66.5522 C   0  0  0  0  0
    5.6877   22.2817   66.5776 C   0  0  0  0  0
    6.3733   21.9144   67.8499 C   0  0  0  0  0
    6.5285   24.5705   66.1131 C   0  0  0  0  0
   -0.2571   23.4846   66.3395 C   0  0  0  0  0
   -1.4184   22.5791   66.6335 C   0  0  0  0  0
   -2.5692   23.2792   67.3725 C   0  0  0  0  0
   -3.6938   22.3017   67.6675 C   0  0  0  0  0
   -3.1303   24.4155   66.5359 C   0  0  0  0  0
   -0.3864   21.4054   68.6644 C   0  0  0  0  0
    0.1235   20.1292   69.2491 C   0  0  0  0  0
   -0.6142   19.7879   70.5407 C   0  0  0  0  0
   -1.9962   19.3071   70.2526 C   0  0  0  0  0
    2.3819   19.1179   69.7874 C   0  0  0  0  0
    3.8412   19.3296   70.0406 C   0  0  0  0  0
    4.7132   18.4445   69.1402 C   0  0  0  0  0
    6.1855   18.6486   69.4481 C   0  0  0  0  0
    4.4826   18.7729   67.6746 C   0  0  0  0  0
    4.5150   20.1084   72.3413 C   0  0  0  0  0
    4.7645   19.7900   73.7691 C   0  0  0  0  0
    2.6364   22.9872   66.9812 O   0  0  0  0  0
    5.7725   22.0288   68.9498 O   0  0  0  0  0
    7.6749   21.4340   67.8197 O   0  0  0  0  0
    7.5260   24.6425   66.8122 O   0  0  0  0  0
    0.0308   24.4314   67.1229 O   0  0  0  0  0
   -0.3133   22.4787   69.3243 O   0  0  0  0  0
   -2.9866   19.9570   70.6759 O   0  0  0  0  0
   -2.1927   18.1404   69.5248 O   0  0  0  0  0
    1.8879   17.9591   69.8484 O   0  0  0  0  0
    4.6496   21.2922   71.9336 O   0  0  0  0  0
    4.2448   24.0052   65.6314 N   0  0  0  0  0
    0.5717   23.2016   65.2056 N   0  0  0  0  0
   -0.9541   21.3914   67.3501 N   0  0  0  0  0
    1.5537   20.2444   69.4984 N   0  0  0  0  0
    4.1248   19.0691   71.4453 N   0  0  0  0  0
  2  1  1  0  0  0
  2  3  1  0  0  0
  2 35  1  0  0  0
  3 34  1  0  0  0
  4 34  1  0  0  0
  4  5  1  0  0  0
  4  7  1  0  0  0
  5  6  1  0  0  0
  6 26  1  0  0  0
  9  8  1  0  0  0
  9 10  1  0  0  0
  9 36  1  0  0  0
 10 11  1  0  0  0
 10 12  1  0  0  0
 14 13  1  0  0  0
 14 15  1  0  0  0
 14 37  1  0  0  0
 15 16  1  0  0  0
 16 31  1  0  0  0
 18 17  1  0  0  0
 18 19  1  0  0  0
 18 38  1  0  0  0
 19 20  1  0  0  0
 19 21  1  0  0  0
 23 22  1  0  0  0
 35  8  1  0  0  0
 36 13  1  0  0  0
 37 17  1  0  0  0
 38 22  1  0  0  0
  3 24  2  0  0  0
  6 25  2  0  0  0
  7 27  2  0  0  0
  8 28  2  0  0  0
 13 29  2  0  0  0
 16 30  2  0  0  0
 17 32  2  0  0  0
 22 33  2  0  0  0
M  END
> <rmsd>
0.676965475

$$$$
MolPort-035-912-924 MCULE-1400392885 MCULE-5412561161 MCULE-5883393920 MCULE-7250053595 PubChem-146355916 PubChem-146355929 PubChem-146355936 PubChem-155290723 PubChem-164511591 PubChem-164511647 PubChem-20158752 PubChem-20441004 PubChem-21872891 PubChem-43835010 PubChem-73555198 PubChem-78169928


 16 15  0  0  0  0  0  0  0  0999 V2000
    4.5485   22.7120   70.3655 C   0  0  0  0  0
    3.4486   22.0653   71.2069 C   0  0  0  0  0
    2.9156   20.7536   70.6171 C   0  0  0  0  0
    2.2931   20.9605   69.2301 C   0  0  0  0  0
    1.0419   21.7978   69.2556 C   0  0  0  0  0
    0.4769   22.3030   67.9698 C   0  0  0  0  0
    0.4864   22.0758   70.3084 O   0  0  0  0  0
   -0.7889   21.7554   67.7608 O   0  0  0  0  0
    2.0079   19.7262   68.6425 O   0  0  0  0  0
    3.9295   19.7926   70.5598 O   0  0  0  0  0
    3.8861   21.8691   72.5180 O   0  0  0  0  0
    5.7243   21.9578   70.4134 O   0  0  0  0  0
    7.6791   21.2819   68.8145 O   0  0  0  0  0
    6.7165   23.6885   68.4864 O   0  0  0  0  0
    5.3116   21.4349   67.7209 O   0  0  0  0  0
    6.3907   22.0703   68.8591 P   0  0  0  0  0
  1 12  1  0  0  0
  2  1  1  0  0  0
  2  3  1  0  0  0
  2 11  1  0  0  0
  3  4  1  0  0  0
  3 10  1  0  0  0
  4  5  1  0  0  0
  4  9  1  0  0  0
  6  5  1  0  0  0
  6  8  1  0  0  0
 16 12  1  0  0  0
 16 14  1  0  0  0
 16 15  1  0  0  0
  5  7  2  0  0  0
 16 13  2  0  0  0
M  CHG  2  14  -1  15  -1
M  END
> <rmsd>
0.679333866

$$$$
Molport-053-175-684 MCULE-8321565977 PubChem-85136907


 41 40  0  0  0  0  0  0  0  0999 V2000
    9.8002   18.9809   70.5445 C   0  0  0  0  0
    8.3879   18.7163   70.1711 C   0  0  0  0  0
    5.9498   19.3760   70.3326 C   0  0  0  0  0
    5.6776   19.8312   68.8924 C   0  0  0  0  0
    6.1430   21.2246   68.6069 C   0  0  0  0  0
    5.0517   20.0362   71.3285 C   0  0  0  0  0
    3.3430   19.7211   73.2138 C   0  0  0  0  0
    4.0577   20.6244   74.2211 C   0  0  0  0  0
    3.2305   20.7979   75.4891 C   0  0  0  0  0
    3.2498   19.5338   76.3344 C   0  0  0  0  0
    4.7464   19.3108   78.2210 C   0  0  0  0  0
    2.1602   20.3699   72.5527 C   0  0  0  0  0
    0.0363   20.0810   71.2008 C   0  0  0  0  0
    0.4240   20.7357   69.9208 C   0  0  0  0  0
    1.2627   20.4346   67.5072 C   0  0  0  0  0
    2.2366   21.6094   67.5674 C   0  0  0  0  0
    2.8174   21.9026   66.2234 C   0  0  0  0  0
    0.0254   20.7544   66.7258 C   0  0  0  0  0
   -1.9431   22.2897   66.3021 C   0  0  0  0  0
   -2.8444   23.1819   67.1417 C   0  0  0  0  0
   -1.4495   23.0298   65.1003 C   0  0  0  0  0
    8.1183   17.7722   69.3818 O   0  0  0  0  0
    5.3040   22.1279   68.3623 O   0  0  0  0  0
    7.4972   21.5240   68.5846 O   0  0  0  0  0
    4.9995   21.2944   71.4089 O   0  0  0  0  0
    2.0058   21.6217   72.5879 O   0  0  0  0  0
    0.3088   21.9849   69.8056 O   0  0  0  0  0
    3.5424   21.0521   65.6448 O   0  0  0  0  0
    2.5597   23.1201   65.6094 O   0  0  0  0  0
   -0.2641   20.0518   65.7209 O   0  0  0  0  0
   -4.0655   23.3737   66.4922 O   0  0  0  0  0
   -1.6778   22.5783   63.9491 O   0  0  0  0  0
   -0.7198   24.2037   65.2489 O   0  0  0  0  0
    7.3493   19.5373   70.7093 N   0  0  0  0  0
    4.2783   19.2164   72.2118 N   0  0  0  0  0
    4.5636   19.3568   76.9384 N   0  0  0  0  0
    3.6503   19.4353   79.1245 N   0  0  0  0  0
    6.0603   19.1388   78.7358 N   0  0  0  0  0
    1.2098   19.5453   71.8737 N   0  0  0  0  0
    0.9341   19.9400   68.8434 N   0  0  0  0  0
   -0.8130   21.8498   67.1076 N   0  0  0  0  0
  1  2  1  0  0  0
  2 34  1  0  0  0
  3 34  1  0  0  0
  3  4  1  0  0  0
  3  6  1  0  0  0
  4  5  1  0  0  0
  5 24  1  0  0  0
  6 35  1  0  0  0
  7 35  1  0  0  0
  7  8  1  0  0  0
  7 12  1  0  0  0
  8  9  1  0  0  0
  9 10  1  0  0  0
 10 36  1  0  0  0
 11 37  1  0  0  0
 11 38  1  0  0  0
 12 39  1  0  0  0
 13 39  1  0  0  0
 13 14  1  0  0  0
 14 40  1  0  0  0
 15 40  1  0  0  0
 15 16  1  0  0  0
 15 18  1  0  0  0
 16 17  1  0  0  0
 17 29  1  0  0  0
 18 41  1  0  0  0
 19 41  1  0  0  0
 19 20  1  0  0  0
 19 21  1  0  0  0
 20 31  1  0  0  0
 21 33  1  0  0  0
  2 22  2  0  0  0
  5 23  2  0  0  0
  6 25  2  0  0  0
 11 36  2  0  0  0
 12 26  2  0  0  0
 14 27  2  0  0  0
 17 28  2  0  0  0
 18 30  2  0  0  0
 21 32  2  0  0  0
M  END
> <rmsd>
0.648262322

$$$$
MolPort-002-516-477 79210142 LN00340421 MCULE-5565635981 PubChem-16398153 ZINC000079210142


 42 46  0  0  0  0  0  0  0  0999 V2000
   -0.4939   20.9010   72.9297 C   0  0  0  0  0
    0.8280   20.9774   70.7389 C   0  0  0  0  0
    0.8235   22.4599   68.9688 C   0  0  0  0  0
    2.3024   22.8191   68.8133 C   0  0  0  0  0
    4.3957   22.3562   69.3942 C   0  0  0  0  0
    5.3636   20.7025   68.1179 C   0  0  0  0  0
    5.9757   20.3806   66.7643 C   0  0  0  0  0
    6.2110   20.1302   69.2645 C   0  0  0  0  0
    5.5133   20.4126   70.5962 C   0  0  0  0  0
    5.0950   21.8876   70.6793 C   0  0  0  0  0
    0.2922   21.4109   67.9755 C   0  0  0  0  0
    0.4747   19.9749   68.4767 C   0  0  0  0  0
    0.1368   19.8553   69.9628 C   0  0  0  0  0
   -1.7861   21.1284   72.3962 C   0  0  0  0  0
   -2.9059   21.1156   73.2523 C   0  0  0  0  0
   -4.2336   21.3138   72.7976 C   0  0  0  0  0
   -5.2973   21.2678   73.7044 C   0  0  0  0  0
   -5.0628   21.0301   75.0588 C   0  0  0  0  0
   -3.7601   20.8388   75.5179 C   0  0  0  0  0
   -2.6847   20.8799   74.6269 C   0  0  0  0  0
   -0.3738   20.7058   74.3246 C   0  0  0  0  0
    0.9434   20.5152   74.9832 C   0  0  0  0  0
    2.0682   21.2263   74.5336 C   0  0  0  0  0
    3.3020   21.0938   75.1728 C   0  0  0  0  0
    3.4288   20.2478   76.2760 C   0  0  0  0  0
    2.3210   19.5382   76.7399 C   0  0  0  0  0
    1.0806   19.6697   76.1056 C   0  0  0  0  0
    0.6831   20.8392   72.1518 O   0  0  0  0  0
    0.4132   22.2556   70.3098 O   0  0  0  0  0
    3.1238   21.7833   69.2600 O   0  0  0  0  0
    5.1972   22.0981   68.2550 O   0  0  0  0  0
    4.4030   19.5744   70.7413 O   0  0  0  0  0
    4.2960   22.1162   71.7969 O   0  0  0  0  0
    7.4839   20.7091   69.2680 O   0  0  0  0  0
    1.7787   19.5393   68.2221 O   0  0  0  0  0
    0.5244   18.6056   70.4516 O   0  0  0  0  0
   -1.0616   21.6472   67.7323 O   0  0  0  0  0
   -1.9432   21.3443   71.1664 O   0  0  0  0  0
   -4.5192   21.5494   71.4580 O   0  0  0  0  0
   -1.4584   20.6977   75.0922 O   0  0  0  0  0
   -0.0000   18.9407   76.5883 O   0  0  0  0  0
   -6.1285   20.9784   75.9485 O   0  0  0  0  0
  1 28  1  0  0  0
  1 14  1  0  0  0
  2 28  1  0  0  0
  2 29  1  0  0  0
  3 29  1  0  0  0
  3  4  1  0  0  0
  3 11  1  0  0  0
  4 30  1  0  0  0
  5 30  1  0  0  0
  5 31  1  0  0  0
  6 31  1  0  0  0
  6  7  1  0  0  0
  6  8  1  0  0  0
  8  9  1  0  0  0
  8 34  1  0  0  0
  9 32  1  0  0  0
  9 10  1  0  0  0
 10 33  1  0  0  0
 10  5  1  0  0  0
 11 12  1  0  0  0
 11 37  1  0  0  0
 12 35  1  0  0  0
 12 13  1  0  0  0
 13 36  1  0  0  0
 13  2  1  0  0  0
 14 15  1  0  0  0
 16 39  1  0  0  0
 16 17  1  0  0  0
 18 19  1  0  0  0
 18 42  1  0  0  0
 20 40  1  0  0  0
 20 15  1  0  0  0
 21 40  1  0  0  0
 21 22  1  0  0  0
 23 24  1  0  0  0
 25 26  1  0  0  0
 27 41  1  0  0  0
 27 22  1  0  0  0
 14 38  2  0  0  0
 15 16  2  0  0  0
 17 18  2  0  0  0
 19 20  2  0  0  0
 21  1  2  0  0  0
 22 23  2  0  0  0
 24 25  2  0  0  0
 26 27  2  0  0  0
M  END
> <rmsd>
0.72442764

$$$$
MolPort-046-702-561 MCULE-6628110408 PubChem-158828385 PubChem-3600220


 24 25  0  0  0  0  0  0  0  0999 V2000
   -0.2156   24.0012   70.2659 C   0  0  0  0  0
    0.8539   22.4903   69.0578 C   0  0  0  0  0
    0.2543   21.2793   68.3277 C   0  0  0  0  0
    1.3175   20.4613   67.5806 C   0  0  0  0  0
    2.4707   21.3253   67.0512 C   0  0  0  0  0
    2.8375   22.4716   68.0123 C   0  0  0  0  0
    4.3469   22.5768   68.1676 C   0  0  0  0  0
    5.9162   21.8628   69.5665 C   0  0  0  0  0
    5.7011   21.5064   71.0479 C   0  0  0  0  0
    5.8417   19.9988   71.2959 C   0  0  0  0  0
    7.1015   19.4634   70.6176 C   0  0  0  0  0
    7.1439   19.9584   69.1627 C   0  0  0  0  0
    8.3058   19.3632   68.3757 C   0  0  0  0  0
    0.2062   22.6713   70.2804 O   0  0  0  0  0
    2.2311   22.3148   69.2720 O   0  0  0  0  0
    4.8552   21.4198   68.7646 O   0  0  0  0  0
    7.1563   21.3699   69.0935 O   0  0  0  0  0
    9.5220   19.9045   68.7969 O   0  0  0  0  0
    8.2298   19.8927   71.3214 O   0  0  0  0  0
    4.7208   19.3122   70.8206 O   0  0  0  0  0
    4.4656   21.9747   71.5001 O   0  0  0  0  0
    2.1311   21.8542   65.8062 O   0  0  0  0  0
    1.8275   19.4788   68.4299 O   0  0  0  0  0
   -0.7222   21.7141   67.4322 O   0  0  0  0  0
  1 14  1  0  0  0
  2 14  1  0  0  0
  2  3  1  0  0  0
  2 15  1  0  0  0
  3  4  1  0  0  0
  3 24  1  0  0  0
  4  5  1  0  0  0
  4 23  1  0  0  0
  5  6  1  0  0  0
  5 22  1  0  0  0
  6 15  1  0  0  0
  6  7  1  0  0  0
  7 16  1  0  0  0
  8 16  1  0  0  0
  8  9  1  0  0  0
  8 17  1  0  0  0
  9 10  1  0  0  0
  9 21  1  0  0  0
 10 11  1  0  0  0
 10 20  1  0  0  0
 11 12  1  0  0  0
 11 19  1  0  0  0
 12 17  1  0  0  0
 12 13  1  0  0  0
 13 18  1  0  0  0
M  END
> <rmsd>
0.74549979

$$$$
MolPort-046-702-561 MCULE-6628110408 PubChem-158828385 PubChem-3600220


 24 25  0  0  0  0  0  0  0  0999 V2000
    1.1875   26.9851   68.9655 C   0  0  0  0  0
    0.0456   25.1633   68.4389 C   0  0  0  0  0
   -0.7529   24.2624   69.3845 C   0  0  0  0  0
   -0.0879   22.8920   69.4878 C   0  0  0  0  0
    0.1949   22.3047   68.1071 C   0  0  0  0  0
    0.9261   23.3299   67.2325 C   0  0  0  0  0
    2.4113   23.4587   67.5635 C   0  0  0  0  0
    3.7644   22.0305   68.5747 C   0  0  0  0  0
    3.2385   20.8094   69.3556 C   0  0  0  0  0
    4.3627   20.1610   70.1721 C   0  0  0  0  0
    5.4217   21.1714   70.6406 C   0  0  0  0  0
    5.8041   22.1539   69.5132 C   0  0  0  0  0
    7.3091   22.1604   69.2931 C   0  0  0  0  0
    1.2395   25.5924   69.0284 O   0  0  0  0  0
    0.2670   24.5871   67.1571 O   0  0  0  0  0
    3.0531   22.2309   67.3881 O   0  0  0  0  0
    5.1345   21.8862   68.3009 O   0  0  0  0  0
    7.7392   20.9224   68.8110 O   0  0  0  0  0
    4.9519   21.8968   71.7376 O   0  0  0  0  0
    3.8352   19.4505   71.2517 O   0  0  0  0  0
    2.7015   19.8558   68.4875 O   0  0  0  0  0
   -0.9898   21.9104   67.4803 O   0  0  0  0  0
   -0.8613   22.0174   70.2539 O   0  0  0  0  0
   -2.0680   24.1465   68.9276 O   0  0  0  0  0
  1 14  1  0  0  0
  2 14  1  0  0  0
  2  3  1  0  0  0
  2 15  1  0  0  0
  3  4  1  0  0  0
  3 24  1  0  0  0
  4  5  1  0  0  0
  4 23  1  0  0  0
  5  6  1  0  0  0
  5 22  1  0  0  0
  6 15  1  0  0  0
  6  7  1  0  0  0
  7 16  1  0  0  0
  8 16  1  0  0  0
  8  9  1  0  0  0
  8 17  1  0  0  0
  9 10  1  0  0  0
  9 21  1  0  0  0
 10 11  1  0  0  0
 10 20  1  0  0  0
 11 12  1  0  0  0
 11 19  1  0  0  0
 12 17  1  0  0  0
 12 13  1  0  0  0
 13 18  1  0  0  0
M  END
> <rmsd>
0.620570779

$$$$
Molport-053-110-193 MCULE-1924363487 MCULE-7391755458


 41 41  0  0  0  0  0  0  0  0999 V2000
    2.9139   17.0511   72.4731 C   0  0  0  0  0
    3.4305   17.9542   71.4014 C   0  0  0  0  0
    3.6923   20.3228   70.4875 C   0  0  0  0  0
    4.3095   21.5799   71.1658 C   0  0  0  0  0
    4.7388   22.6905   70.1792 C   0  0  0  0  0
    5.8016   22.2373   69.2116 C   0  0  0  0  0
    7.2326   22.3091   69.5485 C   0  0  0  0  0
    2.5223   20.5936   69.4900 C   0  0  0  0  0
    1.2991   21.3084   70.1273 C   0  0  0  0  0
    0.3530   21.9534   69.0752 C   0  0  0  0  0
   -0.4950   20.9130   68.3173 C   0  0  0  0  0
   -0.3969   24.2061   69.3509 C   0  0  0  0  0
   -1.5228   24.9933   70.0867 C   0  0  0  0  0
   -2.7715   25.1021   69.2018 C   0  0  0  0  0
   -2.4164   25.8415   67.8913 C   0  0  0  0  0
   -3.8442   27.9436   67.6854 C   0  0  0  0  0
   -4.0174   29.4012   67.9643 C   0  0  0  0  0
   -0.9364   25.5722   67.4744 C   0  0  0  0  0
   -0.7281   25.6075   65.9394 C   0  0  0  0  0
   -1.0857   26.9606   65.2638 C   0  0  0  0  0
   -0.1890   28.1333   65.7180 C   0  0  0  0  0
    0.9575   24.7347   69.7869 C   0  0  0  0  0
    4.0203   17.4601   70.4028 O   0  0  0  0  0
    5.4177   21.1750   71.9306 O   0  0  0  0  0
    5.4586   21.7693   68.0932 O   0  0  0  0  0
    8.1811   21.8492   68.6438 O   0  0  0  0  0
    7.6106   22.7889   70.6498 O   0  0  0  0  0
    2.1085   19.3735   68.9281 O   0  0  0  0  0
    0.5942   20.4157   70.9537 O   0  0  0  0  0
   -1.3946   21.5491   67.4501 O   0  0  0  0  0
   -0.5279   22.8452   69.7531 O   0  0  0  0  0
   -3.2656   23.8210   68.9009 O   0  0  0  0  0
   -4.7571   27.3111   67.0887 O   0  0  0  0  0
   -0.5367   24.2883   67.9281 O   0  0  0  0  0
    0.6121   25.2776   65.6631 O   0  0  0  0  0
   -1.0448   26.8233   63.8641 O   0  0  0  0  0
   -0.5091   29.2975   65.0050 O   0  0  0  0  0
    1.9252   25.0578   68.8429 O   0  0  0  0  0
    1.2350   24.8343   71.0120 O   0  0  0  0  0
    3.2651   19.3742   71.5242 N   0  0  0  0  0
   -2.6333   27.2820   68.0772 N   0  0  0  0  0
  1  2  1  0  0  0
  2 40  1  0  0  0
  3 40  1  0  0  0
  3  4  1  0  0  0
  3  8  1  0  0  0
  4 24  1  0  0  0
  4  5  1  0  0  0
  5  6  1  0  0  0
  6  7  1  0  0  0
  7 26  1  0  0  0
  8 28  1  0  0  0
  8  9  1  0  0  0
  9 29  1  0  0  0
  9 10  1  0  0  0
 10 11  1  0  0  0
 10 31  1  0  0  0
 11 30  1  0  0  0
 12 31  1  0  0  0
 12 13  1  0  0  0
 12 22  1  0  0  0
 12 34  1  0  0  0
 13 14  1  0  0  0
 14 32  1  0  0  0
 14 15  1  0  0  0
 15 41  1  0  0  0
 15 18  1  0  0  0
 17 16  1  0  0  0
 18 34  1  0  0  0
 18 19  1  0  0  0
 19 35  1  0  0  0
 19 20  1  0  0  0
 20 36  1  0  0  0
 20 21  1  0  0  0
 21 37  1  0  0  0
 22 38  1  0  0  0
 41 16  1  0  0  0
  2 23  2  0  0  0
  6 25  2  0  0  0
  7 27  2  0  0  0
 16 33  2  0  0  0
 22 39  2  0  0  0
M  CHG  2  26  -1  38  -1
M  END
> <rmsd>
0.746578395

$$$$
MolPort-005-948-497 CSSS00159282443 MCULE-1178214138 PubChem-45360575 ZINC000022922184


 30 33  0  0  0  0  0  0  0  0999 V2000
    9.1241   20.3829   68.3857 C   0  0  0  0  0
    6.8452   19.9543   68.1136 C   0  0  0  0  0
    5.4720   20.5413   67.7703 C   0  0  0  0  0
    6.2192   22.6761   68.5985 C   0  0  0  0  0
    7.5779   22.0470   68.9251 C   0  0  0  0  0
    4.8754   21.2374   70.0225 C   0  0  0  0  0
    4.5064   22.4350   70.9322 C   0  0  0  0  0
    3.0127   21.8066   72.4555 C   0  0  0  0  0
    2.3802   22.0705   71.1155 C   0  0  0  0  0
    2.3335   20.7679   70.2839 C   0  0  0  0  0
    0.3275   21.3483   68.8443 C   0  0  0  0  0
   -1.5349   21.9712   67.1964 C   0  0  0  0  0
   -1.8575   22.1879   65.8531 C   0  0  0  0  0
   -3.1573   22.5464   65.4867 C   0  0  0  0  0
   -4.1456   22.6862   66.4642 C   0  0  0  0  0
   -3.8434   22.4556   67.8134 C   0  0  0  0  0
   -2.5319   22.1150   68.1731 C   0  0  0  0  0
   -4.8899   22.6577   68.8702 C   0  0  0  0  0
    3.7443   20.1754   70.0656 C   0  0  0  0  0
    7.8695   20.9828   67.9714 N   0  0  0  0  0
    5.1315   21.6826   68.6387 N   0  0  0  0  0
    1.7094   21.0162   68.9905 N   0  0  0  0  0
   -0.1874   21.6146   67.5338 N   0  0  0  0  0
    4.3882   22.0054   72.2707 O   0  0  0  0  0
    3.2709   22.9487   70.5080 O   0  0  0  0  0
   -0.4214   21.3979   69.8576 O   0  0  0  0  0
    4.0198   19.2354   71.0589 O   0  0  0  0  0
   -6.1457   22.3614   68.3691 F   0  0  0  0  0
   -4.8693   23.9755   69.2871 F   0  0  0  0  0
   -4.6438   21.8361   69.9568 F   0  0  0  0  0
  1 20  1  0  0  0
  2 20  1  0  0  0
  2  3  1  0  0  0
  3 21  1  0  0  0
  4 21  1  0  0  0
  4  5  1  0  0  0
  5 20  1  0  0  0
  6 21  1  0  0  0
  6  7  1  0  0  0
  7 24  1  0  0  0
  7 25  1  0  0  0
  8 24  1  0  0  0
  9  8  1  0  0  0
  9 25  1  0  0  0
  9 10  1  0  0  0
 10 22  1  0  0  0
 10 19  1  0  0  0
 11 23  1  0  0  0
 13 14  1  0  0  0
 15 16  1  0  0  0
 17 12  1  0  0  0
 18 16  1  0  0  0
 18 28  1  0  0  0
 18 29  1  0  0  0
 18 30  1  0  0  0
 19 27  1  0  0  0
 19  6  1  0  0  0
 22 11  1  0  0  0
 23 12  1  0  0  0
 11 26  2  0  0  0
 12 13  2  0  0  0
 14 15  2  0  0  0
 16 17  2  0  0  0
M  END
> <rmsd>
0.730304182

$$$$
MolPort-005-948-497 CSSS00159282443 MCULE-1178214138 PubChem-45360575 ZINC000022922184


 30 33  0  0  0  0  0  0  0  0999 V2000
    9.1240   20.3832   68.3845 C   0  0  0  0  0
    6.8450   19.9547   68.1128 C   0  0  0  0  0
    5.4718   20.5418   67.7699 C   0  0  0  0  0
    6.2193   22.6765   68.5983 C   0  0  0  0  0
    7.5779   22.0473   68.9245 C   0  0  0  0  0
    4.8755   21.2377   70.0223 C   0  0  0  0  0
    4.5068   22.4352   70.9322 C   0  0  0  0  0
    3.0133   21.8066   72.4556 C   0  0  0  0  0
    2.3806   22.0707   71.1157 C   0  0  0  0  0
    2.3338   20.7682   70.2840 C   0  0  0  0  0
    0.3276   21.3481   68.8443 C   0  0  0  0  0
   -1.5354   21.9665   67.1948 C   0  0  0  0  0
   -2.5383   22.0904   68.1677 C   0  0  0  0  0
   -3.8428   22.4268   67.7984 C   0  0  0  0  0
   -4.1530   22.6467   66.4543 C   0  0  0  0  0
   -3.1575   22.5445   65.4727 C   0  0  0  0  0
   -1.8551   22.1876   65.8511 C   0  0  0  0  0
   -3.5013   22.7281   64.0230 C   0  0  0  0  0
    3.7445   20.1756   70.0655 C   0  0  0  0  0
    7.8693   20.9832   67.9705 N   0  0  0  0  0
    5.1314   21.6830   68.6386 N   0  0  0  0  0
    1.7096   21.0167   68.9907 N   0  0  0  0  0
   -0.1868   21.6152   67.5338 N   0  0  0  0  0
    4.3886   22.0055   72.2707 O   0  0  0  0  0
    3.2713   22.9489   70.5082 O   0  0  0  0  0
   -0.4215   21.3972   69.8575 O   0  0  0  0  0
    4.0201   19.2356   71.0588 O   0  0  0  0  0
   -3.8833   21.5125   63.4868 F   0  0  0  0  0
   -2.4064   23.2065   63.3241 F   0  0  0  0  0
   -4.5416   23.6305   63.8839 F   0  0  0  0  0
  1 20  1  0  0  0
  2 20  1  0  0  0
  2  3  1  0  0  0
  3 21  1  0  0  0
  4 21  1  0  0  0
  4  5  1  0  0  0
  5 20  1  0  0  0
  6 21  1  0  0  0
  6  7  1  0  0  0
  7 24  1  0  0  0
  7 25  1  0  0  0
  8 24  1  0  0  0
  9  8  1  0  0  0
  9 25  1  0  0  0
  9 10  1  0  0  0
 10 22  1  0  0  0
 10 19  1  0  0  0
 11 23  1  0  0  0
 13 14  1  0  0  0
 15 16  1  0  0  0
 17 12  1  0  0  0
 18 16  1  0  0  0
 18 28  1  0  0  0
 18 29  1  0  0  0
 18 30  1  0  0  0
 19 27  1  0  0  0
 19  6  1  0  0  0
 22 11  1  0  0  0
 23 12  1  0  0  0
 11 26  2  0  0  0
 12 13  2  0  0  0
 14 15  2  0  0  0
 16 17  2  0  0  0
M  END
> <rmsd>
0.730295062

$$$$
MolPort-005-948-497 CSSS00159282443 MCULE-1178214138 PubChem-45360575 ZINC000022922184


 30 33  0  0  0  0  0  0  0  0999 V2000
    9.0125   20.4350   68.3619 C   0  0  0  0  0
    7.5618   22.2565   68.5850 C   0  0  0  0  0
    6.1477   22.7990   68.2949 C   0  0  0  0  0
    5.4022   20.6200   67.5140 C   0  0  0  0  0
    6.9027   20.3325   67.3659 C   0  0  0  0  0
    4.9275   21.3196   69.7905 C   0  0  0  0  0
    4.5852   22.5106   70.7195 C   0  0  0  0  0
    3.1918   21.8538   72.3237 C   0  0  0  0  0
    2.4805   22.1030   71.0208 C   0  0  0  0  0
    2.4143   20.7987   70.1933 C   0  0  0  0  0
    0.3208   21.3358   68.8657 C   0  0  0  0  0
   -1.6425   21.9109   67.3201 C   0  0  0  0  0
   -2.5912   22.0245   68.3469 C   0  0  0  0  0
   -3.9172   22.3488   68.0507 C   0  0  0  0  0
   -4.3053   22.5573   66.7251 C   0  0  0  0  0
   -3.3726   22.4300   65.6866 C   0  0  0  0  0
   -2.0396   22.1227   65.9956 C   0  0  0  0  0
   -3.7763   22.7051   64.2671 C   0  0  0  0  0
    3.8226   20.2346   69.8980 C   0  0  0  0  0
    7.6190   20.7949   68.5467 N   0  0  0  0  0
    5.0992   21.7670   68.3949 N   0  0  0  0  0
    1.7152   21.0326   68.9362 N   0  0  0  0  0
   -0.2704   21.5890   67.5851 N   0  0  0  0  0
    4.5504   22.0807   72.0626 O   0  0  0  0  0
    3.3178   22.9985   70.3646 O   0  0  0  0  0
   -0.3726   21.3718   69.9184 O   0  0  0  0  0
    4.1721   19.3030   70.8759 O   0  0  0  0  0
   -3.5950   24.0479   63.9926 F   0  0  0  0  0
   -5.1073   22.3790   64.0712 F   0  0  0  0  0
   -3.0065   21.9570   63.3931 F   0  0  0  0  0
  1 20  1  0  0  0
  2 20  1  0  0  0
  2  3  1  0  0  0
  3 21  1  0  0  0
  4 21  1  0  0  0
  4  5  1  0  0  0
  5 20  1  0  0  0
  6 21  1  0  0  0
  6  7  1  0  0  0
  7 24  1  0  0  0
  7 25  1  0  0  0
  8 24  1  0  0  0
  9  8  1  0  0  0
  9 25  1  0  0  0
  9 10  1  0  0  0
 10 22  1  0  0  0
 10 19  1  0  0  0
 11 23  1  0  0  0
 13 14  1  0  0  0
 15 16  1  0  0  0
 17 12  1  0  0  0
 18 16  1  0  0  0
 18 28  1  0  0  0
 18 29  1  0  0  0
 18 30  1  0  0  0
 19 27  1  0  0  0
 19  6  1  0  0  0
 22 11  1  0  0  0
 23 12  1  0  0  0
 11 26  2  0  0  0
 12 13  2  0  0  0
 14 15  2  0  0  0
 16 17  2  0  0  0
M  END
> <rmsd>
0.6782673

$$$$
MolPort-046-698-448 4201050 CSSS00159301237 MCULE-2794457369 PubChem-138990857


 33 35  0  0  0  0  0  0  0  0999 V2000
    8.8661   17.9374   75.2479 C   0  0  0  0  0
    6.5587   18.7696   75.4325 C   0  0  0  0  0
    5.0947   18.4880   75.4162 C   0  0  0  0  0
    4.6004   18.2834   73.9936 C   0  0  0  0  0
    4.5009   19.6123   73.2692 C   0  0  0  0  0
    3.8702   20.4611   70.9819 C   0  0  0  0  0
    3.3954   20.1868   69.5889 C   0  0  0  0  0
    1.9384   19.7605   69.6165 C   0  0  0  0  0
    1.9199   18.2626   69.3368 C   0  0  0  0  0
    3.2961   17.8976   68.8105 C   0  0  0  0  0
    5.5222   19.0835   68.6652 C   0  0  0  0  0
    6.2838   20.3433   68.5153 C   0  0  0  0  0
    7.6827   20.3189   68.4483 C   0  0  0  0  0
    7.7238   22.6729   68.1982 C   0  0  0  0  0
    6.3304   22.7030   68.2556 C   0  0  0  0  0
    0.0985   21.3002   68.8490 C   0  0  0  0  0
   -1.7272   22.8194   67.9761 C   0  0  0  0  0
   -1.9564   23.6751   66.7229 C   0  0  0  0  0
   -3.4204   24.0907   66.5221 C   0  0  0  0  0
   -4.1518   24.2098   67.8560 C   0  0  0  0  0
   -4.1781   22.8669   68.5992 C   0  0  0  0  0
   -2.9610   21.9791   68.3053 C   0  0  0  0  0
    7.4631   17.7218   75.2580 O   0  0  0  0  0
    6.9625   19.9544   75.5824 O   0  0  0  0  0
    4.0968   21.6496   71.3329 O   0  0  0  0  0
    6.1168   17.9861   68.4809 O   0  0  0  0  0
   -0.2900   21.4646   70.0379 O   0  0  0  0  0
    4.0441   19.3873   71.9091 N   0  0  0  0  0
    4.1240   19.0716   69.0059 N   0  0  0  0  0
    8.3696   21.4815   68.2942 N   0  0  0  0  0
    5.6441   21.5404   68.4092 N   0  0  0  0  0
    1.2145   20.4571   68.5657 N   0  0  0  0  0
   -0.5703   21.9604   67.7729 N   0  0  0  0  0
  1 23  1  0  0  0
  2 23  1  0  0  0
  3  2  1  0  0  0
  3  4  1  0  0  0
  4  5  1  0  0  0
  5 28  1  0  0  0
  7  6  1  0  0  0
  7  8  1  0  0  0
  7 29  1  0  0  0
  8  9  1  0  0  0
  8 32  1  0  0  0
  9 10  1  0  0  0
 10 29  1  0  0  0
 11 12  1  0  0  0
 12 31  1  0  0  0
 13 30  1  0  0  0
 14 15  1  0  0  0
 16 33  1  0  0  0
 17 33  1  0  0  0
 17 18  1  0  0  0
 18 19  1  0  0  0
 19 20  1  0  0  0
 20 21  1  0  0  0
 21 22  1  0  0  0
 22 17  1  0  0  0
 28  6  1  0  0  0
 29 11  1  0  0  0
 32 16  1  0  0  0
  2 24  2  0  0  0
  6 25  2  0  0  0
 11 26  2  0  0  0
 12 13  2  0  0  0
 14 30  2  0  0  0
 15 31  2  0  0  0
 16 27  2  0  0  0
M  END
> <rmsd>
0.683794081

$$$$
Molport-051-930-726 CSSS14901605424 MCULE-4428995476 PubChem-11394581


 26 28  0  0  0  0  0  0  0  0999 V2000
    0.6395   21.3157   63.3689 C   0  0  0  0  0
   -0.7483   21.2032   63.5767 C   0  0  0  0  0
   -1.2928   21.3895   64.8572 C   0  0  0  0  0
   -0.4247   21.6884   65.9058 C   0  0  0  0  0
    0.9360   21.8051   65.7054 C   0  0  0  0  0
    1.4961   21.6175   64.4393 C   0  0  0  0  0
    1.6376   22.1213   66.9895 C   0  0  0  0  0
    0.4321   22.1690   67.9097 C   0  0  0  0  0
    2.3923   23.4704   66.8905 C   0  0  0  0  0
    1.5448   24.6305   66.4642 C   0  0  0  0  0
    3.1187   21.2535   68.5451 C   0  0  0  0  0
    3.0748   19.9641   69.3701 C   0  0  0  0  0
    3.7335   20.2133   70.7270 C   0  0  0  0  0
    5.0787   20.9256   70.5718 C   0  0  0  0  0
    4.9295   22.1007   69.5929 C   0  0  0  0  0
    6.2515   22.8340   69.3984 C   0  0  0  0  0
    0.4916   22.4451   69.1372 O   0  0  0  0  0
    0.6509   25.0830   67.2261 O   0  0  0  0  0
    1.7673   25.2276   65.2313 O   0  0  0  0  0
    2.5063   21.0430   67.2952 O   0  0  0  0  0
    4.4564   21.6402   68.3505 O   0  0  0  0  0
    7.1993   21.9928   68.8116 O   0  0  0  0  0
    5.4993   21.3927   71.8187 O   0  0  0  0  0
    3.9166   19.0005   71.3924 O   0  0  0  0  0
    1.7510   19.5652   69.5615 O   0  0  0  0  0
   -0.8058   21.9025   67.2531 N   0  0  0  0  0
  2  3  1  0  0  0
  4  5  1  0  0  0
  6  1  1  0  0  0
  7  5  1  0  0  0
  7  8  1  0  0  0
  7  9  1  0  0  0
  7 20  1  0  0  0
  8 26  1  0  0  0
  9 10  1  0  0  0
 10 19  1  0  0  0
 11 20  1  0  0  0
 11 12  1  0  0  0
 11 21  1  0  0  0
 12 13  1  0  0  0
 12 25  1  0  0  0
 13 14  1  0  0  0
 13 24  1  0  0  0
 14 15  1  0  0  0
 14 23  1  0  0  0
 15 21  1  0  0  0
 15 16  1  0  0  0
 16 22  1  0  0  0
 26  4  1  0  0  0
  1  2  2  0  0  0
  3  4  2  0  0  0
  5  6  2  0  0  0
  8 17  2  0  0  0
 10 18  2  0  0  0
M  END
> <rmsd>
0.804329574

$$$$
MolPort-051-551-548 Molport-006-136-474 5273774 LN02221538 MCULE-5591425216 MCULE-5921675705 PubChem-166603889 PubChem-40520303 ZINC000005273774


 36 37  0  0  0  0  0  0  0  0999 V2000
   -7.1564   22.2068   68.1984 C   0  0  0  0  0
   -6.1898   22.5292   69.1567 C   0  0  0  0  0
   -4.8335   22.5080   68.8168 C   0  0  0  0  0
   -4.4422   22.1663   67.5173 C   0  0  0  0  0
   -5.4102   21.8402   66.5603 C   0  0  0  0  0
   -6.7667   21.8618   66.9007 C   0  0  0  0  0
   -2.9967   22.1347   67.1541 C   0  0  0  0  0
   -2.3368   20.8394   67.6227 C   0  0  0  0  0
   -2.7489   19.6854   66.7677 C   0  0  0  0  0
   -2.7820   18.6774   64.4104 C   0  0  0  0  0
   -2.5515   18.9201   63.0530 C   0  0  0  0  0
   -2.8097   17.9293   62.1023 C   0  0  0  0  0
   -3.2988   16.6762   62.4994 C   0  0  0  0  0
   -3.5281   16.4312   63.8606 C   0  0  0  0  0
   -3.2742   17.4257   64.8091 C   0  0  0  0  0
   -0.1642   21.8039   68.5060 C   0  0  0  0  0
    1.3229   21.8403   68.4460 C   0  0  0  0  0
    2.0329   20.9592   70.7068 C   0  0  0  0  0
    2.4980   19.8145   71.5413 C   0  0  0  0  0
    5.0073   20.1173   71.3415 C   0  0  0  0  0
    6.3130   19.6148   70.8266 C   0  0  0  0  0
    6.3394   19.6142   69.3035 C   0  0  0  0  0
    6.5954   20.9802   68.7595 C   0  0  0  0  0
   -3.3114   18.6950   67.3056 O   0  0  0  0  0
   -3.4316   15.8914   60.3092 O   0  0  0  0  0
   -3.9090   14.3853   61.9306 O   0  0  0  0  0
   -0.7706   22.4701   69.3862 O   0  0  0  0  0
    1.7726   22.0627   71.2567 O   0  0  0  0  0
    4.9669   21.2021   71.9820 O   0  0  0  0  0
    5.7440   21.8962   68.9054 O   0  0  0  0  0
    7.7657   21.2313   68.0563 O   0  0  0  0  0
   -2.4990   19.7183   65.3547 N   0  0  0  0  0
   -3.5568   15.6534   61.5282 N   0  0  0  0  0
   -0.8869   20.9738   67.5930 N   0  0  0  0  0
    1.8788   20.7963   69.2942 N   0  0  0  0  0
    3.8139   19.3669   71.1045 N   0  0  0  0  0
  2  3  1  0  0  0
  4  5  1  0  0  0
  6  1  1  0  0  0
  7  4  1  0  0  0
  8  7  1  0  0  0
  8  9  1  0  0  0
  8 34  1  0  0  0
  9 32  1  0  0  0
 11 12  1  0  0  0
 13 14  1  0  0  0
 13 33  1  0  0  0
 15 10  1  0  0  0
 17 16  1  0  0  0
 17 35  1  0  0  0
 19 18  1  0  0  0
 19 36  1  0  0  0
 21 20  1  0  0  0
 21 22  1  0  0  0
 22 23  1  0  0  0
 23 31  1  0  0  0
 32 10  1  0  0  0
 33 26  1  0  0  0
 34 16  1  0  0  0
 35 18  1  0  0  0
 36 20  1  0  0  0
  1  2  2  0  0  0
  3  4  2  0  0  0
  5  6  2  0  0  0
  9 24  2  0  0  0
 10 11  2  0  0  0
 12 13  2  0  0  0
 14 15  2  0  0  0
 16 27  2  0  0  0
 18 28  2  0  0  0
 20 29  2  0  0  0
 23 30  2  0  0  0
 33 25  2  0  0  0
M  CHG  2  33   1  26  -1
M  END
> <rmsd>
0.744398654

$$$$
Molport-049-227-233


 41 41  0  0  0  0  0  0  0  0999 V2000
  -14.7291   19.4428   67.4478 C   0  0  0  0  0
  -13.2544   19.8422   67.4005 C   0  0  0  0  0
  -12.3818   18.7979   68.1167 C   0  0  0  0  0
  -10.8779   19.0723   67.9535 C   0  0  0  0  0
  -10.4209   20.3408   68.6987 C   0  0  0  0  0
   -8.8885   20.4622   68.7787 C   0  0  0  0  0
   -8.1692   20.5271   67.4167 C   0  0  0  0  0
   -8.6006   21.6957   66.5076 C   0  0  0  0  0
   -8.3708   23.1004   67.1049 C   0  0  0  0  0
   -6.9179   23.4045   67.5176 C   0  0  0  0  0
   -5.9262   23.2627   66.3496 C   0  0  0  0  0
   -4.5398   23.8509   66.6646 C   0  0  0  0  0
   -3.8332   23.2346   67.8867 C   0  0  0  0  0
   -3.6227   21.7178   67.7618 C   0  0  0  0  0
   -2.7406   21.1644   68.8896 C   0  0  0  0  0
   -1.3117   21.5949   68.7356 C   0  0  0  0  0
    0.6225   22.8000   69.6972 C   0  0  0  0  0
    1.5347   21.6938   70.1266 C   0  0  0  0  0
    2.6912   20.5807   72.0465 C   0  0  0  0  0
    1.9431   19.2296   72.0885 C   0  0  0  0  0
    2.5529   18.2815   73.0799 C   0  0  0  0  0
    3.3267   17.1809   72.7916 C   0  0  0  0  0
    3.0944   17.3267   74.9053 C   0  0  0  0  0
    4.0720   20.5091   71.4358 C   0  0  0  0  0
    6.1866   21.7458   70.9544 C   0  0  0  0  0
    7.2189   20.9263   71.7695 C   0  0  0  0  0
    7.5105   21.5600   73.1514 C   0  0  0  0  0
    7.4066   20.5627   74.3144 C   0  0  0  0  0
    5.9480   20.2421   74.6798 C   0  0  0  0  0
    6.2216   21.4695   69.4663 C   0  0  0  0  0
   -0.6189   21.1999   67.5886 O   0  0  0  0  0
    1.9705   20.7848   69.1592 O   0  0  0  0  0
    4.4870   19.3244   70.8091 O   0  0  0  0  0
    7.3637   20.9472   68.8615 O   0  0  0  0  0
    5.2345   21.7874   68.7472 O   0  0  0  0  0
   -0.7600   22.3273   69.6642 N   0  0  0  0  0
    1.8684   21.6010   71.3866 N   0  0  0  0  0
    3.6671   16.5729   73.9433 N   0  0  0  0  0
    2.4096   18.3711   74.4103 N   0  0  0  0  0
    4.8312   21.5697   71.4944 N   0  0  0  0  0
    5.9023   19.4111   75.8779 N   0  0  0  0  0
  1  2  1  0  0  0
  2  3  1  0  0  0
  3  4  1  0  0  0
  4  5  1  0  0  0
  5  6  1  0  0  0
  6  7  1  0  0  0
  7  8  1  0  0  0
  8  9  1  0  0  0
  9 10  1  0  0  0
 10 11  1  0  0  0
 11 12  1  0  0  0
 12 13  1  0  0  0
 13 14  1  0  0  0
 14 15  1  0  0  0
 15 16  1  0  0  0
 16 31  1  0  0  0
 17 36  1  0  0  0
 17 18  1  0  0  0
 18 32  1  0  0  0
 19 37  1  0  0  0
 19 20  1  0  0  0
 19 24  1  0  0  0
 20 21  1  0  0  0
 22 38  1  0  0  0
 23 39  1  0  0  0
 24 33  1  0  0  0
 25 40  1  0  0  0
 25 26  1  0  0  0
 25 30  1  0  0  0
 26 27  1  0  0  0
 27 28  1  0  0  0
 28 29  1  0  0  0
 29 41  1  0  0  0
 30 34  1  0  0  0
 39 21  1  0  0  0
 16 36  2  0  0  0
 18 37  2  0  0  0
 21 22  2  0  0  0
 23 38  2  0  0  0
 24 40  2  0  0  0
 30 35  2  0  0  0
M  END
> <rmsd>
0.683039367

$$$$
MolPort-039-330-732


 25 26  0  0  0  0  0  0  0  0999 V2000
   -1.2919   21.3033   67.6571 N   0  0  0  0  0
    1.2904   20.6140   68.5885 N   0  0  0  0  0
    4.0472   21.6102   68.8102 N   0  0  0  0  0
    6.2073   21.3768   67.6727 N   0  0  0  0  0
    7.5642   21.4148   69.3870 N   0  0  0  0  0
    6.8748   22.4018   72.1102 N   0  0  0  0  0
    4.9781   20.9971   71.8497 N   0  0  0  0  0
   -0.3465   20.9273   69.0539 S   0  0  0  0  0
   -0.3905   22.0818   70.0154 O   0  0  0  0  0
   -0.9129   19.7060   69.7203 O   0  0  0  0  0
    7.4430   21.3559   68.0888 O   0  0  0  0  0
    4.1520   20.1469   71.1509 O   0  0  0  0  0
    1.7935   21.8049   67.9230 C   0  0  0  0  0
    3.2617   21.6274   67.5876 C   0  0  0  0  0
    5.4645   21.4434   68.7897 C   0  0  0  0  0
    6.3112   21.4588   69.8736 C   0  0  0  0  0
    5.9885   21.6084   71.3061 C   0  0  0  0  0
    6.7536   22.7128   73.5059 C   0  0  0  0  0
    5.6569   22.2910   74.2727 C   0  0  0  0  0
    5.5727   22.6203   75.6281 C   0  0  0  0  0
    6.5830   23.3756   76.2290 C   0  0  0  0  0
    7.6799   23.8029   75.4697 C   0  0  0  0  0
    7.7600   23.4711   74.1137 C   0  0  0  0  0
    6.4910   23.6893   77.5446 F   0  0  0  0  0
    9.0743   24.8379   76.2629 Br  0  0  0  0  0
  3 15  1  0  0  0
  4 11  1  0  0  0
  6 18  1  0  0  0
  7 12  1  0  0  0
  8  1  1  0  0  0
  8  2  1  0  0  0
 11  5  1  0  0  0
 13  2  1  0  0  0
 13 14  1  0  0  0
 14  3  1  0  0  0
 16 17  1  0  0  0
 16 15  1  0  0  0
 17  6  1  0  0  0
 19 20  1  0  0  0
 21 24  1  0  0  0
 21 22  1  0  0  0
 22 25  1  0  0  0
 23 18  1  0  0  0
  8  9  2  0  0  0
  8 10  2  0  0  0
 15  4  2  0  0  0
 16  5  2  0  0  0
 17  7  2  0  0  0
 18 19  2  0  0  0
 20 21  2  0  0  0
 22 23  2  0  0  0
M  END
> <rmsd>
0.705281079

$$$$
MolPort-035-783-926 LN04687523


 27 26  0  0  0  0  0  0  0  0999 V2000
    5.9893   22.2584   73.8998 O   0  0  0  0  0
    3.9955   21.6203   71.9730 O   0  0  0  0  0
    3.9886   18.7097   71.5018 O   0  0  0  0  0
    5.2209   18.9737   69.1423 O   0  0  0  0  0
    7.7653   19.5900   69.9889 O   0  0  0  0  0
    8.0694   22.0229   68.4840 O   0  0  0  0  0
    5.9760   21.4999   67.7226 O   0  0  0  0  0
    3.3212   22.7626   68.9629 O   0  0  0  0  0
    2.8626   21.1682   67.3857 O   0  0  0  0  0
    1.8336   19.5428   69.3861 O   0  0  0  0  0
    0.1034   22.6994   69.6407 O   0  0  0  0  0
   -1.4561   21.8415   67.6128 O   0  0  0  0  0
   -0.6384   19.5624   66.0669 O   0  0  0  0  0
   -2.7120   19.3458   67.9206 O   0  0  0  0  0
    6.2067   21.3498   72.8646 C   0  0  0  0  0
    4.8975   20.6803   72.4792 C   0  0  0  0  0
    5.1147   19.5348   71.4864 C   0  0  0  0  0
    5.3942   20.0195   70.0555 C   0  0  0  0  0
    6.8047   20.6026   69.9247 C   0  0  0  0  0
    6.9871   21.4079   68.6733 C   0  0  0  0  0
    2.6677   21.6114   68.5480 C   0  0  0  0  0
    1.7057   20.9300   69.4724 C   0  0  0  0  0
    0.2504   21.3655   69.2551 C   0  0  0  0  0
   -0.2447   21.1725   67.8129 C   0  0  0  0  0
   -0.3752   19.6939   67.4321 C   0  0  0  0  0
   -1.4188   18.9389   68.2564 C   0  0  0  0  0
    5.7882   23.3561   64.5912 Mn  0  0  0  0  0
  7 27  1  0  0  0
 15  1  1  0  0  0
 16 15  1  0  0  0
 16  2  1  0  0  0
 16 17  1  0  0  0
 17  3  1  0  0  0
 17 18  1  0  0  0
 18  4  1  0  0  0
 18 19  1  0  0  0
 19  5  1  0  0  0
 19 20  1  0  0  0
 20  7  1  0  0  0
 21  8  1  0  0  0
 22 21  1  0  0  0
 22 10  1  0  0  0
 22 23  1  0  0  0
 23 11  1  0  0  0
 23 24  1  0  0  0
 24 12  1  0  0  0
 24 25  1  0  0  0
 25 13  1  0  0  0
 25 26  1  0  0  0
 26 14  1  0  0  0
 27  8  1  0  0  0
 20  6  2  0  0  0
 21  9  2  0  0  0
M  END
> <rmsd>
0.734923542

$$$$
Molport-052-063-486 PubChem-10210417


 41 44  0  0  0  0  0  0  0  0999 V2000
   -3.6404   20.2477   67.0490 C   0  0  0  0  0
   -2.5216   21.1472   66.5532 C   0  0  0  0  0
   -1.6245   20.4604   65.5189 C   0  0  0  0  0
   -1.0365   19.1229   65.9814 C   0  0  0  0  0
   -0.2920   19.2032   67.3122 C   0  0  0  0  0
    0.4463   20.5219   67.4568 C   0  0  0  0  0
   -0.4541   21.5358   68.1157 C   0  0  0  0  0
    2.8194   21.1349   68.0851 C   0  0  0  0  0
    4.0088   20.9076   68.9179 C   0  0  0  0  0
    4.0238   19.9238   69.8214 C   0  0  0  0  0
    5.2564   19.6579   70.6269 C   0  0  0  0  0
    6.0069   20.9553   70.9287 C   0  0  0  0  0
    6.2697   21.7219   69.6278 C   0  0  0  0  0
    8.2806   22.2067   68.8214 C   0  0  0  0  0
    9.5972   21.8619   69.5176 C   0  0  0  0  0
    9.4296   21.8870   71.0237 C   0  0  0  0  0
   10.3635   20.8100   71.4977 C   0  0  0  0  0
   10.3616   19.8784   70.2944 C   0  0  0  0  0
   11.5113   17.7735   70.5473 C   0  0  0  0  0
   12.6195   16.9372   70.4350 C   0  0  0  0  0
   13.7944   17.4648   69.9085 C   0  0  0  0  0
   12.7484   19.5682   69.6268 C   0  0  0  0  0
    8.6128   23.5808   72.1908 C   0  0  0  0  0
    8.4998   22.5261   67.3777 C   0  0  0  0  0
   -0.0220   22.2154   69.0848 O   0  0  0  0  0
    2.8265   22.0652   67.2340 O   0  0  0  0  0
    5.1256   21.7451   68.7628 O   0  0  0  0  0
    7.3573   21.1626   68.9515 O   0  0  0  0  0
   10.0701   20.5944   69.1163 O   0  0  0  0  0
   14.8145   16.7380   69.7929 O   0  0  0  0  0
   12.8269   20.7636   69.2344 O   0  0  0  0  0
   11.6405   21.3317   71.7345 O   0  0  0  0  0
    9.7665   23.1424   71.5396 O   0  0  0  0  0
    8.2522   23.6840   66.9528 O   0  0  0  0  0
    5.2688   21.7583   71.8025 O   0  0  0  0  0
    4.9240   18.9935   71.8079 O   0  0  0  0  0
   -1.8060   21.7542   67.6799 N   0  0  0  0  0
    1.6608   20.3076   68.2337 N   0  0  0  0  0
   11.5812   19.0751   70.1558 N   0  0  0  0  0
   13.8373   18.7626   69.5144 N   0  0  0  0  0
    8.9708   21.5286   66.4764 N   0  0  0  0  0
  2  1  1  0  0  0
  2  3  1  0  0  0
  2 37  1  0  0  0
  3  4  1  0  0  0
  4  5  1  0  0  0
  5  6  1  0  0  0
  6  7  1  0  0  0
  6 38  1  0  0  0
  7 37  1  0  0  0
  8  9  1  0  0  0
  9 27  1  0  0  0
 11 10  1  0  0  0
 11 12  1  0  0  0
 11 36  1  0  0  0
 12 13  1  0  0  0
 12 35  1  0  0  0
 13 27  1  0  0  0
 13 28  1  0  0  0
 14 28  1  0  0  0
 14 15  1  0  0  0
 14 24  1  0  0  0
 15 16  1  0  0  0
 15 29  1  0  0  0
 16 17  1  0  0  0
 16 33  1  0  0  0
 17 18  1  0  0  0
 17 32  1  0  0  0
 18 29  1  0  0  0
 18 39  1  0  0  0
 20 21  1  0  0  0
 21 40  1  0  0  0
 22 39  1  0  0  0
 23 33  1  0  0  0
 24 41  1  0  0  0
 38  8  1  0  0  0
 39 19  1  0  0  0
 40 22  1  0  0  0
  7 25  2  0  0  0
  8 26  2  0  0  0
  9 10  2  0  0  0
 19 20  2  0  0  0
 21 30  2  0  0  0
 22 31  2  0  0  0
 24 34  2  0  0  0
M  END
> <rmsd>
0.702002585

$$$$
MolPort-045-934-640 MCULE-9166907267 PubChem-131940507 ZINC000952862590


 45 47  0  0  0  0  0  0  0  0999 V2000
   -3.4739   23.4312   68.8503 C   0  0  0  0  0
   -2.9870   22.0846   69.3510 C   0  0  0  0  0
   -1.5494   21.8954   69.0088 C   0  0  0  0  0
    0.2161   21.5057   67.1908 C   0  0  0  0  0
    1.1686   22.6270   67.5987 C   0  0  0  0  0
    1.1793   23.7284   66.5833 C   0  0  0  0  0
    2.2439   24.0970   65.7676 C   0  0  0  0  0
    0.6665   25.4589   65.3137 C   0  0  0  0  0
   -0.1030   26.4930   64.7869 C   0  0  0  0  0
   -1.4067   26.6577   65.2857 C   0  0  0  0  0
   -1.9031   25.8020   66.2924 C   0  0  0  0  0
   -1.1040   24.7699   66.8105 C   0  0  0  0  0
    0.1777   24.6230   66.2875 C   0  0  0  0  0
    4.5913   24.5407   66.8516 C   0  0  0  0  0
    4.1380   24.3113   68.2864 C   0  0  0  0  0
    5.9050   22.6885   69.0854 C   0  0  0  0  0
    6.8766   22.3102   70.1578 C   0  0  0  0  0
    5.2961   21.0769   71.6998 C   0  0  0  0  0
    4.5982   19.7934   71.9977 C   0  0  0  0  0
    5.5815   18.7612   72.5125 C   0  0  0  0  0
    2.5641   19.0194   70.7233 C   0  0  0  0  0
    1.8998   18.7693   69.4064 C   0  0  0  0  0
    2.7717   17.9387   68.4626 C   0  0  0  0  0
    2.6934   16.4566   68.7935 C   0  0  0  0  0
    3.0039   15.6527   67.5439 C   0  0  0  0  0
    3.6948   16.1053   69.8750 C   0  0  0  0  0
    0.6615   20.1585   67.6821 C   0  0  0  0  0
    8.2828   22.1354   69.5870 C   0  0  0  0  0
    9.3032   22.0889   70.7076 C   0  0  0  0  0
    3.4553   25.5244   68.8181 C   0  0  0  0  0
   -0.6999   21.8146   69.9355 O   0  0  0  0  0
    5.6153   21.8647   68.1754 O   0  0  0  0  0
    4.8444   22.1526   72.1762 O   0  0  0  0  0
    1.8646   19.0387   71.7708 O   0  0  0  0  0
    0.1906   19.1242   67.1388 O   0  0  0  0  0
    8.3743   20.9691   68.8213 O   0  0  0  0  0
    4.0457   26.7782   68.7094 O   0  0  0  0  0
    2.3500   25.4066   69.4043 O   0  0  0  0  0
   -1.1490   21.7853   67.6356 N   0  0  0  0  0
    1.9323   25.1543   64.9777 N   0  0  0  0  0
    5.2640   23.9627   69.1386 N   0  0  0  0  0
    6.4253   21.0926   70.8216 N   0  0  0  0  0
    3.9628   19.3054   70.7862 N   0  0  0  0  0
    1.5606   20.0448   68.7903 N   0  0  0  0  0
    3.8477   23.3058   65.7435 S   0  0  0  0  0
  1  2  1  0  0  0
  2  3  1  0  0  0
  3 39  1  0  0  0
  4 39  1  0  0  0
  4  5  1  0  0  0
  4 27  1  0  0  0
  5  6  1  0  0  0
  7 40  1  0  0  0
  7 45  1  0  0  0
  9 10  1  0  0  0
 11 12  1  0  0  0
 13  6  1  0  0  0
 13  8  1  0  0  0
 14 45  1  0  0  0
 14 15  1  0  0  0
 15 41  1  0  0  0
 15 30  1  0  0  0
 17 16  1  0  0  0
 17 42  1  0  0  0
 17 28  1  0  0  0
 19 18  1  0  0  0
 19 20  1  0  0  0
 19 43  1  0  0  0
 22 21  1  0  0  0
 22 23  1  0  0  0
 22 44  1  0  0  0
 23 24  1  0  0  0
 24 25  1  0  0  0
 24 26  1  0  0  0
 28 29  1  0  0  0
 28 36  1  0  0  0
 30 37  1  0  0  0
 40  8  1  0  0  0
 41 16  1  0  0  0
 42 18  1  0  0  0
 43 21  1  0  0  0
 44 27  1  0  0  0
  3 31  2  0  0  0
  6  7  2  0  0  0
  8  9  2  0  0  0
 10 11  2  0  0  0
 12 13  2  0  0  0
 16 32  2  0  0  0
 18 33  2  0  0  0
 21 34  2  0  0  0
 27 35  2  0  0  0
 30 38  2  0  0  0
M  END
> <rmsd>
0.576725841

$$$$
MolPort-006-822-883 CSSS00025726844 LN00194415 MCULE-4419979447 MCULE-6003438168 PubChem-46781992


 23 24  0  0  0  0  0  0  0  0999 V2000
   -1.2243   20.5676   71.0066 C   0  0  0  0  0
   -1.1557   21.4789   69.7816 C   0  0  0  0  0
   -1.4312   20.7449   68.4563 C   0  0  0  0  0
   -0.2122   19.9457   67.9863 C   0  0  0  0  0
    1.0635   20.7834   68.1119 C   0  0  0  0  0
    1.1398   21.3928   69.5147 C   0  0  0  0  0
    2.9611   21.5626   70.7575 C   0  0  0  0  0
    4.4310   21.9607   70.7717 C   0  0  0  0  0
    5.1916   21.4175   69.5476 C   0  0  0  0  0
    6.6462   21.1557   69.9053 C   0  0  0  0  0
    6.7325   20.1788   71.0734 C   0  0  0  0  0
    5.5884   20.3716   72.0767 C   0  0  0  0  0
    0.0360   22.2446   69.7397 O   0  0  0  0  0
    2.3209   22.1253   69.6517 O   0  0  0  0  0
    5.0284   21.6738   72.0313 O   0  0  0  0  0
    4.6112   19.3866   71.9099 O   0  0  0  0  0
    7.9579   20.3371   71.7235 O   0  0  0  0  0
    7.3210   20.6246   68.8049 O   0  0  0  0  0
    5.1165   22.3415   68.5038 O   0  0  0  0  0
    2.1884   19.9927   67.8572 O   0  0  0  0  0
   -0.1063   18.7663   68.7295 O   0  0  0  0  0
   -1.7890   21.6731   67.4771 O   0  0  0  0  0
   -2.5227   20.0787   71.1650 O   0  0  0  0  0
  1 23  1  0  0  0
  2  1  1  0  0  0
  2  3  1  0  0  0
  2 13  1  0  0  0
  3  4  1  0  0  0
  3 22  1  0  0  0
  4  5  1  0  0  0
  4 21  1  0  0  0
  5  6  1  0  0  0
  5 20  1  0  0  0
  6 13  1  0  0  0
  6 14  1  0  0  0
  7 14  1  0  0  0
  8  7  1  0  0  0
  8  9  1  0  0  0
  8 15  1  0  0  0
  9 10  1  0  0  0
  9 19  1  0  0  0
 10 11  1  0  0  0
 10 18  1  0  0  0
 11 12  1  0  0  0
 11 17  1  0  0  0
 12 15  1  0  0  0
 12 16  1  0  0  0
M  END
> <rmsd>
0.728383124

$$$$
MolPort-005-948-496 CSSS00159306760 MCULE-2049094402 PubChem-45360574 ZINC000022922179


 26 29  0  0  0  0  0  0  0  0999 V2000
    8.9904   20.3489   68.3413 C   0  0  0  0  0
    6.7586   19.9599   67.7585 C   0  0  0  0  0
    5.3820   20.6046   67.4986 C   0  0  0  0  0
    6.1696   22.7634   68.2943 C   0  0  0  0  0
    7.5636   22.1731   68.0402 C   0  0  0  0  0
    4.9263   21.3075   69.7844 C   0  0  0  0  0
    4.5900   22.5043   70.7080 C   0  0  0  0  0
    3.1961   21.8608   72.3171 C   0  0  0  0  0
    2.4839   22.1069   71.0142 C   0  0  0  0  0
    2.4109   20.7990   70.1929 C   0  0  0  0  0
    0.3161   21.3378   68.8684 C   0  0  0  0  0
   -1.6496   21.9128   67.3256 C   0  0  0  0  0
   -2.0495   22.1249   66.0015 C   0  0  0  0  0
   -3.3780   22.4452   65.7057 C   0  0  0  0  0
   -4.3163   22.5557   66.7354 C   0  0  0  0  0
   -3.9260   22.3460   68.0607 C   0  0  0  0  0
   -2.5974   22.0258   68.3550 C   0  0  0  0  0
    3.8163   20.2281   69.8968 C   0  0  0  0  0
    7.6339   20.8149   68.5612 N   0  0  0  0  0
    5.1005   21.7479   68.3868 N   0  0  0  0  0
    1.7095   21.0297   68.9365 N   0  0  0  0  0
   -0.2776   21.5883   67.5883 N   0  0  0  0  0
    4.5553   22.0806   72.0531 O   0  0  0  0  0
    3.3241   22.9956   70.3525 O   0  0  0  0  0
   -0.3741   21.3815   69.9229 O   0  0  0  0  0
    4.1632   19.2970   70.8760 O   0  0  0  0  0
  1 19  1  0  0  0
  2 19  1  0  0  0
  2  3  1  0  0  0
  3 20  1  0  0  0
  4 20  1  0  0  0
  4  5  1  0  0  0
  5 19  1  0  0  0
  6 20  1  0  0  0
  6  7  1  0  0  0
  7 23  1  0  0  0
  7 24  1  0  0  0
  8 23  1  0  0  0
  9  8  1  0  0  0
  9 24  1  0  0  0
  9 10  1  0  0  0
 10 21  1  0  0  0
 10 18  1  0  0  0
 11 22  1  0  0  0
 13 14  1  0  0  0
 15 16  1  0  0  0
 17 12  1  0  0  0
 18 26  1  0  0  0
 18  6  1  0  0  0
 21 11  1  0  0  0
 22 12  1  0  0  0
 11 25  2  0  0  0
 12 13  2  0  0  0
 14 15  2  0  0  0
 16 17  2  0  0  0
M  END
> <rmsd>
0.672237813

$$$$
MolPort-046-702-446 MCULE-4621677207 PubChem-4192970


 41 42  0  0  0  0  0  0  0  0999 V2000
   -1.2927   22.8321   63.0304 C   0  0  0  0  0
   -0.4619   23.2849   64.1757 C   0  0  0  0  0
    1.3977   22.7974   65.8183 C   0  0  0  0  0
    2.6062   23.5458   65.2624 C   0  0  0  0  0
    3.7745   23.4103   66.2185 C   0  0  0  0  0
    4.1640   21.9306   66.3993 C   0  0  0  0  0
    1.8121   21.5491   66.6144 C   0  0  0  0  0
    1.7195   21.7451   68.1358 C   0  0  0  0  0
    0.3459   22.2542   68.5876 C   0  0  0  0  0
   -0.7376   21.1840   68.5106 C   0  0  0  0  0
    5.2358   21.6443   65.3705 C   0  0  0  0  0
    5.0656   20.4518   67.9317 C   0  0  0  0  0
    5.8658   20.3318   69.2241 C   0  0  0  0  0
    4.9878   20.5558   70.4739 C   0  0  0  0  0
    5.8191   21.1255   71.6248 C   0  0  0  0  0
    6.6236   22.3581   71.1965 C   0  0  0  0  0
    6.8022   22.3900   69.6700 C   0  0  0  0  0
    7.1968   24.1818   68.4366 C   0  0  0  0  0
    7.9428   25.5100   68.4298 C   0  0  0  0  0
    9.3347   25.3468   67.8936 C   0  0  0  0  0
    8.3234   23.3617   72.7645 C   0  0  0  0  0
    9.6484   23.2711   73.4334 C   0  0  0  0  0
   -0.6297   24.4390   64.6508 O   0  0  0  0  0
    3.0670   21.0271   66.1951 O   0  0  0  0  0
   -1.1110   20.9658   67.1839 O   0  0  0  0  0
    0.4352   22.7237   69.8976 O   0  0  0  0  0
    2.0408   20.5566   68.7985 O   0  0  0  0  0
    6.3277   22.2723   65.4010 O   0  0  0  0  0
    5.0361   20.6704   64.3974 O   0  0  0  0  0
    4.6864   21.7904   67.7084 O   0  0  0  0  0
    7.0632   21.0960   69.1786 O   0  0  0  0  0
    7.8205   23.2669   69.2909 O   0  0  0  0  0
   10.3387   25.6068   68.6083 O   0  0  0  0  0
    9.5206   24.9112   66.5875 O   0  0  0  0  0
    7.5703   24.3441   72.9980 O   0  0  0  0  0
    4.9913   21.4545   72.6979 O   0  0  0  0  0
    4.4061   19.3480   70.8580 O   0  0  0  0  0
    2.2964   24.8946   65.1001 O   0  0  0  0  0
    0.5158   22.4036   64.7295 N   0  0  0  0  0
    7.9520   26.0873   69.7658 N   0  0  0  0  0
    7.9170   22.3329   71.8643 N   0  0  0  0  0
  1  2  1  0  0  0
  2 39  1  0  0  0
  3 39  1  0  0  0
  3  4  1  0  0  0
  4  5  1  0  0  0
  4 38  1  0  0  0
  5  6  1  0  0  0
  6 24  1  0  0  0
  6 11  1  0  0  0
  6 30  1  0  0  0
  7 24  1  0  0  0
  7  8  1  0  0  0
  7  3  1  0  0  0
  8  9  1  0  0  0
  8 27  1  0  0  0
  9 10  1  0  0  0
  9 26  1  0  0  0
 10 25  1  0  0  0
 11 29  1  0  0  0
 12 30  1  0  0  0
 12 13  1  0  0  0
 13 14  1  0  0  0
 13 31  1  0  0  0
 14 15  1  0  0  0
 14 37  1  0  0  0
 15 16  1  0  0  0
 15 36  1  0  0  0
 16 17  1  0  0  0
 16 41  1  0  0  0
 17 31  1  0  0  0
 17 32  1  0  0  0
 18 32  1  0  0  0
 18 19  1  0  0  0
 19 20  1  0  0  0
 19 40  1  0  0  0
 20 34  1  0  0  0
 22 21  1  0  0  0
 41 21  1  0  0  0
  2 23  2  0  0  0
 11 28  2  0  0  0
 20 33  2  0  0  0
 21 35  2  0  0  0
M  END
> <rmsd>
0.792074859

$$$$
MolPort-020-195-472 CSSS00159808792 MCULE-8893548584 PubChem-136112815


 28 30  0  0  0  0  0  0  0  0999 V2000
    1.2701   24.2113   66.5542 C   0  0  0  0  0
    2.6664   24.2405   68.5993 C   0  0  0  0  0
    3.9062   23.9767   69.2074 C   0  0  0  0  0
    5.0500   23.4374   68.4135 C   0  0  0  0  0
    4.9425   21.6027   66.9503 C   0  0  0  0  0
    5.7601   20.3585   66.6130 C   0  0  0  0  0
    7.3580   21.1740   68.2850 C   0  0  0  0  0
    6.1736   21.4978   69.1487 C   0  0  0  0  0
    5.8032   20.2648   69.9673 C   0  0  0  0  0
    4.7028   20.5461   70.9331 C   0  0  0  0  0
    2.3222   20.0881   71.6642 C   0  0  0  0  0
    1.5629   21.3112   71.1626 C   0  0  0  0  0
    0.8593   21.0666   69.8610 C   0  0  0  0  0
    0.1540   20.2177   68.0958 C   0  0  0  0  0
    4.0813   24.2192   70.5742 C   0  0  0  0  0
    3.0311   24.7308   71.3395 C   0  0  0  0  0
    1.8005   25.0052   70.7397 C   0  0  0  0  0
    1.6186   24.7632   69.3759 C   0  0  0  0  0
    2.4962   23.9814   67.2344 O   0  0  0  0  0
    8.5290   21.3819   68.6964 O   0  0  0  0  0
    4.8658   21.3953   71.8498 O   0  0  0  0  0
   -0.0624   19.4165   67.1499 O   0  0  0  0  0
    5.0032   21.9832   68.3782 N   0  0  0  0  0
    7.1367   20.5969   67.0040 N   0  0  0  0  0
    3.4781   19.8217   70.8203 N   0  0  0  0  0
    0.0694   21.9862   69.2760 N   0  0  0  0  0
   -0.3780   21.4493   68.1545 N   0  0  0  0  0
    0.9407   19.9235   69.1464 N   0  0  0  0  0
  1 19  1  0  0  0
  2 19  1  0  0  0
  3 15  1  0  0  0
  4  3  1  0  0  0
  4 23  1  0  0  0
  5 23  1  0  0  0
  5  6  1  0  0  0
  6 24  1  0  0  0
  8  7  1  0  0  0
  8  9  1  0  0  0
  8 23  1  0  0  0
  9 10  1  0  0  0
 10 25  1  0  0  0
 11 25  1  0  0  0
 11 12  1  0  0  0
 12 13  1  0  0  0
 14 28  1  0  0  0
 16 17  1  0  0  0
 18  2  1  0  0  0
 24  7  1  0  0  0
 27 26  1  0  0  0
 27 14  1  0  0  0
 28 13  1  0  0  0
  2  3  2  0  0  0
  7 20  2  0  0  0
 10 21  2  0  0  0
 13 26  2  0  0  0
 14 22  2  0  0  0
 15 16  2  0  0  0
 17 18  2  0  0  0
M  END
> <rmsd>
0.791589737

$$$$
MolPort-047-967-501 MCULE-1289228381 MCULE-4680810664


 32 34  0  0  0  0  0  0  0  0999 V2000
   -3.4087   22.1252   69.6098 C   0  0  0  0  0
   -2.2242   22.9794   69.1999 C   0  0  0  0  0
   -2.5664   23.7703   67.9520 C   0  0  0  0  0
   -1.0205   22.1279   68.9635 C   0  0  0  0  0
    0.0558   20.2816   67.5718 C   0  0  0  0  0
    0.8857   18.4960   66.2172 C   0  0  0  0  0
    2.1338   18.6925   66.7884 C   0  0  0  0  0
    2.3027   19.6586   67.7144 C   0  0  0  0  0
    4.1652   18.6699   67.4079 C   0  0  0  0  0
    4.1780   20.5306   69.1253 C   0  0  0  0  0
    6.1640   21.2989   69.8154 C   0  0  0  0  0
    7.6303   21.0249   69.5373 C   0  0  0  0  0
    5.6824   20.4130   70.9495 C   0  0  0  0  0
    5.7708   18.7769   73.6901 C   0  0  0  0  0
    8.1281   20.5860   72.9939 C   0  0  0  0  0
    5.9643   21.5712   74.9115 C   0  0  0  0  0
    6.7592   21.0219   76.0785 C   0  0  0  0  0
    6.3731   23.0076   74.6591 C   0  0  0  0  0
    4.4874   21.5242   75.2449 C   0  0  0  0  0
    4.4398   19.7573   70.3925 C   0  0  0  0  0
    0.0098   22.3183   69.6632 O   0  0  0  0  0
    0.6932   17.6040   65.3495 O   0  0  0  0  0
    5.4005   21.0402   68.6630 O   0  0  0  0  0
    8.1111   21.9340   68.5951 O   0  0  0  0  0
    5.3954   21.2113   72.0641 O   0  0  0  0  0
    3.3465   19.8652   71.2566 O   0  0  0  0  0
   -1.0490   21.1086   67.9543 N   0  0  0  0  0
   -0.1366   19.3057   66.6249 N   0  0  0  0  0
    1.2950   20.4637   68.1273 N   0  0  0  0  0
    3.5758   19.6687   68.1168 N   0  0  0  0  0
    3.2929   18.0439   66.5666 N   0  0  0  0  0
    6.2957   20.5469   73.3779 Si  0  0  0  0  0
  1  2  1  0  0  0
  2  3  1  0  0  0
  2  4  1  0  0  0
  4 27  1  0  0  0
  6 28  1  0  0  0
  6  7  1  0  0  0
  7 31  1  0  0  0
  8 29  1  0  0  0
  8 30  1  0  0  0
 10 30  1  0  0  0
 10 23  1  0  0  0
 11 23  1  0  0  0
 11 12  1  0  0  0
 11 13  1  0  0  0
 12 24  1  0  0  0
 13 25  1  0  0  0
 13 20  1  0  0  0
 16 17  1  0  0  0
 16 18  1  0  0  0
 16 19  1  0  0  0
 20 26  1  0  0  0
 20 10  1  0  0  0
 27  5  1  0  0  0
 29  5  1  0  0  0
 30  9  1  0  0  0
 32 25  1  0  0  0
 32 14  1  0  0  0
 32 15  1  0  0  0
 32 16  1  0  0  0
  4 21  2  0  0  0
  5 28  2  0  0  0
  6 22  2  0  0  0
  7  8  2  0  0  0
  9 31  2  0  0  0
M  END
> <rmsd>
0.775131941

$$$$
Molport-046-935-292


 23 23  0  0  0  0  0  0  0  0999 V2000
    3.4091   25.0334   64.9374 O   0  0  0  0  0
    0.8619   24.4275   65.8598 O   0  0  0  0  0
    2.8268   22.8048   68.4794 O   0  0  0  0  0
    4.9437   21.8780   68.1863 O   0  0  0  0  0
    7.5829   21.4865   69.0310 O   0  0  0  0  0
    5.3505   21.3812   71.7932 O   0  0  0  0  0
    3.3337   19.4429   71.1219 O   0  0  0  0  0
    1.7821   20.1485   68.8254 O   0  0  0  0  0
    0.4437   22.4753   69.6899 O   0  0  0  0  0
   -1.3743   24.6165   67.8976 O   0  0  0  0  0
   -0.9274   21.1259   67.6725 O   0  0  0  0  0
    3.2129   23.9804   65.8427 C   0  0  0  0  0
    1.9660   24.2354   66.7083 C   0  0  0  0  0
    1.6735   23.0610   67.6865 C   0  0  0  0  0
    3.5484   21.6410   68.0793 C   0  0  0  0  0
    5.3271   22.1901   69.5190 C   0  0  0  0  0
    6.8177   22.5539   69.5209 C   0  0  0  0  0
    5.0351   21.0089   70.4756 C   0  0  0  0  0
    3.5492   20.6222   70.3897 C   0  0  0  0  0
    3.1580   20.4053   68.9207 C   0  0  0  0  0
    0.5169   23.4239   68.6574 C   0  0  0  0  0
   -0.8288   23.5249   67.9605 C   0  0  0  0  0
   -1.5181   22.3459   67.3145 C   0  0  0  0  0
 12  1  1  0  0  0
 12 13  1  0  0  0
 13  2  1  0  0  0
 13 14  1  0  0  0
 14  3  1  0  0  0
 14 21  1  0  0  0
 15  3  1  0  0  0
 15  4  1  0  0  0
 16  4  1  0  0  0
 16 17  1  0  0  0
 16 18  1  0  0  0
 17  5  1  0  0  0
 18  6  1  0  0  0
 18 19  1  0  0  0
 19  7  1  0  0  0
 19 20  1  0  0  0
 20  8  1  0  0  0
 20 15  1  0  0  0
 21  9  1  0  0  0
 21 22  1  0  0  0
 23 22  1  0  0  0
 23 11  1  0  0  0
 22 10  2  0  0  0
M  END
> <rmsd>
0.641934752

$$$$
Molport-028-599-834 49708768 CHEMBL575707 LN04678441 MCULE-2632820656 MCULE-6921896988 PubChem-44548289 PubChem-447379 ZINC000049708768


 34 36  0  0  0  0  0  0  0  0999 V2000
   -1.7238   20.8202   70.8292 C   0  0  0  0  0
   -0.1930   21.0243   69.0688 C   0  0  0  0  0
    1.2304   20.8253   69.6108 C   0  0  0  0  0
    2.0362   22.1195   69.3954 C   0  0  0  0  0
    4.2080   21.3524   69.2524 C   0  0  0  0  0
    5.1491   22.2720   68.4659 C   0  0  0  0  0
    6.1540   22.9922   69.3750 C   0  0  0  0  0
    6.9121   22.0434   70.3128 C   0  0  0  0  0
    5.9669   21.1247   71.0909 C   0  0  0  0  0
    5.6446   21.3122   73.2771 C   0  0  0  0  0
    6.9935   21.5965   75.1234 C   0  0  0  0  0
    8.1886   20.6853   74.8114 C   0  0  0  0  0
    9.2949   21.4746   74.1394 C   0  0  0  0  0
    5.9590   21.0007   76.0947 C   0  0  0  0  0
    4.8488   20.2210   75.3788 C   0  0  0  0  0
    4.4108   20.8906   74.0773 C   0  0  0  0  0
    5.0025   20.3907   70.1482 C   0  0  0  0  0
    0.7851   22.9081   67.6952 C   0  0  0  0  0
   -0.1971   21.7268   67.6904 C   0  0  0  0  0
    0.1967   20.7394   66.6043 C   0  0  0  0  0
   -0.9773   21.7816   70.0365 N   0  0  0  0  0
    5.8367   21.5259   67.4248 N   0  0  0  0  0
    7.8895   21.2601   69.5750 N   0  0  0  0  0
    3.5668   22.0405   74.3641 N   0  0  0  0  0
    1.8314   19.7449   68.9612 O   0  0  0  0  0
    3.3066   22.1181   70.0168 O   0  0  0  0  0
    5.2645   21.8626   72.0510 O   0  0  0  0  0
    6.4243   22.2399   73.9966 O   0  0  0  0  0
    7.8230   19.6083   74.0030 O   0  0  0  0  0
    5.3944   22.0250   76.8549 O   0  0  0  0  0
    5.2676   18.9145   75.1256 O   0  0  0  0  0
    4.1428   19.5629   70.8726 O   0  0  0  0  0
    2.0847   22.4877   68.0357 O   0  0  0  0  0
   -1.4773   22.2027   67.4005 O   0  0  0  0  0
  1 21  1  0  0  0
  2 21  1  0  0  0
  2  3  1  0  0  0
  3 25  1  0  0  0
  3  4  1  0  0  0
  4 26  1  0  0  0
  4 33  1  0  0  0
  5 26  1  0  0  0
  5  6  1  0  0  0
  6 22  1  0  0  0
  6  7  1  0  0  0
  7  8  1  0  0  0
  8 23  1  0  0  0
  8  9  1  0  0  0
  9 27  1  0  0  0
  9 17  1  0  0  0
 10 27  1  0  0  0
 10 28  1  0  0  0
 11 28  1  0  0  0
 11 12  1  0  0  0
 11 14  1  0  0  0
 12 13  1  0  0  0
 12 29  1  0  0  0
 14 30  1  0  0  0
 14 15  1  0  0  0
 15 31  1  0  0  0
 15 16  1  0  0  0
 16 24  1  0  0  0
 16 10  1  0  0  0
 17 32  1  0  0  0
 17  5  1  0  0  0
 18 33  1  0  0  0
 18 19  1  0  0  0
 19 20  1  0  0  0
 19 34  1  0  0  0
 19  2  1  0  0  0
M  END
> <rmsd>
0.736676216

$$$$
Molport-051-905-964 MCULE-1285185322 MCULE-7290312900 PubChem-11813424


 36 38  0  0  0  0  0  0  0  0999 V2000
    8.0166   22.6168   70.9155 C   0  0  0  0  0
    7.4264   21.2685   70.5333 C   0  0  0  0  0
    6.4201   20.7141   71.5798 C   0  0  0  0  0
    5.5205   19.6573   70.9261 C   0  0  0  0  0
    4.8745   20.1433   69.6224 C   0  0  0  0  0
    5.5988   21.4072   69.1242 C   0  0  0  0  0
    5.5664   21.2132   66.8141 C   0  0  0  0  0
    4.3694   20.8833   65.9121 C   0  0  0  0  0
    4.8758   20.1907   64.6386 C   0  0  0  0  0
    6.9054   21.2863   64.6826 C   0  0  0  0  0
    6.5761   22.0237   65.9904 C   0  0  0  0  0
    8.7911   23.2099   66.3308 C   0  0  0  0  0
   10.0135   23.3956   67.1546 C   0  0  0  0  0
    3.7114   19.7971   63.7438 C   0  0  0  0  0
    2.2934   20.8202   66.6961 C   0  0  0  0  0
    1.8551   20.9153   68.1605 C   0  0  0  0  0
    0.6003   21.7889   68.2335 C   0  0  0  0  0
   -0.4434   21.3677   67.1946 C   0  0  0  0  0
    0.2399   21.1844   65.8263 C   0  0  0  0  0
   -0.7553   20.7097   64.7790 C   0  0  0  0  0
    6.9993   21.2612   69.1773 O   0  0  0  0  0
    5.1212   21.9691   67.9147 O   0  0  0  0  0
    5.7391   21.0484   63.9203 O   0  0  0  0  0
    8.6442   23.8778   65.2731 O   0  0  0  0  0
    7.6104   20.0984   64.9172 O   0  0  0  0  0
    4.1705   19.0096   62.6882 O   0  0  0  0  0
    3.4621   20.0603   66.5887 O   0  0  0  0  0
    1.2716   20.2328   65.9281 O   0  0  0  0  0
   -1.5218   21.7824   64.3235 O   0  0  0  0  0
   -1.4312   22.3514   67.1154 O   0  0  0  0  0
    0.0520   21.7520   69.5170 O   0  0  0  0  0
    1.5932   19.6385   68.6682 O   0  0  0  0  0
    4.9685   19.1136   68.6863 O   0  0  0  0  0
    4.5393   19.2210   71.8174 O   0  0  0  0  0
    5.6355   21.7440   72.1124 O   0  0  0  0  0
    7.7916   22.2809   66.7523 N   0  0  0  0  0
  2  1  1  0  0  0
  2  3  1  0  0  0
  2 21  1  0  0  0
  3  4  1  0  0  0
  3 35  1  0  0  0
  4  5  1  0  0  0
  4 34  1  0  0  0
  5  6  1  0  0  0
  5 33  1  0  0  0
  6 21  1  0  0  0
  6 22  1  0  0  0
  7 22  1  0  0  0
  7  8  1  0  0  0
  8  9  1  0  0  0
  8 27  1  0  0  0
  9 23  1  0  0  0
  9 14  1  0  0  0
 10 23  1  0  0  0
 10 11  1  0  0  0
 10 25  1  0  0  0
 11 36  1  0  0  0
 11  7  1  0  0  0
 13 12  1  0  0  0
 14 26  1  0  0  0
 15 27  1  0  0  0
 15 16  1  0  0  0
 15 28  1  0  0  0
 16 17  1  0  0  0
 16 32  1  0  0  0
 17 18  1  0  0  0
 17 31  1  0  0  0
 18 19  1  0  0  0
 18 30  1  0  0  0
 19 28  1  0  0  0
 19 20  1  0  0  0
 20 29  1  0  0  0
 36 12  1  0  0  0
 12 24  2  0  0  0
M  END
> <rmsd>
0.676884174

$$$$
MolPort-003-940-108 150340995 MCULE-3879086327 MCULE-9501349439 PubChem-11527474 ZINC000150340995


 45 45  0  0  0  0  0  0  0  0999 V2000
    0.1744   18.5999   71.4130 C   0  0  0  0  0
    1.6867   18.6985   71.4521 C   0  0  0  0  0
    2.2944   17.5260   70.6974 C   0  0  0  0  0
    2.1415   20.0537   70.9033 C   0  0  0  0  0
    3.5444   20.3894   71.2910 C   0  0  0  0  0
    6.0474   19.8224   71.1105 C   0  0  0  0  0
    6.4869   21.2175   70.6706 C   0  0  0  0  0
    6.5490   21.3209   69.1832 C   0  0  0  0  0
    6.3776   19.5628   72.5461 C   0  0  0  0  0
    7.6282   18.0313   74.1780 C   0  0  0  0  0
    8.4682   16.9196   74.2978 C   0  0  0  0  0
    8.9043   16.4942   75.5559 C   0  0  0  0  0
    8.5042   17.1767   76.7135 C   0  0  0  0  0
    7.6620   18.2919   76.5936 C   0  0  0  0  0
    7.2273   18.7160   75.3349 C   0  0  0  0  0
    1.2734   21.2231   68.8428 C   0  0  0  0  0
    1.1408   21.2832   67.3571 C   0  0  0  0  0
    2.4973   21.4484   66.6860 C   0  0  0  0  0
    3.0172   22.8721   66.8353 C   0  0  0  0  0
    2.2516   23.8178   65.9723 C   0  0  0  0  0
   -0.8141   20.0712   66.2770 C   0  0  0  0  0
   -1.6334   21.3209   66.1302 C   0  0  0  0  0
   -0.9417   22.3397   65.2225 C   0  0  0  0  0
   -1.0247   21.9964   63.7656 C   0  0  0  0  0
   -2.8526   22.9355   67.6568 C   0  0  0  0  0
   -3.0249   23.5050   69.0181 C   0  0  0  0  0
    3.7572   21.4127   71.9937 O   0  0  0  0  0
    5.5003   21.2290   68.4930 O   0  0  0  0  0
    7.7691   21.5436   68.5596 O   0  0  0  0  0
    5.9347   20.3247   73.4483 O   0  0  0  0  0
    8.6101   17.3465   79.0371 O   0  0  0  0  0
    9.7951   15.6535   78.1123 O   0  0  0  0  0
    0.7638   22.1359   69.5457 O   0  0  0  0  0
    2.2787   23.6978   64.7194 O   0  0  0  0  0
    1.5212   24.8457   66.5532 O   0  0  0  0  0
   -1.2971   18.9815   65.8745 O   0  0  0  0  0
   -1.6605   20.9848   63.3646 O   0  0  0  0  0
   -0.3929   22.8157   62.8408 O   0  0  0  0  0
   -3.5589   23.3653   66.7064 O   0  0  0  0  0
    4.6326   19.5764   70.8321 N   0  0  0  0  0
    7.2074   18.4394   72.8692 N   0  0  0  0  0
    8.9555   16.7386   78.0027 N   0  0  0  0  0
    1.9761   20.1412   69.4581 N   0  0  0  0  0
    0.4916   20.0778   66.8648 N   0  0  0  0  0
   -1.8909   21.9014   67.4410 N   0  0  0  0  0
  1  2  1  0  0  0
  2  3  1  0  0  0
  4  2  1  0  0  0
  4  5  1  0  0  0
  4 43  1  0  0  0
  5 40  1  0  0  0
  6 40  1  0  0  0
  6  7  1  0  0  0
  6  9  1  0  0  0
  7  8  1  0  0  0
  8 29  1  0  0  0
  9 41  1  0  0  0
 11 12  1  0  0  0
 13 14  1  0  0  0
 13 42  1  0  0  0
 15 10  1  0  0  0
 17 16  1  0  0  0
 17 18  1  0  0  0
 17 44  1  0  0  0
 18 19  1  0  0  0
 19 20  1  0  0  0
 20 35  1  0  0  0
 22 21  1  0  0  0
 22 23  1  0  0  0
 22 45  1  0  0  0
 23 24  1  0  0  0
 24 38  1  0  0  0
 26 25  1  0  0  0
 41 10  1  0  0  0
 42 32  1  0  0  0
 43 16  1  0  0  0
 44 21  1  0  0  0
 45 25  1  0  0  0
  5 27  2  0  0  0
  8 28  2  0  0  0
  9 30  2  0  0  0
 10 11  2  0  0  0
 12 13  2  0  0  0
 14 15  2  0  0  0
 16 33  2  0  0  0
 20 34  2  0  0  0
 21 36  2  0  0  0
 24 37  2  0  0  0
 25 39  2  0  0  0
 42 31  2  0  0  0
M  CHG  2  42   1  32  -1
M  END
> <rmsd>
0.764544964

$$$$
MolPort-047-660-061 MCULE-3435930152 PubChem-73155870


 42 45  0  0  0  0  0  0  0  0999 V2000
   -7.5251   21.5855   71.4018 C   0  0  0  0  0
   -6.4953   23.5263   70.2662 C   0  0  0  0  0
   -6.6739   24.7639   69.6389 C   0  0  0  0  0
   -5.5809   25.4454   69.0963 C   0  0  0  0  0
   -4.2955   24.9012   69.1772 C   0  0  0  0  0
   -4.1128   23.6660   69.8192 C   0  0  0  0  0
   -5.2050   22.9818   70.3591 C   0  0  0  0  0
   -1.8590   25.1974   68.6433 C   0  0  0  0  0
   -1.1715   25.4440   70.0109 C   0  0  0  0  0
   -0.3862   24.2173   70.4793 C   0  0  0  0  0
    0.4115   23.5655   69.3425 C   0  0  0  0  0
   -0.3423   23.6743   67.9933 C   0  0  0  0  0
   -0.0788   22.5340   67.0136 C   0  0  0  0  0
    2.0930   22.1407   69.6064 C   0  0  0  0  0
    2.5369   20.8249   68.9347 C   0  0  0  0  0
    3.8949   20.3430   69.4873 C   0  0  0  0  0
    4.7940   21.5252   69.8743 C   0  0  0  0  0
    4.0174   22.6007   70.6725 C   0  0  0  0  0
    4.7014   22.8807   72.0003 C   0  0  0  0  0
    6.7118   22.0692   68.8842 C   0  0  0  0  0
    7.3525   23.4796   68.8007 C   0  0  0  0  0
    8.6046   23.4792   67.9178 C   0  0  0  0  0
    8.3657   22.7595   66.5842 C   0  0  0  0  0
    7.2996   21.6609   66.7110 C   0  0  0  0  0
    7.5520   20.5524   65.7036 C   0  0  0  0  0
   -7.6095   22.8670   70.7920 O   0  0  0  0  0
   -3.2279   25.6127   68.6111 O   0  0  0  0  0
   -1.7193   23.8714   68.1851 O   0  0  0  0  0
   -0.7497   21.3768   67.4131 O   0  0  0  0  0
    0.6992   22.2388   69.6850 O   0  0  0  0  0
    2.6652   22.2558   70.8835 O   0  0  0  0  0
    4.6584   21.7517   72.8197 O   0  0  0  0  0
    5.3216   22.1036   68.7169 O   0  0  0  0  0
    7.2995   21.1219   68.0108 O   0  0  0  0  0
    7.2349   20.9937   64.4193 O   0  0  0  0  0
    7.9685   23.6850   65.6195 O   0  0  0  0  0
    9.6588   22.8673   68.5973 O   0  0  0  0  0
    6.4423   24.4238   68.3174 O   0  0  0  0  0
    3.7136   19.5226   70.6059 O   0  0  0  0  0
    1.5692   19.8236   69.0721 O   0  0  0  0  0
    0.4738   24.5704   71.5188 O   0  0  0  0  0
   -2.0859   25.8269   70.9931 O   0  0  0  0  0
  1 26  1  0  0  0
  2 26  1  0  0  0
  3  4  1  0  0  0
  5  6  1  0  0  0
  5 27  1  0  0  0
  7  2  1  0  0  0
  8 27  1  0  0  0
  8  9  1  0  0  0
  8 28  1  0  0  0
  9 10  1  0  0  0
  9 42  1  0  0  0
 10 11  1  0  0  0
 10 41  1  0  0  0
 11 12  1  0  0  0
 11 30  1  0  0  0
 12 28  1  0  0  0
 12 13  1  0  0  0
 13 29  1  0  0  0
 14 30  1  0  0  0
 14 15  1  0  0  0
 14 31  1  0  0  0
 15 16  1  0  0  0
 15 40  1  0  0  0
 16 17  1  0  0  0
 16 39  1  0  0  0
 17 18  1  0  0  0
 17 33  1  0  0  0
 18 31  1  0  0  0
 18 19  1  0  0  0
 19 32  1  0  0  0
 20 33  1  0  0  0
 20 21  1  0  0  0
 20 34  1  0  0  0
 21 22  1  0  0  0
 21 38  1  0  0  0
 22 23  1  0  0  0
 22 37  1  0  0  0
 23 24  1  0  0  0
 23 36  1  0  0  0
 24 34  1  0  0  0
 24 25  1  0  0  0
 25 35  1  0  0  0
  2  3  2  0  0  0
  4  5  2  0  0  0
  6  7  2  0  0  0
M  END
> <rmsd>
0.751386166

$$$$
MolPort-003-940-097 33359835 MCULE-1390332447 MCULE-9714450358 PubChem-16218872 PubChem-9549216 ZINC000033359835


 40 42  0  0  0  0  0  0  0  0999 V2000
    0.4876   17.1873   72.0711 N   0  0  0  0  0
    4.1346   19.2622   71.4419 N   0  0  0  0  0
    8.8324   20.2515   70.5968 N   0  0  0  0  0
   10.6022   23.0462   71.5246 N   0  0  0  0  0
   -0.1196   22.7626   70.2635 N   0  0  0  0  0
    1.0501   18.5007   72.3257 C   0  0  0  0  0
    2.1873   18.3787   73.3209 C   0  0  0  0  0
    2.8130   19.7421   73.5778 C   0  0  0  0  0
    3.7797   20.1583   72.5056 C   0  0  0  0  0
    5.1255   19.5549   70.4080 C   0  0  0  0  0
    6.4994   19.7698   71.0392 C   0  0  0  0  0
    7.5430   20.0381   69.9635 C   0  0  0  0  0
    7.1532   21.2673   69.1385 C   0  0  0  0  0
    8.5724   22.7818   68.3470 C   0  0  0  0  0
   10.2696   24.0008   69.3073 C   0  0  0  0  0
    9.8688   24.0511   70.7758 C   0  0  0  0  0
    9.7334   25.2340   68.5519 C   0  0  0  0  0
    9.3062   24.8725   67.1276 C   0  0  0  0  0
    8.3783   23.6537   67.0969 C   0  0  0  0  0
    5.7748   21.0623   68.5003 C   0  0  0  0  0
    4.7100   20.7657   69.5610 C   0  0  0  0  0
    2.5779   21.4167   69.4788 C   0  0  0  0  0
    1.7393   22.3163   67.5491 C   0  0  0  0  0
    1.9731   23.4039   66.5143 C   0  0  0  0  0
    0.2500   22.2189   67.9110 C   0  0  0  0  0
    0.0418   21.6642   69.3256 C   0  0  0  0  0
    1.2005   20.7666   69.7718 C   0  0  0  0  0
    3.4674   19.7211   74.8095 O   0  0  0  0  0
    4.2900   21.3095   72.5596 O   0  0  0  0  0
    8.1053   21.4804   68.1353 O   0  0  0  0  0
    9.9308   22.7549   68.7164 O   0  0  0  0  0
   10.7178   26.2225   68.5154 O   0  0  0  0  0
    8.6709   25.9598   66.5270 O   0  0  0  0  0
    8.6367   22.9179   65.9382 O   0  0  0  0  0
    5.4143   22.2040   67.7818 O   0  0  0  0  0
    3.4898   20.5042   68.9264 O   0  0  0  0  0
    2.5003   22.5957   68.6982 O   0  0  0  0  0
    1.4607   23.0105   65.2788 O   0  0  0  0  0
   -0.4030   21.4004   66.9896 O   0  0  0  0  0
    1.0875   19.5193   69.1510 O   0  0  0  0  0
  6  1  1  0  0  0
  6  7  1  0  0  0
  8  7  1  0  0  0
  8 28  1  0  0  0
  8  9  1  0  0  0
  9  2  1  0  0  0
 10  2  1  0  0  0
 10 11  1  0  0  0
 11 12  1  0  0  0
 12  3  1  0  0  0
 12 13  1  0  0  0
 13 30  1  0  0  0
 13 20  1  0  0  0
 14 30  1  0  0  0
 14 31  1  0  0  0
 15 31  1  0  0  0
 15 16  1  0  0  0
 15 17  1  0  0  0
 16  4  1  0  0  0
 17 32  1  0  0  0
 17 18  1  0  0  0
 18 33  1  0  0  0
 18 19  1  0  0  0
 19 34  1  0  0  0
 19 14  1  0  0  0
 20 35  1  0  0  0
 20 21  1  0  0  0
 21 36  1  0  0  0
 21 10  1  0  0  0
 22 36  1  0  0  0
 22 37  1  0  0  0
 23 37  1  0  0  0
 23 24  1  0  0  0
 23 25  1  0  0  0
 24 38  1  0  0  0
 25 39  1  0  0  0
 25 26  1  0  0  0
 26  5  1  0  0  0
 26 27  1  0  0  0
 27 40  1  0  0  0
 27 22  1  0  0  0
  9 29  2  0  0  0
M  END
> <rmsd>
0.7951051

$$$$
MolPort-028-959-505


 27 26  0  0  0  0  0  0  0  0999 V2000
    3.6403   19.1059   71.5828 O   0  0  0  0  0
    6.0521   18.9892   70.1774 O   0  0  0  0  0
    5.3031   21.9653   72.0901 O   0  0  0  0  0
    6.6414   23.2926   70.1953 O   0  0  0  0  0
    8.0726   20.7776   68.5665 O   0  0  0  0  0
    6.1866   21.1219   66.6283 O   0  0  0  0  0
    4.8433   22.3207   68.0379 O   0  0  0  0  0
    3.3449   24.3389   69.2189 O   0  0  0  0  0
    3.2416   24.3689   71.5052 O   0  0  0  0  0
    1.9282   21.9753   71.5615 O   0  0  0  0  0
    2.2594   20.4667   69.2176 O   0  0  0  0  0
   -0.3769   21.1273   69.6986 O   0  0  0  0  0
   -1.2331   22.1752   67.1262 O   0  0  0  0  0
   -0.6644   19.4651   67.4367 O   0  0  0  0  0
    4.8703   19.1910   72.2390 C   0  0  0  0  0
    5.9313   19.7860   71.3178 C   0  0  0  0  0
    5.6149   21.2392   70.9361 C   0  0  0  0  0
    6.8036   21.9053   70.2296 C   0  0  0  0  0
    7.0061   21.3915   68.8352 C   0  0  0  0  0
    5.9994   21.5958   67.7797 C   0  0  0  0  0
    2.9654   23.7746   70.4305 C   0  0  0  0  0
    2.2507   22.4929   70.4579 C   0  0  0  0  0
    1.8854   21.8123   69.1769 C   0  0  0  0  0
    0.3927   21.9641   68.8838 C   0  0  0  0  0
    0.0714   21.7610   67.4006 C   0  0  0  0  0
    0.2933   20.3320   66.9066 C   0  0  0  0  0
    3.0770   23.9328   69.9884 Ca  0  0  0  0  0
  7 27  1  0  0  0
 15  1  1  0  0  0
 16 15  1  0  0  0
 16  2  1  0  0  0
 16 17  1  0  0  0
 17  3  1  0  0  0
 17 18  1  0  0  0
 18  4  1  0  0  0
 18 19  1  0  0  0
 19 20  1  0  0  0
 20  7  1  0  0  0
 21  8  1  0  0  0
 21 22  1  0  0  0
 23 22  1  0  0  0
 23 11  1  0  0  0
 23 24  1  0  0  0
 24 12  1  0  0  0
 24 25  1  0  0  0
 25 13  1  0  0  0
 25 26  1  0  0  0
 26 14  1  0  0  0
 27  8  1  0  0  0
 19  5  2  0  0  0
 20  6  2  0  0  0
 21  9  2  0  0  0
 22 10  2  0  0  0
M  END
> <rmsd>
0.781796336

$$$$
MolPort-027-640-768 MolPort-047-897-812 3928290 CHEMBL417149 CSSS00102623634 LN01322021 MCULE-3308949095 MCULE-5639042928 MCULE-7339742459 PubChem-163336910 PubChem-644345 Z4561822377 ZINC000003928290


 35 34  0  0  0  0  0  0  0  0999 V2000
   -1.5750   23.7501   68.3838 C   0  0  0  0  0
   -0.8201   22.5036   68.6743 C   0  0  0  0  0
    0.2911   20.3992   67.8091 C   0  0  0  0  0
    0.1766   19.5174   66.5723 C   0  0  0  0  0
    0.6134   18.1211   66.8653 C   0  0  0  0  0
    1.7236   20.7183   68.1060 C   0  0  0  0  0
    3.6817   20.5253   69.6965 C   0  0  0  0  0
    4.5778   19.5726   68.9079 C   0  0  0  0  0
    6.0520   19.9449   69.0431 C   0  0  0  0  0
    6.4348   21.1651   68.2599 C   0  0  0  0  0
    3.8647   20.3393   71.1668 C   0  0  0  0  0
    3.7812   18.8135   73.1943 C   0  0  0  0  0
    5.2340   18.8180   73.5560 C   0  0  0  0  0
    7.5832   17.9566   73.1416 C   0  0  0  0  0
    8.2475   19.2094   72.6590 C   0  0  0  0  0
    8.2238   16.7390   72.4897 C   0  0  0  0  0
    7.7748   15.4802   73.1525 C   0  0  0  0  0
    3.1017   17.5081   73.6180 C   0  0  0  0  0
    3.5032   16.3248   72.7500 C   0  0  0  0  0
    1.5941   17.6684   73.5955 C   0  0  0  0  0
   -0.4972   22.2332   69.8615 O   0  0  0  0  0
   -0.0263   17.4148   67.6878 O   0  0  0  0  0
    1.7215   17.5939   66.2163 O   0  0  0  0  0
    2.4190   21.3589   67.2710 O   0  0  0  0  0
    5.5982   21.7728   67.5393 O   0  0  0  0  0
    7.7405   21.6304   68.3299 O   0  0  0  0  0
    4.2502   21.3116   71.8688 O   0  0  0  0  0
    5.6341   19.5597   74.4922 O   0  0  0  0  0
    8.2124   19.5248   71.4799 O   0  0  0  0  0
    8.0700   15.2560   74.3556 O   0  0  0  0  0
    7.0403   14.5461   72.4350 O   0  0  0  0  0
   -0.4673   21.6256   67.6034 N   0  0  0  0  0
    2.2873   20.2966   69.3484 N   0  0  0  0  0
    3.5979   19.0694   71.7685 N   0  0  0  0  0
    6.1571   17.9903   72.8421 N   0  0  0  0  0
  1  2  1  0  0  0
  2 32  1  0  0  0
  3 32  1  0  0  0
  3  4  1  0  0  0
  3  6  1  0  0  0
  4  5  1  0  0  0
  5 23  1  0  0  0
  6 33  1  0  0  0
  7 33  1  0  0  0
  7  8  1  0  0  0
  7 11  1  0  0  0
  8  9  1  0  0  0
  9 10  1  0  0  0
 10 26  1  0  0  0
 11 34  1  0  0  0
 12 34  1  0  0  0
 12 13  1  0  0  0
 12 18  1  0  0  0
 13 35  1  0  0  0
 14 35  1  0  0  0
 14 15  1  0  0  0
 14 16  1  0  0  0
 16 17  1  0  0  0
 17 31  1  0  0  0
 18 19  1  0  0  0
 18 20  1  0  0  0
  2 21  2  0  0  0
  5 22  2  0  0  0
  6 24  2  0  0  0
 10 25  2  0  0  0
 11 27  2  0  0  0
 13 28  2  0  0  0
 15 29  2  0  0  0
 17 30  2  0  0  0
M  END
> <rmsd>
0.621789873

$$$$
MolPort-027-640-768 MolPort-047-897-812 3928290 CHEMBL417149 CSSS00102623634 LN01322021 MCULE-3308949095 MCULE-5639042928 MCULE-7339742459 PubChem-163336910 PubChem-644345 Z4561822377 ZINC000003928290


 35 34  0  0  0  0  0  0  0  0999 V2000
    5.2522   23.8367   71.4972 C   0  0  0  0  0
    5.0317   22.4155   71.8749 C   0  0  0  0  0
    6.0817   20.1935   72.6404 C   0  0  0  0  0
    5.0789   19.9675   73.7717 C   0  0  0  0  0
    5.2389   18.6140   74.3790 C   0  0  0  0  0
    5.8261   19.3110   71.4565 C   0  0  0  0  0
    4.1695   18.3756   69.7750 C   0  0  0  0  0
    4.9992   18.5108   68.4889 C   0  0  0  0  0
    4.7576   19.7999   67.7035 C   0  0  0  0  0
    5.4422   20.9676   68.3245 C   0  0  0  0  0
    2.6979   18.4598   69.5299 C   0  0  0  0  0
    0.6831   19.8802   68.8898 C   0  0  0  0  0
    0.3672   21.3535   68.7881 C   0  0  0  0  0
   -0.6516   23.3008   67.5152 C   0  0  0  0  0
   -1.7775   23.6248   68.4533 C   0  0  0  0  0
   -1.0488   23.5978   66.0759 C   0  0  0  0  0
   -1.0299   25.0641   65.8072 C   0  0  0  0  0
    0.2147   19.0119   67.7067 C   0  0  0  0  0
   -1.2986   18.9949   67.5935 C   0  0  0  0  0
    0.8478   19.4262   66.3878 C   0  0  0  0  0
    3.8621   21.9463   71.8653 O   0  0  0  0  0
    6.3198   18.2899   74.9382 O   0  0  0  0  0
    4.1821   17.7157   74.3430 O   0  0  0  0  0
    6.7333   18.5284   71.0650 O   0  0  0  0  0
    4.7676   21.9667   68.6872 O   0  0  0  0  0
    6.8235   20.9741   68.4697 O   0  0  0  0  0
    1.9798   17.4397   69.7078 O   0  0  0  0  0
    0.6674   22.1091   69.7524 O   0  0  0  0  0
   -2.8492   23.0450   68.3725 O   0  0  0  0  0
    0.0520   25.7072   65.8608 O   0  0  0  0  0
   -2.2097   25.7212   65.4866 O   0  0  0  0  0
    6.1495   21.6046   72.2574 N   0  0  0  0  0
    4.5627   19.3453   70.7889 N   0  0  0  0  0
    2.1106   19.7000   69.1264 N   0  0  0  0  0
   -0.2839   21.8969   67.6330 N   0  0  0  0  0
  1  2  1  0  0  0
  2 32  1  0  0  0
  3 32  1  0  0  0
  3  4  1  0  0  0
  3  6  1  0  0  0
  4  5  1  0  0  0
  5 23  1  0  0  0
  6 33  1  0  0  0
  7 33  1  0  0  0
  7  8  1  0  0  0
  7 11  1  0  0  0
  8  9  1  0  0  0
  9 10  1  0  0  0
 10 26  1  0  0  0
 11 34  1  0  0  0
 12 34  1  0  0  0
 12 13  1  0  0  0
 12 18  1  0  0  0
 13 35  1  0  0  0
 14 35  1  0  0  0
 14 15  1  0  0  0
 14 16  1  0  0  0
 16 17  1  0  0  0
 17 31  1  0  0  0
 18 19  1  0  0  0
 18 20  1  0  0  0
  2 21  2  0  0  0
  5 22  2  0  0  0
  6 24  2  0  0  0
 10 25  2  0  0  0
 11 27  2  0  0  0
 13 28  2  0  0  0
 15 29  2  0  0  0
 17 30  2  0  0  0
M  END
> <rmsd>
0.819790244

$$$$
MolPort-002-718-929 CSSS00160399958 ChemDiv-8013-6316 MCULE-9981615777 NSC405936 PubChem-347317


 30 32  0  0  0  0  0  0  0  0999 V2000
    3.4914   24.4117   72.8340 O   0  0  0  0  0
    4.4314   21.7240   72.8000 O   0  0  0  0  0
    2.5778   21.9627   69.6925 O   0  0  0  0  0
    0.3697   22.4451   70.0810 O   0  0  0  0  0
   -0.7297   22.5520   72.7024 O   0  0  0  0  0
   -1.1613   19.4546   69.9805 O   0  0  0  0  0
   -1.0378   21.9398   67.3941 O   0  0  0  0  0
    1.4960   19.6533   68.1263 O   0  0  0  0  0
    4.7612   19.4941   71.2057 O   0  0  0  0  0
    2.8544   23.3770   72.1493 C   0  0  0  0  0
    3.8807   22.3564   71.6836 C   0  0  0  0  0
    3.2314   21.3221   70.7531 C   0  0  0  0  0
    1.2808   21.4435   69.6979 C   0  0  0  0  0
   -0.8646   21.8365   70.4237 C   0  0  0  0  0
   -0.9089   21.4298   71.8938 C   0  0  0  0  0
   -1.3421   20.7318   69.4405 C   0  0  0  0  0
   -0.5940   20.8251   68.1066 C   0  0  0  0  0
    0.9253   20.9133   68.3051 C   0  0  0  0  0
    4.2221   20.2882   70.1920 C   0  0  0  0  0
    5.3073   20.8880   69.3524 C   0  0  0  0  0
    6.3501   21.6872   69.7848 C   0  0  0  0  0
    6.9683   21.4527   66.3112 C   0  0  0  0  0
    6.2869   20.7883   65.2803 C   0  0  0  0  0
    6.7528   20.8609   63.9641 C   0  0  0  0  0
    7.9028   21.5981   63.6695 C   0  0  0  0  0
    8.5873   22.2630   64.6904 C   0  0  0  0  0
    8.1219   22.1907   66.0066 C   0  0  0  0  0
    5.4128   20.7035   68.0263 N   0  0  0  0  0
    6.4901   21.3788   67.6611 N   0  0  0  0  0
    7.0756   21.9790   68.6872 N   0  0  0  0  0
 10  1  1  0  0  0
 11 10  1  0  0  0
 11  2  1  0  0  0
 11 12  1  0  0  0
 12  3  1  0  0  0
 12 19  1  0  0  0
 13  3  1  0  0  0
 13  4  1  0  0  0
 14  4  1  0  0  0
 14 15  1  0  0  0
 14 16  1  0  0  0
 15  5  1  0  0  0
 16  6  1  0  0  0
 16 17  1  0  0  0
 17  7  1  0  0  0
 17 18  1  0  0  0
 18  8  1  0  0  0
 18 13  1  0  0  0
 19  9  1  0  0  0
 19 20  1  0  0  0
 21 20  1  0  0  0
 23 24  1  0  0  0
 25 26  1  0  0  0
 27 22  1  0  0  0
 29 28  1  0  0  0
 29 30  1  0  0  0
 29 22  1  0  0  0
 20 28  2  0  0  0
 21 30  2  0  0  0
 22 23  2  0  0  0
 24 25  2  0  0  0
 26 27  2  0  0  0
M  END
> <rmsd>
0.735123992

$$$$
MolPort-005-948-498 CSSS00159281800 MCULE-7778432984 PubChem-45360576 ZINC000022922187


 27 30  0  0  0  0  0  0  0  0999 V2000
    8.1639   21.3708   66.7092 C   0  0  0  0  0
    7.5548   22.0981   68.9059 C   0  0  0  0  0
    6.1917   22.7025   68.5314 C   0  0  0  0  0
    5.4541   20.5795   67.7154 C   0  0  0  0  0
    6.8097   19.9542   68.0820 C   0  0  0  0  0
    4.8737   21.2596   69.9786 C   0  0  0  0  0
    4.5083   22.4541   70.8934 C   0  0  0  0  0
    3.0355   21.8151   72.4326 C   0  0  0  0  0
    2.3865   22.0767   71.1000 C   0  0  0  0  0
    2.3382   20.7749   70.2674 C   0  0  0  0  0
    0.3125   21.3442   68.8510 C   0  0  0  0  0
   -1.5725   21.9540   67.2234 C   0  0  0  0  0
   -1.9095   22.1736   65.8831 C   0  0  0  0  0
   -3.2188   22.5124   65.5285 C   0  0  0  0  0
   -4.2008   22.6339   66.5152 C   0  0  0  0  0
   -3.8735   22.4168   67.8562 C   0  0  0  0  0
   -2.5640   22.0781   68.2093 C   0  0  0  0  0
    3.7499   20.1909   70.0325 C   0  0  0  0  0
    7.8962   20.9388   68.0757 N   0  0  0  0  0
    5.1103   21.7083   68.5924 N   0  0  0  0  0
    1.6981   21.0209   68.9815 N   0  0  0  0  0
   -0.2185   21.6093   67.5466 N   0  0  0  0  0
    4.4075   22.0226   72.2327 O   0  0  0  0  0
    3.2652   22.9610   70.4837 O   0  0  0  0  0
   -0.4255   21.3877   69.8726 O   0  0  0  0  0
    4.0418   19.2511   71.0213 O   0  0  0  0  0
   -5.4693   22.9621   66.1721 F   0  0  0  0  0
  1 19  1  0  0  0
  2 19  1  0  0  0
  2  3  1  0  0  0
  3 20  1  0  0  0
  4 20  1  0  0  0
  4  5  1  0  0  0
  5 19  1  0  0  0
  6 20  1  0  0  0
  6  7  1  0  0  0
  7 23  1  0  0  0
  7 24  1  0  0  0
  8 23  1  0  0  0
  9  8  1  0  0  0
  9 24  1  0  0  0
  9 10  1  0  0  0
 10 21  1  0  0  0
 10 18  1  0  0  0
 11 22  1  0  0  0
 13 14  1  0  0  0
 15 27  1  0  0  0
 15 16  1  0  0  0
 17 12  1  0  0  0
 18 26  1  0  0  0
 18  6  1  0  0  0
 21 11  1  0  0  0
 22 12  1  0  0  0
 11 25  2  0  0  0
 12 13  2  0  0  0
 14 15  2  0  0  0
 16 17  2  0  0  0
M  END
> <rmsd>
0.718375266

$$$$
MolPort-005-948-498 CSSS00159281800 MCULE-7778432984 PubChem-45360576 ZINC000022922187


 27 30  0  0  0  0  0  0  0  0999 V2000
    9.0136   20.4334   68.3635 C   0  0  0  0  0
    7.5628   22.2545   68.5881 C   0  0  0  0  0
    6.1494   22.7975   68.2953 C   0  0  0  0  0
    5.4037   20.6185   67.5144 C   0  0  0  0  0
    6.9043   20.3314   67.3666 C   0  0  0  0  0
    4.9272   21.3191   69.7904 C   0  0  0  0  0
    4.5848   22.5104   70.7186 C   0  0  0  0  0
    3.1909   21.8547   72.3229 C   0  0  0  0  0
    2.4799   22.1034   71.0198 C   0  0  0  0  0
    2.4136   20.7986   70.1929 C   0  0  0  0  0
    0.3195   21.3349   68.8661 C   0  0  0  0  0
   -1.6440   21.9130   67.3219 C   0  0  0  0  0
   -2.5928   22.0257   68.3503 C   0  0  0  0  0
   -3.9213   22.3445   68.0546 C   0  0  0  0  0
   -4.3105   22.5531   66.7290 C   0  0  0  0  0
   -3.3714   22.4429   65.7001 C   0  0  0  0  0
   -2.0429   22.1240   65.9972 C   0  0  0  0  0
    3.8219   20.2344   69.8973 C   0  0  0  0  0
    7.6199   20.7929   68.5480 N   0  0  0  0  0
    5.1003   21.7659   68.3946 N   0  0  0  0  0
    1.7140   21.0320   68.9360 N   0  0  0  0  0
   -0.2721   21.5887   67.5858 N   0  0  0  0  0
    4.5497   22.0808   72.0619 O   0  0  0  0  0
    3.3176   22.9983   70.3632 O   0  0  0  0  0
   -0.3732   21.3707   69.9191 O   0  0  0  0  0
    4.1711   19.3022   70.8748 O   0  0  0  0  0
   -5.5975   22.8621   66.4413 F   0  0  0  0  0
  1 19  1  0  0  0
  2 19  1  0  0  0
  2  3  1  0  0  0
  3 20  1  0  0  0
  4 20  1  0  0  0
  4  5  1  0  0  0
  5 19  1  0  0  0
  6 20  1  0  0  0
  6  7  1  0  0  0
  7 23  1  0  0  0
  7 24  1  0  0  0
  8 23  1  0  0  0
  9  8  1  0  0  0
  9 24  1  0  0  0
  9 10  1  0  0  0
 10 21  1  0  0  0
 10 18  1  0  0  0
 11 22  1  0  0  0
 13 14  1  0  0  0
 15 27  1  0  0  0
 15 16  1  0  0  0
 17 12  1  0  0  0
 18 26  1  0  0  0
 18  6  1  0  0  0
 21 11  1  0  0  0
 22 12  1  0  0  0
 11 25  2  0  0  0
 12 13  2  0  0  0
 14 15  2  0  0  0
 16 17  2  0  0  0
M  END
> <rmsd>
0.678823113

$$$$
