MolPort-046-597-415 CSSS00160806299


 32 35  0  0  0  0  0  0  0  0999 V2000
    3.9090   19.0698   69.1281 C   0  0  0  0  0  0  0  0  0  0  0  0
    4.5432   21.5474   67.8767 O   0  0  0  0  0  0  0  0  0  0  0  0
    5.5898   20.8794   68.5028 C   0  0  0  0  0  0  0  0  0  0  0  0
    6.7953   21.3378   68.3566 N   0  0  0  0  0  0  0  0  0  0  0  0
    8.0063   20.8161   68.9301 C   0  0  0  0  0  0  0  0  0  0  0  0
    9.1743   20.9555   68.1702 C   0  0  0  0  0  0  0  0  0  0  0  0
   10.4108   20.5451   68.6678 C   0  0  0  0  0  0  0  0  0  0  0  0
   10.4996   20.0061   69.9488 C   0  0  0  0  0  0  0  0  0  0  0  0
    9.3520   19.8819   70.7314 C   0  0  0  0  0  0  0  0  0  0  0  0
    8.0953   20.2768   70.2448 C   0  0  0  0  0  0  0  0  0  0  0  0
    6.9434   20.1589   71.1691 C   0  0  0  0  0  0  0  0  0  0  0  0
    7.1336   20.2651   72.4101 O   0  0  0  0  0  0  0  0  0  0  0  0
    5.6244   19.8762   70.7055 N   0  0  0  0  0  0  0  0  0  0  0  0
    5.3230   19.6414   69.3059 C   0  0  0  0  0  0  0  0  0  0  0  0
    4.7139   22.3207   67.3758 H   0  0  0  0  0  0  0  0  0  0  0  0
    4.8903   19.8390   71.3604 H   0  0  0  0  0  0  0  0  0  0  0  0
    2.7823   19.9364   69.6210 C   0  0  0  0  0  0  0  0  0  0  0  0
    2.6995   20.2693   70.8349 O   0  0  0  0  0  0  0  0  0  0  0  0
    1.8009   20.3778   68.6778 N   0  0  0  0  0  0  0  0  0  0  0  0
    1.9079   20.0894   67.7426 H   0  0  0  0  0  0  0  0  0  0  0  0
    0.6758   21.2059   68.9886 C   0  0  0  0  0  0  0  0  0  0  0  0
    0.7628   22.5038   69.3329 N   0  0  0  0  0  0  0  0  0  0  0  0
   -0.4752   22.9166   69.5397 N   0  0  0  0  0  0  0  0  0  0  0  0
   -1.2793   21.8585   69.3153 C   0  0  0  0  0  0  0  0  0  0  0  0
   -0.5911   20.7527   68.9632 N   0  0  0  0  0  0  0  0  0  0  0  0
   -0.9266   19.8531   68.7455 H   0  0  0  0  0  0  0  0  0  0  0  0
   -2.7446   21.9043   69.4402 C   0  0  0  0  0  0  0  0  0  0  0  0
   -3.5191   22.5377   68.4580 C   0  0  0  0  0  0  0  0  0  0  0  0
   -4.9114   22.5813   68.5766 C   0  0  0  0  0  0  0  0  0  0  0  0
   -5.5377   21.9919   69.6782 C   0  0  0  0  0  0  0  0  0  0  0  0
   -4.7721   21.3587   70.6612 C   0  0  0  0  0  0  0  0  0  0  0  0
   -3.3797   21.3151   70.5426 C   0  0  0  0  0  0  0  0  0  0  0  0
  2  3  1  0  0  0
  3  4  2  0  0  0
  4  5  1  0  0  0
  5  6  2  0  0  0
  6  7  1  0  0  0
  7  8  2  0  0  0
  8  9  1  0  0  0
  9 10  2  0  0  0
 10 11  1  0  0  0
 11 12  2  0  0  0
 11 13  1  0  0  0
 13 14  1  0  0  0
 14  1  1  0  0  0
  1 17  1  0  0  0
 17 18  2  0  0  0
 17 19  1  0  0  0
 19 21  1  0  0  0
 21 22  2  0  0  0
 22 23  1  0  0  0
 23 24  2  0  0  0
 24 25  1  0  0  0
 24 27  1  0  0  0
 27 28  2  0  0  0
 28 29  1  0  0  0
 29 30  2  0  0  0
 30 31  1  0  0  0
 31 32  2  0  0  0
 14  3  1  0  0  0
 25 21  1  0  0  0
 32 27  1  0  0  0
 10  5  1  0  0  0
  2 15  1  0  0  0
 13 16  1  0  0  0
 19 20  1  0  0  0
 25 26  1  0  0  0
M  END
>  <minimizedAffinity>
-9.96608

>  <minimizedRMSD>
1.65161

$$$$
MolPort-029-998-889 CSSS00160806297


 34 37  0  0  0  0  0  0  0  0999 V2000
    2.9106   19.5358   69.7164 C   0  0  0  0  0  0  0  0  0  0  0  0
    3.0806   20.5759   70.4098 O   0  0  0  0  0  0  0  0  0  0  0  0
    1.6321   18.8946   69.6695 N   0  0  0  0  0  0  0  0  0  0  0  0
    1.5502   18.0841   69.1168 H   0  0  0  0  0  0  0  0  0  0  0  0
    0.4636   19.3412   70.3645 C   0  0  0  0  0  0  0  0  0  0  0  0
   -0.0200   20.5979   70.3048 N   0  0  0  0  0  0  0  0  0  0  0  0
   -1.0973   20.5031   71.1079 C   0  0  0  0  0  0  0  0  0  0  0  0
   -1.2664   19.2669   71.6115 N   0  0  0  0  0  0  0  0  0  0  0  0
   -0.2735   18.5309   71.1437 N   0  0  0  0  0  0  0  0  0  0  0  0
   -0.1068   17.5785   71.3289 H   0  0  0  0  0  0  0  0  0  0  0  0
   -2.0406   21.6304   71.3574 C   0  0  0  0  0  0  0  0  0  0  0  0
   -2.4232   22.2825   70.0727 C   0  0  0  0  0  0  0  0  0  0  0  0
   -3.6307   21.9480   69.4492 C   0  0  0  0  0  0  0  0  0  0  0  0
   -3.9795   22.5444   68.2335 C   0  0  0  0  0  0  0  0  0  0  0  0
   -3.1198   23.4727   67.6380 C   0  0  0  0  0  0  0  0  0  0  0  0
   -3.4580   24.0502   66.4605 F   0  0  0  0  0  0  0  0  0  0  0  0
   -1.9102   23.8032   68.2566 C   0  0  0  0  0  0  0  0  0  0  0  0
   -1.5609   23.2072   69.4723 C   0  0  0  0  0  0  0  0  0  0  0  0
    4.0394   18.9401   68.9202 C   0  0  0  0  0  0  0  0  0  0  0  0
    4.5978   21.5376   67.8967 O   0  0  0  0  0  0  0  0  0  0  0  0
    5.6600   20.8559   68.4801 C   0  0  0  0  0  0  0  0  0  0  0  0
    6.8494   21.3683   68.3938 N   0  0  0  0  0  0  0  0  0  0  0  0
    8.0713   20.8429   68.9405 C   0  0  0  0  0  0  0  0  0  0  0  0
    9.2433   21.0893   68.2146 C   0  0  0  0  0  0  0  0  0  0  0  0
   10.4875   20.6822   68.6956 C   0  0  0  0  0  0  0  0  0  0  0  0
   10.5791   20.0381   69.9269 C   0  0  0  0  0  0  0  0  0  0  0  0
    9.4266   19.8057   70.6769 C   0  0  0  0  0  0  0  0  0  0  0  0
    8.1627   20.1956   70.2053 C   0  0  0  0  0  0  0  0  0  0  0  0
    7.0037   19.9570   71.0968 C   0  0  0  0  0  0  0  0  0  0  0  0
    7.1732   19.9625   72.3454 O   0  0  0  0  0  0  0  0  0  0  0  0
    5.7024   19.6682   70.5889 N   0  0  0  0  0  0  0  0  0  0  0  0
    5.4287   19.5444   69.1695 C   0  0  0  0  0  0  0  0  0  0  0  0
    4.7464   22.3568   67.4668 H   0  0  0  0  0  0  0  0  0  0  0  0
    4.9615   19.5483   71.2260 H   0  0  0  0  0  0  0  0  0  0  0  0
 20 21  1  0  0  0
 21 22  2  0  0  0
 22 23  1  0  0  0
 23 24  2  0  0  0
 24 25  1  0  0  0
 25 26  2  0  0  0
 26 27  1  0  0  0
 27 28  2  0  0  0
 28 29  1  0  0  0
 28 23  1  0  0  0
 29 30  2  0  0  0
 29 31  1  0  0  0
 31 32  1  0  0  0
 32 19  1  0  0  0
 32 21  1  0  0  0
 19  1  1  0  0  0
  1  2  2  0  0  0
  1  3  1  0  0  0
  3  5  1  0  0  0
  5  6  2  0  0  0
  6  7  1  0  0  0
  7 11  1  0  0  0
  7  8  2  0  0  0
 11 12  1  0  0  0
 12 13  2  0  0  0
 13 14  1  0  0  0
 14 15  2  0  0  0
 15 16  1  0  0  0
 15 17  1  0  0  0
 17 18  2  0  0  0
 18 12  1  0  0  0
  8  9  1  0  0  0
  9  5  1  0  0  0
 20 33  1  0  0  0
 31 34  1  0  0  0
  3  4  1  0  0  0
  9 10  1  0  0  0
M  END
>  <minimizedAffinity>
-9.51750

>  <minimizedRMSD>
2.89513

$$$$
MolPort-006-169-621 MolPort-044-193-874 CHEMBL1976982 CHEMBL2008763 CSSS02125604695 MCULE-4246505989 MCULE-7992732961 NSC606702 PubChem-16760463 PubChem-354577 PubChem-354578 PubChem-75048137


 47 49  0  0  0  0  0  0  0  0999 V2000
   -0.4845   20.2349   71.2774 C   0  0  0  0  0  0  0  0  0  0  0  0
   -0.5520   19.1796   72.3916 C   0  0  0  0  0  0  0  0  0  0  0  0
    0.2517   17.9154   72.0725 C   0  0  0  0  0  0  0  0  0  0  0  0
    1.7114   18.2180   71.7056 C   0  0  0  0  0  0  0  0  0  0  0  0
    1.8986   19.5040   70.8817 C   0  0  0  0  0  0  0  0  0  0  0  0
    0.5894   19.9485   70.2208 C   0  0  0  0  0  0  0  0  0  0  0  0
    0.7998   21.0931   69.4502 O   0  0  0  0  0  0  0  0  0  0  0  0
    2.5173   18.2831   72.9119 N   0  0  0  0  0  0  0  0  0  0  0  0
   -0.1088   19.7595   73.6479 N   0  0  0  0  0  0  0  0  0  0  0  0
    1.1064   21.8151   70.0207 H   0  0  0  0  0  0  0  0  0  0  0  0
    2.1940   19.0546   73.4955 H   0  0  0  0  0  0  0  0  0  0  0  0
    3.4943   18.4334   72.6603 H   0  0  0  0  0  0  0  0  0  0  0  0
    0.8659   20.0481   73.5640 H   0  0  0  0  0  0  0  0  0  0  0  0
   -0.1956   19.0668   74.3915 H   0  0  0  0  0  0  0  0  0  0  0  0
   -1.7335   20.3436   70.6608 O   0  0  0  0  0  0  0  0  0  0  0  0
   -2.5646   22.2593   68.8810 C   0  0  0  0  0  0  0  0  0  0  0  0
   -4.0900   22.3728   69.0005 C   0  0  0  0  0  0  0  0  0  0  0  0
   -4.5825   21.4277   70.0980 C   0  0  0  0  0  0  0  0  0  0  0  0
   -3.7300   21.5261   71.3708 C   0  0  0  0  0  0  0  0  0  0  0  0
   -2.2273   21.5960   71.0536 C   0  0  0  0  0  0  0  0  0  0  0  0
   -1.9274   22.5944   70.0955 O   0  0  0  0  0  0  0  0  0  0  0  0
   -4.1241   22.6908   72.1448 N   0  0  0  0  0  0  0  0  0  0  0  0
   -4.5791   20.1139   69.6269 O   0  0  0  0  0  0  0  0  0  0  0  0
   -4.4712   23.6828   69.3013 O   0  0  0  0  0  0  0  0  0  0  0  0
   -3.9590   23.5350   71.5967 H   0  0  0  0  0  0  0  0  0  0  0  0
   -3.5750   22.7300   73.0035 H   0  0  0  0  0  0  0  0  0  0  0  0
   -3.6729   19.8551   69.3973 H   0  0  0  0  0  0  0  0  0  0  0  0
   -4.0825   23.9458   70.1502 H   0  0  0  0  0  0  0  0  0  0  0  0
   -1.0440   24.1490   68.1512 C   0  0  0  0  0  0  0  0  0  0  0  0
   -1.9946   23.0503   67.7035 C   0  0  0  0  0  0  0  0  0  0  0  0
   -1.3263   22.1848   66.8385 O   0  0  0  0  0  0  0  0  0  0  0  0
   -0.5843   21.7699   67.3058 H   0  0  0  0  0  0  0  0  0  0  0  0
    2.8823   19.2903   69.8966 O   0  0  0  0  0  0  0  0  0  0  0  0
    4.0641   19.9833   70.2514 C   0  0  0  0  0  0  0  0  0  0  0  0
    5.3341   19.3032   69.7079 C   0  0  0  0  0  0  0  0  0  0  0  0
    6.5654   20.1634   70.0346 C   0  0  0  0  0  0  0  0  0  0  0  0
    6.5400   20.5717   71.5208 C   0  0  0  0  0  0  0  0  0  0  0  0
    5.1634   21.1572   71.8577 C   0  0  0  0  0  0  0  0  0  0  0  0
    4.1533   20.1999   71.6452 O   0  0  0  0  0  0  0  0  0  0  0  0
    7.6145   21.6013   71.8272 C   0  0  0  0  0  0  0  0  0  0  0  0
    6.7710   19.4459   72.3141 O   0  0  0  0  0  0  0  0  0  0  0  0
    5.2286   19.0974   68.3301 O   0  0  0  0  0  0  0  0  0  0  0  0
    6.0929   18.7768   72.1312 H   0  0  0  0  0  0  0  0  0  0  0  0
    5.1270   19.9519   67.8824 H   0  0  0  0  0  0  0  0  0  0  0  0
    6.6005   21.3412   69.1711 N   0  0  0  0  0  0  0  0  0  0  0  0
    7.8110   21.2476   68.3739 C   0  0  0  0  0  0  0  0  0  0  0  0
    6.6184   22.1898   69.7367 H   0  0  0  0  0  0  0  0  0  0  0  0
 30 29  1  0  0  0
 30 16  1  0  0  0
 30 31  1  0  0  0
 16 17  1  0  0  0
 16 21  1  0  0  0
 17 18  1  0  0  0
 17 24  1  0  0  0
 18 19  1  0  0  0
 18 23  1  0  0  0
 19 20  1  0  0  0
 19 22  1  0  0  0
 20 21  1  0  0  0
 20 15  1  0  0  0
  1 15  1  0  0  0
  1  2  1  0  0  0
  2  3  1  0  0  0
  2  9  1  0  0  0
  3  4  1  0  0  0
  4  5  1  0  0  0
  4  8  1  0  0  0
  5  6  1  0  0  0
  5 33  1  0  0  0
  6  7  1  0  0  0
  6  1  1  0  0  0
 34 33  1  0  0  0
 34 35  1  0  0  0
 35 36  1  0  0  0
 35 42  1  0  0  0
 36 37  1  0  0  0
 36 45  1  0  0  0
 37 38  1  0  0  0
 37 40  1  0  0  0
 37 41  1  0  0  0
 38 39  1  0  0  0
 39 34  1  0  0  0
 45 46  1  0  0  0
  7 10  1  0  0  0
 41 43  1  0  0  0
 45 47  1  0  0  0
 42 44  1  0  0  0
  8 11  1  0  0  0
  8 12  1  0  0  0
  9 13  1  0  0  0
  9 14  1  0  0  0
 22 25  1  0  0  0
 22 26  1  0  0  0
 23 27  1  0  0  0
 24 28  1  0  0  0
 31 32  1  0  0  0
M  END
>  <minimizedAffinity>
-9.28857

>  <minimizedRMSD>
3.32931

$$$$
MolPort-019-937-265 49774719 CHEMBL1079619 CSSS00159262088 LN04628686 MCULE-4139342748 MCULE-8138984485 PubChem-21637592 ZINC000049774719 ZINC49774719


 36 38  0  0  0  0  0  0  0  0999 V2000
    1.9340   21.5310   69.2733 C   0  0  0  0  0  0  0  0  0  0  0  0
    0.9894   20.3530   69.0795 C   0  0  0  0  0  0  0  0  0  0  0  0
    1.5347   19.0092   69.6001 C   0  0  0  0  0  0  0  0  0  0  0  0
    0.7599   18.6560   70.8750 C   0  0  0  0  0  0  0  0  0  0  0  0
   -0.5731   19.3700   70.7145 C   0  0  0  0  0  0  0  0  0  0  0  0
   -0.2726   20.6226   69.8988 C   0  0  0  0  0  0  0  0  0  0  0  0
   -1.3613   21.0119   69.1101 O   0  0  0  0  0  0  0  0  0  0  0  0
   -1.4569   18.5325   70.0280 O   0  0  0  0  0  0  0  0  0  0  0  0
    1.4611   19.0896   72.1569 C   0  0  0  0  0  0  0  0  0  0  0  0
    2.7225   19.5425   72.1328 C   0  0  0  0  0  0  0  0  0  0  0  0
    3.4687   19.5839   70.9515 O   0  0  0  0  0  0  0  0  0  0  0  0
    3.0507   18.8683   69.7952 C   0  0  0  0  0  0  0  0  0  0  0  0
    0.6926   20.2223   67.7206 O   0  0  0  0  0  0  0  0  0  0  0  0
   -1.5794   20.3014   68.4868 H   0  0  0  0  0  0  0  0  0  0  0  0
   -1.0720   18.2887   69.1716 H   0  0  0  0  0  0  0  0  0  0  0  0
    1.5095   20.0522   67.2261 H   0  0  0  0  0  0  0  0  0  0  0  0
    0.7814   18.9613   73.4616 C   0  0  0  0  0  0  0  0  0  0  0  0
    0.6726   17.8289   74.0078 O   0  0  0  0  0  0  0  0  0  0  0  0
    0.2694   20.0972   74.0952 O   0  0  0  0  0  0  0  0  0  0  0  0
   -1.1186   20.3951   74.0958 C   0  0  0  0  0  0  0  0  0  0  0  0
    3.7597   19.3007   68.6702 O   0  0  0  0  0  0  0  0  0  0  0  0
    5.0033   19.7047   69.1621 C   0  0  0  0  0  0  0  0  0  0  0  0
    5.6724   20.6663   68.1769 C   0  0  0  0  0  0  0  0  0  0  0  0
    7.0101   21.1204   68.7542 C   0  0  0  0  0  0  0  0  0  0  0  0
    7.8369   19.9108   69.1842 C   0  0  0  0  0  0  0  0  0  0  0  0
    7.0002   18.9509   70.0455 C   0  0  0  0  0  0  0  0  0  0  0  0
    5.8120   18.5656   69.3783 O   0  0  0  0  0  0  0  0  0  0  0  0
    8.9822   20.3211   69.8703 O   0  0  0  0  0  0  0  0  0  0  0  0
    7.7120   21.8525   67.7954 O   0  0  0  0  0  0  0  0  0  0  0  0
    4.8535   21.7784   67.9731 O   0  0  0  0  0  0  0  0  0  0  0  0
    8.7238   20.8019   70.6722 H   0  0  0  0  0  0  0  0  0  0  0  0
    7.8783   21.2940   67.0200 H   0  0  0  0  0  0  0  0  0  0  0  0
    4.7084   22.2323   68.8180 H   0  0  0  0  0  0  0  0  0  0  0  0
    6.7377   19.4680   71.4634 C   0  0  0  0  0  0  0  0  0  0  0  0
    6.0819   18.4895   72.2101 O   0  0  0  0  0  0  0  0  0  0  0  0
    5.2354   18.2740   71.7881 H   0  0  0  0  0  0  0  0  0  0  0  0
  2  1  1  0  0  0
  2 13  1  0  0  0
  3  2  1  0  0  0
  3  4  1  0  0  0
  3 12  1  0  0  0
  4  5  1  0  0  0
  4  9  1  0  0  0
  5  6  1  0  0  0
  5  8  1  0  0  0
  6  7  1  0  0  0
  6  2  1  0  0  0
  9 10  2  0  0  0
  9 17  1  0  0  0
 10 11  1  0  0  0
 11 12  1  0  0  0
 12 21  1  0  0  0
 22 21  1  0  0  0
 22 23  1  0  0  0
 23 24  1  0  0  0
 23 30  1  0  0  0
 24 25  1  0  0  0
 24 29  1  0  0  0
 25 26  1  0  0  0
 25 28  1  0  0  0
 26 27  1  0  0  0
 26 34  1  0  0  0
 27 22  1  0  0  0
 34 35  1  0  0  0
 17 18  2  0  0  0
 17 19  1  0  0  0
 19 20  1  0  0  0
  7 14  1  0  0  0
  8 15  1  0  0  0
 35 36  1  0  0  0
 28 31  1  0  0  0
 29 32  1  0  0  0
 30 33  1  0  0  0
 13 16  1  0  0  0
M  END
>  <minimizedAffinity>
-8.90373

>  <minimizedRMSD>
4.43517

$$$$
MolPort-023-282-238 CSSS00160624766 MCULE-7800352787


 30 32  0  0  0  0  0  0  0  0999 V2000
    4.1062   18.7022   69.1411 C   0  0  0  0  0  0  0  0  0  0  0  0
    5.4809   19.3678   69.2898 C   0  0  0  0  0  0  0  0  0  0  0  0
    5.7369   19.7368   70.6706 N   0  0  0  0  0  0  0  0  0  0  0  0
    7.0212   20.1530   71.1316 C   0  0  0  0  0  0  0  0  0  0  0  0
    7.1711   20.3945   72.3596 O   0  0  0  0  0  0  0  0  0  0  0  0
    8.1857   20.2569   70.2231 C   0  0  0  0  0  0  0  0  0  0  0  0
    9.4516   19.9779   70.7631 C   0  0  0  0  0  0  0  0  0  0  0  0
   10.6070   20.1029   69.9912 C   0  0  0  0  0  0  0  0  0  0  0  0
   10.5154   20.5271   68.6676 C   0  0  0  0  0  0  0  0  0  0  0  0
    9.2682   20.8204   68.1160 C   0  0  0  0  0  0  0  0  0  0  0  0
    8.0944   20.6769   68.8667 C   0  0  0  0  0  0  0  0  0  0  0  0
    6.8670   21.0751   68.2326 N   0  0  0  0  0  0  0  0  0  0  0  0
    5.6890   20.5538   68.3937 C   0  0  0  0  0  0  0  0  0  0  0  0
    4.6216   21.0962   67.6873 O   0  0  0  0  0  0  0  0  0  0  0  0
    4.9938   19.6982   71.3151 H   0  0  0  0  0  0  0  0  0  0  0  0
    4.7571   21.8366   67.1292 H   0  0  0  0  0  0  0  0  0  0  0  0
    1.8144   19.5257   68.4603 N   0  0  0  0  0  0  0  0  0  0  0  0
    2.9549   19.6434   69.3163 C   0  0  0  0  0  0  0  0  0  0  0  0
    2.9962   20.5180   70.2222 O   0  0  0  0  0  0  0  0  0  0  0  0
    1.8341   18.8238   67.7702 H   0  0  0  0  0  0  0  0  0  0  0  0
   -1.0217   21.4007   69.2122 C   0  0  0  0  0  0  0  0  0  0  0  0
   -0.0404   20.5963   69.6644 N   0  0  0  0  0  0  0  0  0  0  0  0
    0.6472   20.3505   68.5312 C   0  0  0  0  0  0  0  0  0  0  0  0
    0.1210   20.9593   67.4547 N   0  0  0  0  0  0  0  0  0  0  0  0
   -0.9362   21.6253   67.8851 N   0  0  0  0  0  0  0  0  0  0  0  0
   -1.5435   22.1783   67.3423 H   0  0  0  0  0  0  0  0  0  0  0  0
   -2.0889   21.9580   70.1046 C   0  0  0  0  0  0  0  0  0  0  0  0
   -4.3860   21.0856   70.3959 C   0  0  0  0  0  0  0  0  0  0  0  0
   -3.4782   21.8844   69.4852 C   0  0  0  0  0  0  0  0  0  0  0  0
   -4.0490   23.2821   69.3200 C   0  0  0  0  0  0  0  0  0  0  0  0
 28 29  1  0  0  0
 29 30  1  0  0  0
 29 27  1  0  0  0
 27 21  1  0  0  0
 21 22  2  0  0  0
 22 23  1  0  0  0
 23 17  1  0  0  0
 23 24  2  0  0  0
 17 18  1  0  0  0
 18 19  2  0  0  0
 18  1  1  0  0  0
  2  1  1  0  0  0
  2  3  1  0  0  0
  3  4  1  0  0  0
  4  5  2  0  0  0
  4  6  1  0  0  0
  6  7  2  0  0  0
  7  8  1  0  0  0
  8  9  2  0  0  0
  9 10  1  0  0  0
 10 11  2  0  0  0
 11 12  1  0  0  0
 11  6  1  0  0  0
 12 13  2  0  0  0
 13 14  1  0  0  0
 13  2  1  0  0  0
 24 25  1  0  0  0
 25 21  1  0  0  0
 17 20  1  0  0  0
  3 15  1  0  0  0
 14 16  1  0  0  0
 25 26  1  0  0  0
M  END
>  <minimizedAffinity>
-8.87703

>  <minimizedRMSD>
1.41201

$$$$
MolPort-002-511-130 MolPort-008-346-779 CSSS00161004534 LN00361468 MCULE-3387419636 PubChem-3770829


 40 42  0  0  0  0  0  0  0  0999 V2000
    0.1253   21.7309   69.4297 C   0  0  0  0  0  0  0  0  0  0  0  0
    0.8837   21.1351   70.4723 O   0  0  0  0  0  0  0  0  0  0  0  0
    1.1052   19.7482   70.2532 C   0  0  0  0  0  0  0  0  0  0  0  0
    1.7695   19.4225   68.9040 C   0  0  0  0  0  0  0  0  0  0  0  0
    1.0450   20.0909   67.7392 C   0  0  0  0  0  0  0  0  0  0  0  0
   -0.1520   19.4220   67.4693 O   0  0  0  0  0  0  0  0  0  0  0  0
    0.7904   21.5610   68.0582 C   0  0  0  0  0  0  0  0  0  0  0  0
    0.0317   22.1626   67.0533 O   0  0  0  0  0  0  0  0  0  0  0  0
   -0.7257   19.4578   68.2506 H   0  0  0  0  0  0  0  0  0  0  0  0
   -0.8345   21.7294   66.9990 H   0  0  0  0  0  0  0  0  0  0  0  0
   -0.1201   18.8910   70.5536 C   0  0  0  0  0  0  0  0  0  0  0  0
    0.1924   17.9348   71.5198 O   0  0  0  0  0  0  0  0  0  0  0  0
    0.9046   17.3640   71.1914 H   0  0  0  0  0  0  0  0  0  0  0  0
   -1.2040   21.2815   69.4356 O   0  0  0  0  0  0  0  0  0  0  0  0
   -2.7083   20.6024   71.9079 C   0  0  0  0  0  0  0  0  0  0  0  0
   -3.1348   21.6026   70.8509 C   0  0  0  0  0  0  0  0  0  0  0  0
   -3.9826   20.9815   69.9081 O   0  0  0  0  0  0  0  0  0  0  0  0
   -4.5917   21.9793   69.1068 C   0  0  0  0  0  0  0  0  0  0  0  0
   -5.4058   22.8208   69.8731 O   0  0  0  0  0  0  0  0  0  0  0  0
   -3.5651   22.7864   68.2992 C   0  0  0  0  0  0  0  0  0  0  0  0
   -3.0172   21.9796   67.2989 O   0  0  0  0  0  0  0  0  0  0  0  0
   -2.4659   23.3270   69.2233 C   0  0  0  0  0  0  0  0  0  0  0  0
   -1.4390   23.9217   68.4886 O   0  0  0  0  0  0  0  0  0  0  0  0
   -1.9252   22.2431   70.1600 C   0  0  0  0  0  0  0  0  0  0  0  0
   -4.8618   23.2938   70.5221 H   0  0  0  0  0  0  0  0  0  0  0  0
   -2.5714   21.2196   67.7046 H   0  0  0  0  0  0  0  0  0  0  0  0
   -1.0199   23.2559   67.9211 H   0  0  0  0  0  0  0  0  0  0  0  0
    3.1060   19.8308   68.9274 O   0  0  0  0  0  0  0  0  0  0  0  0
    3.7849   18.8094   69.6020 C   0  0  0  0  0  0  0  0  0  0  0  0
    4.7367   18.1901   68.7530 O   0  0  0  0  0  0  0  0  0  0  0  0
    5.8161   19.0766   68.5667 C   0  0  0  0  0  0  0  0  0  0  0  0
    6.6612   19.1876   69.8405 C   0  0  0  0  0  0  0  0  0  0  0  0
    7.1977   20.4748   69.9154 O   0  0  0  0  0  0  0  0  0  0  0  0
    5.8246   18.8687   71.0901 C   0  0  0  0  0  0  0  0  0  0  0  0
    6.3951   19.4299   72.2351 O   0  0  0  0  0  0  0  0  0  0  0  0
    4.3796   19.3358   70.9222 C   0  0  0  0  0  0  0  0  0  0  0  0
    3.6046   18.8876   71.9917 O   0  0  0  0  0  0  0  0  0  0  0  0
    6.4775   21.1237   69.9512 H   0  0  0  0  0  0  0  0  0  0  0  0
    6.4124   20.3958   72.1476 H   0  0  0  0  0  0  0  0  0  0  0  0
    3.6095   17.9178   72.0105 H   0  0  0  0  0  0  0  0  0  0  0  0
 16 15  1  0  0  0
 16 17  1  0  0  0
 17 18  1  0  0  0
 18 19  1  0  0  0
 18 20  1  0  0  0
 20 21  1  0  0  0
 20 22  1  0  0  0
 22 23  1  0  0  0
 22 24  1  0  0  0
 24 14  1  0  0  0
 24 16  1  0  0  0
  1 14  1  0  0  0
  1  2  1  0  0  0
  2  3  1  0  0  0
  3 11  1  0  0  0
  3  4  1  0  0  0
 11 12  1  0  0  0
  4 28  1  0  0  0
  4  5  1  0  0  0
 29 28  1  0  0  0
 29 30  1  0  0  0
 30 31  1  0  0  0
 31 32  1  0  0  0
 32 33  1  0  0  0
 32 34  1  0  0  0
 34 35  1  0  0  0
 34 36  1  0  0  0
 36 37  1  0  0  0
 36 29  1  0  0  0
  5  6  1  0  0  0
  5  7  1  0  0  0
  7  8  1  0  0  0
  7  1  1  0  0  0
 19 25  1  0  0  0
 21 26  1  0  0  0
 23 27  1  0  0  0
 12 13  1  0  0  0
 33 38  1  0  0  0
 35 39  1  0  0  0
 37 40  1  0  0  0
  6  9  1  0  0  0
  8 10  1  0  0  0
M  END
>  <minimizedAffinity>
-8.73752

>  <minimizedRMSD>
3.23589

$$$$
MolPort-046-423-496 CSSS00132567719


 31 34  0  0  0  0  0  0  0  0999 V2000
    0.5794   19.3988   71.4297 C   0  0  0  0  0  0  0  0  0  0  0  0
   -0.1333   21.8776   67.3327 O   0  0  0  0  0  0  0  0  0  0  0  0
   -0.1889   21.4596   68.6552 C   0  0  0  0  0  0  0  0  0  0  0  0
   -0.8987   22.0958   69.6022 N   0  0  0  0  0  0  0  0  0  0  0  0
   -0.7112   21.4182   70.7211 N   0  0  0  0  0  0  0  0  0  0  0  0
    0.1019   20.3898   70.4170 C   0  0  0  0  0  0  0  0  0  0  0  0
    0.4647   20.3781   69.1175 N   0  0  0  0  0  0  0  0  0  0  0  0
   -0.6079   22.6387   67.0615 H   0  0  0  0  0  0  0  0  0  0  0  0
    1.0496   19.7484   68.6374 H   0  0  0  0  0  0  0  0  0  0  0  0
    2.0201   19.5147   71.6330 N   0  0  0  0  0  0  0  0  0  0  0  0
    2.3493   19.9333   72.4611 H   0  0  0  0  0  0  0  0  0  0  0  0
    2.9716   19.0437   70.6756 C   0  0  0  0  0  0  0  0  0  0  0  0
    4.2890   19.2612   70.7854 C   0  0  0  0  0  0  0  0  0  0  0  0
    5.1935   18.7351   69.7426 C   0  0  0  0  0  0  0  0  0  0  0  0
    4.7362   18.0926   68.7592 O   0  0  0  0  0  0  0  0  0  0  0  0
    6.5730   18.9459   69.8364 O   0  0  0  0  0  0  0  0  0  0  0  0
    7.1588   19.6480   70.8957 C   0  0  0  0  0  0  0  0  0  0  0  0
    6.3716   20.1840   71.9344 C   0  0  0  0  0  0  0  0  0  0  0  0
    6.9906   20.8820   72.9813 C   0  0  0  0  0  0  0  0  0  0  0  0
    8.3782   21.0457   72.9958 C   0  0  0  0  0  0  0  0  0  0  0  0
    9.1557   20.5133   71.9646 C   0  0  0  0  0  0  0  0  0  0  0  0
    8.5470   19.8164   70.9175 C   0  0  0  0  0  0  0  0  0  0  0  0
    4.9075   20.0058   71.9107 C   0  0  0  0  0  0  0  0  0  0  0  0
    4.2045   20.4846   72.8424 O   0  0  0  0  0  0  0  0  0  0  0  0
    0.1850   17.9767   71.0363 C   0  0  0  0  0  0  0  0  0  0  0  0
   -0.6340   17.3258   72.1010 C   0  0  0  0  0  0  0  0  0  0  0  0
   -0.1365   16.1984   72.7633 C   0  0  0  0  0  0  0  0  0  0  0  0
   -0.8975   15.5776   73.7584 C   0  0  0  0  0  0  0  0  0  0  0  0
   -2.1591   16.0809   74.0903 C   0  0  0  0  0  0  0  0  0  0  0  0
   -2.6610   17.2043   73.4259 C   0  0  0  0  0  0  0  0  0  0  0  0
   -1.9004   17.8257   72.4307 C   0  0  0  0  0  0  0  0  0  0  0  0
  2  3  1  0  0  0
  3  4  2  0  0  0
  4  5  1  0  0  0
  5  6  2  0  0  0
  6  7  1  0  0  0
  6  1  1  0  0  0
  1 25  1  0  0  0
 25 26  1  0  0  0
 26 27  2  0  0  0
 27 28  1  0  0  0
 28 29  2  0  0  0
 29 30  1  0  0  0
 30 31  2  0  0  0
  1 10  1  0  0  0
 10 12  1  0  0  0
 12 13  2  0  0  0
 13 14  1  0  0  0
 14 15  2  0  0  0
 14 16  1  0  0  0
 16 17  1  0  0  0
 17 18  2  0  0  0
 18 19  1  0  0  0
 19 20  2  0  0  0
 20 21  1  0  0  0
 21 22  2  0  0  0
 18 23  1  0  0  0
 23 24  2  0  0  0
  7  3  1  0  0  0
 31 26  1  0  0  0
 23 13  1  0  0  0
 22 17  1  0  0  0
  2  8  1  0  0  0
  7  9  1  0  0  0
 10 11  1  0  0  0
M  END
>  <minimizedAffinity>
-8.73742

>  <minimizedRMSD>
3.32561

$$$$
Molport-051-987-724 Molport-051-987-986 PubChem-12305429 ZINC000043470138


 48 50  0  0  0  0  0  0  0  0999 V2000
    0.4749   18.4952   70.4912 C   0  0  0  0  0  0  0  0  0  0  0  0
   -0.1049   19.9137   70.5631 C   0  0  0  0  0  0  0  0  0  0  0  0
    0.6732   20.8831   69.6623 C   0  0  0  0  0  0  0  0  0  0  0  0
    2.1691   20.8978   69.9896 C   0  0  0  0  0  0  0  0  0  0  0  0
    2.7276   19.4671   69.9093 C   0  0  0  0  0  0  0  0  0  0  0  0
    1.9778   18.4478   70.7851 C   0  0  0  0  0  0  0  0  0  0  0  0
    2.2166   18.6730   72.2027 N   0  0  0  0  0  0  0  0  0  0  0  0
    2.8355   21.7117   69.0713 O   0  0  0  0  0  0  0  0  0  0  0  0
   -0.1432   20.3878   71.9390 N   0  0  0  0  0  0  0  0  0  0  0  0
    1.8657   19.5943   72.4644 H   0  0  0  0  0  0  0  0  0  0  0  0
    3.2179   18.6245   72.3908 H   0  0  0  0  0  0  0  0  0  0  0  0
    2.7026   21.3645   68.1754 H   0  0  0  0  0  0  0  0  0  0  0  0
    0.8060   20.4328   72.3096 H   0  0  0  0  0  0  0  0  0  0  0  0
   -0.6989   19.7461   72.5044 H   0  0  0  0  0  0  0  0  0  0  0  0
    4.1378   19.3597   69.9652 O   0  0  0  0  0  0  0  0  0  0  0  0
    4.6777   20.5101   70.5762 C   0  0  0  0  0  0  0  0  0  0  0  0
    5.2456   20.1893   71.9677 C   0  0  0  0  0  0  0  0  0  0  0  0
    6.5438   19.3860   71.8694 C   0  0  0  0  0  0  0  0  0  0  0  0
    7.4823   19.9888   70.8197 C   0  0  0  0  0  0  0  0  0  0  0  0
    6.7104   20.2466   69.5183 C   0  0  0  0  0  0  0  0  0  0  0  0
    5.6376   21.1362   69.7454 O   0  0  0  0  0  0  0  0  0  0  0  0
    8.5623   19.1315   70.5928 O   0  0  0  0  0  0  0  0  0  0  0  0
    6.2508   18.0541   71.5629 O   0  0  0  0  0  0  0  0  0  0  0  0
    5.4760   21.3755   72.6656 O   0  0  0  0  0  0  0  0  0  0  0  0
    8.2352   18.2794   70.2644 H   0  0  0  0  0  0  0  0  0  0  0  0
    5.7964   18.0117   70.7070 H   0  0  0  0  0  0  0  0  0  0  0  0
    6.1277   21.9111   72.1867 H   0  0  0  0  0  0  0  0  0  0  0  0
    7.6170   20.8026   68.4247 C   0  0  0  0  0  0  0  0  0  0  0  0
    7.4024   22.2307   68.2516 N   0  0  0  0  0  0  0  0  0  0  0  0
    6.4336   22.3985   67.9800 H   0  0  0  0  0  0  0  0  0  0  0  0
    8.0252   22.5825   67.5244 H   0  0  0  0  0  0  0  0  0  0  0  0
    0.1398   22.1726   69.7626 O   0  0  0  0  0  0  0  0  0  0  0  0
   -1.1953   22.0411   69.3720 C   0  0  0  0  0  0  0  0  0  0  0  0
   -1.4704   22.8923   68.1299 C   0  0  0  0  0  0  0  0  0  0  0  0
   -2.9215   22.7040   67.6881 C   0  0  0  0  0  0  0  0  0  0  0  0
   -3.8993   22.7885   68.8672 C   0  0  0  0  0  0  0  0  0  0  0  0
   -3.3755   22.0556   70.1159 C   0  0  0  0  0  0  0  0  0  0  0  0
   -2.0439   22.4139   70.4364 O   0  0  0  0  0  0  0  0  0  0  0  0
   -4.1448   24.1259   69.1796 O   0  0  0  0  0  0  0  0  0  0  0  0
   -3.0716   21.4294   67.0060 N   0  0  0  0  0  0  0  0  0  0  0  0
   -1.2239   24.2407   68.3985 O   0  0  0  0  0  0  0  0  0  0  0  0
   -3.3165   24.5519   69.4505 H   0  0  0  0  0  0  0  0  0  0  0  0
   -2.8438   20.6709   67.6489 H   0  0  0  0  0  0  0  0  0  0  0  0
   -2.4417   21.3964   66.2044 H   0  0  0  0  0  0  0  0  0  0  0  0
   -1.8097   24.5408   69.1110 H   0  0  0  0  0  0  0  0  0  0  0  0
   -3.5804   20.5421   70.0603 C   0  0  0  0  0  0  0  0  0  0  0  0
   -4.7477   20.2444   69.3572 O   0  0  0  0  0  0  0  0  0  0  0  0
   -5.5069   20.6499   69.8046 H   0  0  0  0  0  0  0  0  0  0  0  0
  1  2  1  0  0  0
  2  3  1  0  0  0
  3  4  1  0  0  0
  4  5  1  0  0  0
  5  6  1  0  0  0
  6  7  1  0  0  0
  5 15  1  0  0  0
 16 15  1  0  0  0
 16 17  1  0  0  0
 17 18  1  0  0  0
 18 19  1  0  0  0
 19 20  1  0  0  0
 20 21  1  0  0  0
 20 28  1  0  0  0
 28 29  1  0  0  0
 19 22  1  0  0  0
 18 23  1  0  0  0
 17 24  1  0  0  0
  4  8  1  0  0  0
  3 32  1  0  0  0
 33 32  1  0  0  0
 33 34  1  0  0  0
 34 35  1  0  0  0
 35 36  1  0  0  0
 36 37  1  0  0  0
 37 38  1  0  0  0
 37 46  1  0  0  0
 46 47  1  0  0  0
 36 39  1  0  0  0
 35 40  1  0  0  0
 34 41  1  0  0  0
  2  9  1  0  0  0
  6  1  1  0  0  0
 21 16  1  0  0  0
 38 33  1  0  0  0
  7 10  1  0  0  0
  7 11  1  0  0  0
 29 30  1  0  0  0
 29 31  1  0  0  0
 22 25  1  0  0  0
 23 26  1  0  0  0
 24 27  1  0  0  0
  8 12  1  0  0  0
 47 48  1  0  0  0
 39 42  1  0  0  0
 40 43  1  0  0  0
 40 44  1  0  0  0
 41 45  1  0  0  0
  9 13  1  0  0  0
  9 14  1  0  0  0
M  END
>  <minimizedAffinity>
-8.69374

>  <minimizedRMSD>
2.67782

$$$$
MolPort-005-949-700 12603915 CSSS00159287675 MCULE-8973875528 PubChem-25390438 ZINC000012603915 ZINC12603915


 34 37  0  0  0  0  0  0  0  0999 V2000
    1.5875   20.1894   69.0537 C   0  0  0  0  0  0  0  0  0  0  0  0
    2.8530   20.7957   69.1227 O   0  0  0  0  0  0  0  0  0  0  0  0
    3.5637   20.0777   70.0970 C   0  0  0  0  0  0  0  0  0  0  0  0
    2.5810   19.6174   71.1429 C   0  0  0  0  0  0  0  0  0  0  0  0
    2.9650   18.3717   71.6476 O   0  0  0  0  0  0  0  0  0  0  0  0
    1.2710   19.5557   70.3946 C   0  0  0  0  0  0  0  0  0  0  0  0
    0.8456   18.2394   70.1931 O   0  0  0  0  0  0  0  0  0  0  0  0
    3.0388   17.7362   70.9185 H   0  0  0  0  0  0  0  0  0  0  0  0
    1.5260   17.7510   69.7039 H   0  0  0  0  0  0  0  0  0  0  0  0
    0.5437   21.2334   68.6855 C   0  0  0  0  0  0  0  0  0  0  0  0
   -1.4153   22.8302   70.0073 O   0  0  0  0  0  0  0  0  0  0  0  0
   -1.7087   21.6265   69.7728 C   0  0  0  0  0  0  0  0  0  0  0  0
   -0.7858   20.7869   69.0775 N   0  0  0  0  0  0  0  0  0  0  0  0
   -2.9683   21.0817   70.1853 N   0  0  0  0  0  0  0  0  0  0  0  0
   -1.0598   19.8681   68.8541 H   0  0  0  0  0  0  0  0  0  0  0  0
   -3.1404   20.1414   69.9494 H   0  0  0  0  0  0  0  0  0  0  0  0
   -4.0045   21.7628   70.9059 C   0  0  0  0  0  0  0  0  0  0  0  0
   -3.7715   22.3652   72.1522 C   0  0  0  0  0  0  0  0  0  0  0  0
   -4.8072   23.0184   72.8265 C   0  0  0  0  0  0  0  0  0  0  0  0
   -6.0834   23.0735   72.2600 C   0  0  0  0  0  0  0  0  0  0  0  0
   -6.3229   22.4754   71.0200 C   0  0  0  0  0  0  0  0  0  0  0  0
   -5.2860   21.8223   70.3466 C   0  0  0  0  0  0  0  0  0  0  0  0
    4.6199   20.9633   70.7391 C   0  0  0  0  0  0  0  0  0  0  0  0
    5.8896   20.9399   69.9498 C   0  0  0  0  0  0  0  0  0  0  0  0
    5.8757   21.3126   68.7460 O   0  0  0  0  0  0  0  0  0  0  0  0
    7.1143   20.5130   70.5647 N   0  0  0  0  0  0  0  0  0  0  0  0
    7.2332   20.0646   71.9521 C   0  0  0  0  0  0  0  0  0  0  0  0
    8.7178   19.6942   72.1605 C   0  0  0  0  0  0  0  0  0  0  0  0
    9.3299   19.9702   70.8341 C   0  0  0  0  0  0  0  0  0  0  0  0
   10.6626   19.8069   70.4569 C   0  0  0  0  0  0  0  0  0  0  0  0
   11.0257   20.1308   69.1395 C   0  0  0  0  0  0  0  0  0  0  0  0
   10.0594   20.6068   68.2329 C   0  0  0  0  0  0  0  0  0  0  0  0
    8.7241   20.7620   68.6380 C   0  0  0  0  0  0  0  0  0  0  0  0
    8.3907   20.4325   69.9548 C   0  0  0  0  0  0  0  0  0  0  0  0
 11 12  2  0  0  0
 12 13  1  0  0  0
 13 10  1  0  0  0
  1 10  1  0  0  0
  1  2  1  0  0  0
  2  3  1  0  0  0
  3 23  1  0  0  0
 23 24  1  0  0  0
 24 25  2  0  0  0
 24 26  1  0  0  0
 26 27  1  0  0  0
 27 28  1  0  0  0
 28 29  1  0  0  0
 29 30  2  0  0  0
 30 31  1  0  0  0
 31 32  2  0  0  0
 32 33  1  0  0  0
 33 34  2  0  0  0
  3  4  1  0  0  0
  4  5  1  0  0  0
  4  6  1  0  0  0
  6  7  1  0  0  0
 12 14  1  0  0  0
 14 17  1  0  0  0
 17 18  2  0  0  0
 18 19  1  0  0  0
 19 20  2  0  0  0
 20 21  1  0  0  0
 21 22  2  0  0  0
  6  1  1  0  0  0
 22 17  1  0  0  0
 34 26  1  0  0  0
 34 29  1  0  0  0
 13 15  1  0  0  0
  5  8  1  0  0  0
  7  9  1  0  0  0
 14 16  1  0  0  0
M  END
>  <minimizedAffinity>
-8.66022

>  <minimizedRMSD>
2.39735

$$$$
MolPort-044-566-019 CSSS02125595737 MCULE-8578564653


 36 40  0  0  0  0  0  0  0  0999 V2000
    3.0084   19.7499   69.4026 C   0  0  0  0  0  0  0  0  0  0  0  0
    3.0391   20.1098   70.6102 O   0  0  0  0  0  0  0  0  0  0  0  0
    1.8860   20.0622   68.5715 N   0  0  0  0  0  0  0  0  0  0  0  0
    1.8952   19.7217   67.6478 H   0  0  0  0  0  0  0  0  0  0  0  0
    0.7515   20.8318   68.9813 C   0  0  0  0  0  0  0  0  0  0  0  0
    0.5263   22.0835   68.5463 N   0  0  0  0  0  0  0  0  0  0  0  0
   -0.5936   22.4817   69.1235 N   0  0  0  0  0  0  0  0  0  0  0  0
   -1.0116   21.4609   69.8960 C   0  0  0  0  0  0  0  0  0  0  0  0
   -0.1948   20.3919   69.8346 N   0  0  0  0  0  0  0  0  0  0  0  0
   -1.0359   23.3540   69.0109 H   0  0  0  0  0  0  0  0  0  0  0  0
   -2.2627   21.4892   70.7054 C   0  0  0  0  0  0  0  0  0  0  0  0
   -3.1213   20.2552   70.4116 C   0  0  0  0  0  0  0  0  0  0  0  0
   -4.4016   20.3819   71.0340 O   0  0  0  0  0  0  0  0  0  0  0  0
   -5.0627   21.6127   71.0740 C   0  0  0  0  0  0  0  0  0  0  0  0
   -6.4127   21.6870   71.4273 C   0  0  0  0  0  0  0  0  0  0  0  0
   -7.0616   22.9265   71.4350 C   0  0  0  0  0  0  0  0  0  0  0  0
   -6.3610   24.0885   71.0907 C   0  0  0  0  0  0  0  0  0  0  0  0
   -5.0062   24.0163   70.7492 C   0  0  0  0  0  0  0  0  0  0  0  0
   -4.3546   22.7801   70.7534 C   0  0  0  0  0  0  0  0  0  0  0  0
   -2.9957   22.6882   70.4418 O   0  0  0  0  0  0  0  0  0  0  0  0
    4.1393   18.9511   68.8309 C   0  0  0  0  0  0  0  0  0  0  0  0
   10.6750   20.1494   69.7839 C   0  0  0  0  0  0  0  0  0  0  0  0
   10.5555   20.8274   68.5733 C   0  0  0  0  0  0  0  0  0  0  0  0
    9.2973   21.2219   68.1186 C   0  0  0  0  0  0  0  0  0  0  0  0
    8.1395   20.9294   68.8500 C   0  0  0  0  0  0  0  0  0  0  0  0
    8.2594   20.2475   70.0936 C   0  0  0  0  0  0  0  0  0  0  0  0
    9.5365   19.8707   70.5395 C   0  0  0  0  0  0  0  0  0  0  0  0
    7.1162   19.9609   70.9901 C   0  0  0  0  0  0  0  0  0  0  0  0
    7.3001   19.9324   72.2363 O   0  0  0  0  0  0  0  0  0  0  0  0
    5.8144   19.6645   70.4883 N   0  0  0  0  0  0  0  0  0  0  0  0
    5.5240   19.5687   69.0699 C   0  0  0  0  0  0  0  0  0  0  0  0
    5.7224   20.9040   68.4150 C   0  0  0  0  0  0  0  0  0  0  0  0
    6.9003   21.4433   68.3321 N   0  0  0  0  0  0  0  0  0  0  0  0
    4.6440   21.5762   67.8510 O   0  0  0  0  0  0  0  0  0  0  0  0
    5.0828   19.5190   71.1307 H   0  0  0  0  0  0  0  0  0  0  0  0
    3.7845   21.2061   67.8986 H   0  0  0  0  0  0  0  0  0  0  0  0
 22 23  2  0  0  0
 23 24  1  0  0  0
 24 25  2  0  0  0
 25 26  1  0  0  0
 26 27  2  0  0  0
 26 28  1  0  0  0
 28 29  2  0  0  0
 28 30  1  0  0  0
 30 31  1  0  0  0
 31 21  1  0  0  0
 21  1  1  0  0  0
  1  2  2  0  0  0
  1  3  1  0  0  0
  3  5  1  0  0  0
  5  6  2  0  0  0
  6  7  1  0  0  0
  7  8  1  0  0  0
  8  9  2  0  0  0
  8 11  1  0  0  0
 11 12  1  0  0  0
 12 13  1  0  0  0
 13 14  1  0  0  0
 14 15  2  0  0  0
 15 16  1  0  0  0
 16 17  2  0  0  0
 17 18  1  0  0  0
 18 19  2  0  0  0
 19 20  1  0  0  0
 31 32  1  0  0  0
 32 33  2  0  0  0
 32 34  1  0  0  0
 27 22  1  0  0  0
 33 25  1  0  0  0
  9  5  1  0  0  0
 20 11  1  0  0  0
 19 14  1  0  0  0
 30 35  1  0  0  0
  3  4  1  0  0  0
  7 10  1  0  0  0
 34 36  1  0  0  0
M  END
>  <minimizedAffinity>
-8.63993

>  <minimizedRMSD>
2.09106

$$$$
MolPort-038-431-568 CSSS00160805259


 30 33  0  0  0  0  0  0  0  0999 V2000
    5.9499   21.2471   68.1824 O   0  0  0  0  0  0  0  0  0  0  0  0
    6.5787   20.5168   69.1847 C   0  0  0  0  0  0  0  0  0  0  0  0
    7.7795   20.8570   69.5411 N   0  0  0  0  0  0  0  0  0  0  0  0
    8.5938   20.2550   70.5621 C   0  0  0  0  0  0  0  0  0  0  0  0
    9.9772   20.2528   70.3445 C   0  0  0  0  0  0  0  0  0  0  0  0
   10.8569   19.7557   71.3059 C   0  0  0  0  0  0  0  0  0  0  0  0
   10.3629   19.2708   72.5143 C   0  0  0  0  0  0  0  0  0  0  0  0
    8.9904   19.2873   72.7607 C   0  0  0  0  0  0  0  0  0  0  0  0
    8.0864   19.7712   71.8014 C   0  0  0  0  0  0  0  0  0  0  0  0
    6.6532   19.8011   72.1753 C   0  0  0  0  0  0  0  0  0  0  0  0
    6.3332   19.9469   73.3852 O   0  0  0  0  0  0  0  0  0  0  0  0
    5.6144   19.6178   71.2149 N   0  0  0  0  0  0  0  0  0  0  0  0
    5.8848   19.3466   69.8156 C   0  0  0  0  0  0  0  0  0  0  0  0
    6.3867   21.9776   67.7907 H   0  0  0  0  0  0  0  0  0  0  0  0
    4.6781   19.6776   71.5131 H   0  0  0  0  0  0  0  0  0  0  0  0
    4.6144   18.8977   69.0790 C   0  0  0  0  0  0  0  0  0  0  0  0
    3.4510   19.8499   69.1339 C   0  0  0  0  0  0  0  0  0  0  0  0
    3.4437   20.8238   69.9359 O   0  0  0  0  0  0  0  0  0  0  0  0
    2.3465   19.6262   68.2521 N   0  0  0  0  0  0  0  0  0  0  0  0
    2.3981   18.8514   67.6469 H   0  0  0  0  0  0  0  0  0  0  0  0
    1.1726   20.4419   68.1822 C   0  0  0  0  0  0  0  0  0  0  0  0
    0.0822   20.0881   67.4809 N   0  0  0  0  0  0  0  0  0  0  0  0
   -0.7940   21.0645   67.6385 N   0  0  0  0  0  0  0  0  0  0  0  0
   -0.2085   21.9843   68.4322 C   0  0  0  0  0  0  0  0  0  0  0  0
    1.0380   21.6318   68.8010 N   0  0  0  0  0  0  0  0  0  0  0  0
   -1.6981   21.1115   67.2517 H   0  0  0  0  0  0  0  0  0  0  0  0
   -0.8555   23.2637   68.8677 C   0  0  0  0  0  0  0  0  0  0  0  0
   -2.2064   23.0020   69.5063 C   0  0  0  0  0  0  0  0  0  0  0  0
   -2.8911   23.6975   68.3458 C   0  0  0  0  0  0  0  0  0  0  0  0
   -1.5417   23.9519   67.7028 C   0  0  0  0  0  0  0  0  0  0  0  0
  1  2  1  0  0  0
  2  3  2  0  0  0
  3  4  1  0  0  0
  4  5  2  0  0  0
  5  6  1  0  0  0
  6  7  2  0  0  0
  7  8  1  0  0  0
  8  9  2  0  0  0
  9 10  1  0  0  0
 10 11  2  0  0  0
 10 12  1  0  0  0
 12 13  1  0  0  0
 13 16  1  0  0  0
 16 17  1  0  0  0
 17 18  2  0  0  0
 17 19  1  0  0  0
 19 21  1  0  0  0
 21 22  2  0  0  0
 22 23  1  0  0  0
 23 24  1  0  0  0
 24 25  2  0  0  0
 24 27  1  0  0  0
 27 28  1  0  0  0
 28 29  1  0  0  0
 29 30  1  0  0  0
 13  2  1  0  0  0
 25 21  1  0  0  0
 30 27  1  0  0  0
  9  4  1  0  0  0
  1 14  1  0  0  0
 12 15  1  0  0  0
 19 20  1  0  0  0
 23 26  1  0  0  0
M  END
>  <minimizedAffinity>
-8.61986

>  <minimizedRMSD>
0.86596

$$$$
MolPort-039-346-779 MCULE-4094985436


 34 37  0  0  0  0  0  0  0  0999 V2000
    3.3705   21.6373   69.9232 O   0  0  0  0  0  0  0  0  0  0  0  0
    2.8671   20.5279   70.2444 C   0  0  0  0  0  0  0  0  0  0  0  0
    1.5552   20.1585   69.8072 N   0  0  0  0  0  0  0  0  0  0  0  0
    1.2103   19.2819   70.0934 H   0  0  0  0  0  0  0  0  0  0  0  0
    0.7071   20.9667   68.9858 C   0  0  0  0  0  0  0  0  0  0  0  0
    0.3318   22.2248   69.2909 N   0  0  0  0  0  0  0  0  0  0  0  0
   -0.4361   22.5341   68.2284 C   0  0  0  0  0  0  0  0  0  0  0  0
   -0.5274   21.5289   67.3391 N   0  0  0  0  0  0  0  0  0  0  0  0
    0.1999   20.5352   67.8182 N   0  0  0  0  0  0  0  0  0  0  0  0
    0.3420   19.6541   67.4027 H   0  0  0  0  0  0  0  0  0  0  0  0
   -1.1407   23.8384   68.0718 C   0  0  0  0  0  0  0  0  0  0  0  0
   -2.0610   24.0342   69.1410 O   0  0  0  0  0  0  0  0  0  0  0  0
   -3.1507   23.1900   69.3818 C   0  0  0  0  0  0  0  0  0  0  0  0
   -4.1788   23.0243   68.4388 C   0  0  0  0  0  0  0  0  0  0  0  0
   -5.2546   22.1744   68.7106 C   0  0  0  0  0  0  0  0  0  0  0  0
   -5.3110   21.4862   69.9257 C   0  0  0  0  0  0  0  0  0  0  0  0
   -4.2921   21.6487   70.8685 C   0  0  0  0  0  0  0  0  0  0  0  0
   -3.2159   22.4989   70.5966 C   0  0  0  0  0  0  0  0  0  0  0  0
    3.6606   19.5734   71.0694 C   0  0  0  0  0  0  0  0  0  0  0  0
    5.1087   19.5288   70.5937 C   0  0  0  0  0  0  0  0  0  0  0  0
    5.8568   18.6089   71.4253 N   0  0  0  0  0  0  0  0  0  0  0  0
    7.2780   18.4771   71.3644 C   0  0  0  0  0  0  0  0  0  0  0  0
    7.8389   17.6908   72.1735 O   0  0  0  0  0  0  0  0  0  0  0  0
    8.1170   19.2714   70.4328 C   0  0  0  0  0  0  0  0  0  0  0  0
    9.3926   19.6441   70.8870 C   0  0  0  0  0  0  0  0  0  0  0  0
   10.2797   20.3354   70.0621 C   0  0  0  0  0  0  0  0  0  0  0  0
    9.9111   20.6508   68.7568 C   0  0  0  0  0  0  0  0  0  0  0  0
    8.6547   20.2782   68.2801 C   0  0  0  0  0  0  0  0  0  0  0  0
    7.7416   19.6047   69.1004 C   0  0  0  0  0  0  0  0  0  0  0  0
    6.4975   19.2166   68.5016 N   0  0  0  0  0  0  0  0  0  0  0  0
    5.2421   19.0960   69.1674 C   0  0  0  0  0  0  0  0  0  0  0  0
    4.2579   18.6218   68.5389 O   0  0  0  0  0  0  0  0  0  0  0  0
    5.3615   18.0468   72.0641 H   0  0  0  0  0  0  0  0  0  0  0  0
    6.5115   19.0138   67.5383 H   0  0  0  0  0  0  0  0  0  0  0  0
  1  2  2  0  0  0
  2 19  1  0  0  0
 19 20  1  0  0  0
 20 21  1  0  0  0
 21 22  1  0  0  0
 22 23  2  0  0  0
 22 24  1  0  0  0
 24 25  2  0  0  0
 25 26  1  0  0  0
 26 27  2  0  0  0
 27 28  1  0  0  0
 28 29  2  0  0  0
 29 30  1  0  0  0
 30 31  1  0  0  0
 31 32  2  0  0  0
  2  3  1  0  0  0
  3  5  1  0  0  0
  5  6  2  0  0  0
  6  7  1  0  0  0
  7 11  1  0  0  0
 11 12  1  0  0  0
 12 13  1  0  0  0
 13 14  2  0  0  0
 14 15  1  0  0  0
 15 16  2  0  0  0
 16 17  1  0  0  0
 17 18  2  0  0  0
  7  8  2  0  0  0
  8  9  1  0  0  0
 31 20  1  0  0  0
  9  5  1  0  0  0
 29 24  1  0  0  0
 18 13  1  0  0  0
 21 33  1  0  0  0
 30 34  1  0  0  0
  3  4  1  0  0  0
  9 10  1  0  0  0
M  END
>  <minimizedAffinity>
-8.59365

>  <minimizedRMSD>
10.17908

$$$$
MolPort-047-085-470 MCULE-4757865153 PubChem-156000859


 37 40  0  0  0  0  0  0  0  0999 V2000
    5.0133   19.8139   71.6976 C   0  0  0  0  0  0  0  0  0  0  0  0
    4.9759   18.7507   70.6014 C   0  0  0  0  0  0  0  0  0  0  0  0
    3.8363   18.9463   69.8061 O   0  0  0  0  0  0  0  0  0  0  0  0
    2.7273   18.5500   70.5765 C   0  0  0  0  0  0  0  0  0  0  0  0
    2.5050   19.5431   71.7340 C   0  0  0  0  0  0  0  0  0  0  0  0
    1.4599   19.1088   72.5503 O   0  0  0  0  0  0  0  0  0  0  0  0
    3.7768   19.6505   72.5783 C   0  0  0  0  0  0  0  0  0  0  0  0
    3.6720   20.7350   73.4506 O   0  0  0  0  0  0  0  0  0  0  0  0
    1.6822   18.2430   72.9269 H   0  0  0  0  0  0  0  0  0  0  0  0
    3.5750   21.5533   72.9389 H   0  0  0  0  0  0  0  0  0  0  0  0
    7.5463   19.9637   72.0576 C   0  0  0  0  0  0  0  0  0  0  0  0
    8.5119   19.6412   72.7983 O   0  0  0  0  0  0  0  0  0  0  0  0
    6.2178   19.6563   72.5007 N   0  0  0  0  0  0  0  0  0  0  0  0
    6.1119   19.3128   73.4172 H   0  0  0  0  0  0  0  0  0  0  0  0
    7.8153   20.6546   70.7753 C   0  0  0  0  0  0  0  0  0  0  0  0
    6.9692   21.5237   70.1840 N   0  0  0  0  0  0  0  0  0  0  0  0
    7.5412   21.9426   69.0910 O   0  0  0  0  0  0  0  0  0  0  0  0
    8.7214   21.3933   68.9364 C   0  0  0  0  0  0  0  0  0  0  0  0
    9.6353   21.6666   67.7938 C   0  0  0  0  0  0  0  0  0  0  0  0
    8.9526   20.5432   69.9939 C   0  0  0  0  0  0  0  0  0  0  0  0
   10.1740   19.7219   70.2428 C   0  0  0  0  0  0  0  0  0  0  0  0
   11.1282   20.4860   70.9134 O   0  0  0  0  0  0  0  0  0  0  0  0
   11.5226   19.6878   71.9864 C   0  0  0  0  0  0  0  0  0  0  0  0
    1.5069   18.4810   69.6600 C   0  0  0  0  0  0  0  0  0  0  0  0
    0.8166   19.7739   69.5787 N   0  0  0  0  0  0  0  0  0  0  0  0
   -0.4422   19.9434   70.1011 C   0  0  0  0  0  0  0  0  0  0  0  0
   -1.1164   18.8899   70.7458 C   0  0  0  0  0  0  0  0  0  0  0  0
   -2.3976   19.0765   71.2688 C   0  0  0  0  0  0  0  0  0  0  0  0
   -3.0261   20.3170   71.1535 C   0  0  0  0  0  0  0  0  0  0  0  0
   -2.3759   21.3731   70.5123 C   0  0  0  0  0  0  0  0  0  0  0  0
   -1.0901   21.1941   69.9834 C   0  0  0  0  0  0  0  0  0  0  0  0
   -0.4240   22.2301   69.3233 C   0  0  0  0  0  0  0  0  0  0  0  0
    0.8079   22.0104   68.8042 N   0  0  0  0  0  0  0  0  0  0  0  0
    1.4255   20.8065   68.9161 C   0  0  0  0  0  0  0  0  0  0  0  0
    2.5678   20.6555   68.4037 O   0  0  0  0  0  0  0  0  0  0  0  0
   -0.9566   23.3659   69.1986 O   0  0  0  0  0  0  0  0  0  0  0  0
    1.2673   22.7429   68.3334 H   0  0  0  0  0  0  0  0  0  0  0  0
 15 11  1  0  0  0
 11 12  2  0  0  0
 11 13  1  0  0  0
  1 13  1  0  0  0
  1  2  1  0  0  0
  2  3  1  0  0  0
  3  4  1  0  0  0
  4  5  1  0  0  0
  5  6  1  0  0  0
  5  7  1  0  0  0
  7  8  1  0  0  0
  4 24  1  0  0  0
 24 25  1  0  0  0
 25 26  1  0  0  0
 26 27  2  0  0  0
 27 28  1  0  0  0
 28 29  2  0  0  0
 29 30  1  0  0  0
 30 31  2  0  0  0
 31 32  1  0  0  0
 32 33  1  0  0  0
 33 34  1  0  0  0
 34 35  2  0  0  0
 32 36  2  0  0  0
 15 16  2  0  0  0
 16 17  1  0  0  0
 17 18  1  0  0  0
 18 19  1  0  0  0
 18 20  2  0  0  0
 20 21  1  0  0  0
 21 22  1  0  0  0
 22 23  1  0  0  0
 20 15  1  0  0  0
  7  1  1  0  0  0
 34 25  1  0  0  0
 31 26  1  0  0  0
 13 14  1  0  0  0
  6  9  1  0  0  0
  8 10  1  0  0  0
 33 37  1  0  0  0
M  END
>  <minimizedAffinity>
-8.49976

>  <minimizedRMSD>
3.93725

$$$$
MolPort-038-430-822 CSSS00160805334 MCULE-8415765562


 40 44  0  0  0  0  0  0  0  0999 V2000
    3.2669   18.7006   69.3426 C   0  0  0  0  0  0  0  0  0  0  0  0
    3.1143   19.4958   68.3779 O   0  0  0  0  0  0  0  0  0  0  0  0
    2.1916   18.4269   70.2482 N   0  0  0  0  0  0  0  0  0  0  0  0
    2.3582   17.7769   70.9686 H   0  0  0  0  0  0  0  0  0  0  0  0
    0.8937   19.0259   70.1862 C   0  0  0  0  0  0  0  0  0  0  0  0
    0.4917   19.7844   69.1520 N   0  0  0  0  0  0  0  0  0  0  0  0
   -0.7426   20.1665   69.4288 N   0  0  0  0  0  0  0  0  0  0  0  0
   -1.0540   19.6228   70.6195 C   0  0  0  0  0  0  0  0  0  0  0  0
   -0.0471   18.8970   71.1429 N   0  0  0  0  0  0  0  0  0  0  0  0
   -1.3210   20.7370   68.8728 H   0  0  0  0  0  0  0  0  0  0  0  0
   -2.3564   19.8456   71.3106 C   0  0  0  0  0  0  0  0  0  0  0  0
   -2.2988   21.0867   72.1929 C   0  0  0  0  0  0  0  0  0  0  0  0
   -3.3742   22.0989   71.8133 C   0  0  0  0  0  0  0  0  0  0  0  0
   -3.1425   22.6527   70.4448 C   0  0  0  0  0  0  0  0  0  0  0  0
   -1.9936   23.3033   70.0104 C   0  0  0  0  0  0  0  0  0  0  0  0
   -2.1321   23.6858   68.7153 N   0  0  0  0  0  0  0  0  0  0  0  0
   -3.3616   23.2769   68.3523 C   0  0  0  0  0  0  0  0  0  0  0  0
   -3.9616   23.4467   67.1062 C   0  0  0  0  0  0  0  0  0  0  0  0
   -5.2651   22.9455   66.9348 C   0  0  0  0  0  0  0  0  0  0  0  0
   -5.9301   22.2961   67.9976 C   0  0  0  0  0  0  0  0  0  0  0  0
   -5.2997   22.1392   69.2450 C   0  0  0  0  0  0  0  0  0  0  0  0
   -4.0083   22.6461   69.3794 C   0  0  0  0  0  0  0  0  0  0  0  0
   -1.4729   24.1613   68.1597 H   0  0  0  0  0  0  0  0  0  0  0  0
    4.5827   18.0211   69.5243 C   0  0  0  0  0  0  0  0  0  0  0  0
    5.7369   18.9862   69.2915 C   0  0  0  0  0  0  0  0  0  0  0  0
    4.8756   22.0393   67.7522 O   0  0  0  0  0  0  0  0  0  0  0  0
    5.8138   21.3696   68.5254 C   0  0  0  0  0  0  0  0  0  0  0  0
    7.0768   21.5720   68.2962 N   0  0  0  0  0  0  0  0  0  0  0  0
    8.2062   21.0048   68.9807 C   0  0  0  0  0  0  0  0  0  0  0  0
    9.3621   20.7949   68.2184 C   0  0  0  0  0  0  0  0  0  0  0  0
   10.5312   20.3067   68.8013 C   0  0  0  0  0  0  0  0  0  0  0  0
   10.5660   20.0394   70.1674 C   0  0  0  0  0  0  0  0  0  0  0  0
    9.4328   20.2649   70.9482 C   0  0  0  0  0  0  0  0  0  0  0  0
    8.2420   20.7448   70.3789 C   0  0  0  0  0  0  0  0  0  0  0  0
    7.1101   21.0044   71.2973 C   0  0  0  0  0  0  0  0  0  0  0  0
    7.3483   21.3129   72.4957 O   0  0  0  0  0  0  0  0  0  0  0  0
    5.7475   20.8711   70.8901 N   0  0  0  0  0  0  0  0  0  0  0  0
    5.3216   20.4286   69.5728 C   0  0  0  0  0  0  0  0  0  0  0  0
    5.1568   22.6363   67.0871 H   0  0  0  0  0  0  0  0  0  0  0  0
    5.0488   21.0943   71.5468 H   0  0  0  0  0  0  0  0  0  0  0  0
 26 27  1  0  0  0
 27 28  2  0  0  0
 28 29  1  0  0  0
 29 30  2  0  0  0
 30 31  1  0  0  0
 31 32  2  0  0  0
 32 33  1  0  0  0
 33 34  2  0  0  0
 34 35  1  0  0  0
 35 36  2  0  0  0
 35 37  1  0  0  0
 37 38  1  0  0  0
 38 25  1  0  0  0
 25 24  1  0  0  0
 24  1  1  0  0  0
  1  2  2  0  0  0
  1  3  1  0  0  0
  3  5  1  0  0  0
  5  6  2  0  0  0
  6  7  1  0  0  0
  7  8  1  0  0  0
  8 11  1  0  0  0
 11 12  1  0  0  0
 12 13  1  0  0  0
 13 14  1  0  0  0
 14 15  2  0  0  0
 15 16  1  0  0  0
 16 17  1  0  0  0
 17 18  2  0  0  0
 18 19  1  0  0  0
 19 20  2  0  0  0
 20 21  1  0  0  0
 21 22  2  0  0  0
  8  9  2  0  0  0
 38 27  1  0  0  0
  9  5  1  0  0  0
 34 29  1  0  0  0
 22 14  1  0  0  0
 22 17  1  0  0  0
 26 39  1  0  0  0
 37 40  1  0  0  0
  3  4  1  0  0  0
  7 10  1  0  0  0
 16 23  1  0  0  0
M  END
>  <minimizedAffinity>
-8.47716

>  <minimizedRMSD>
2.91754

$$$$
Molport-035-893-960 16284984 MCULE-5768279763 PubChem-5057817 ZINC000016284984


 35 39  0  0  0  0  0  0  0  0999 V2000
    3.1505   19.3313   71.5810 C   0  0  0  0  0  0  0  0  0  0  0  0
    3.1847   20.1803   70.5039 N   0  0  0  0  0  0  0  0  0  0  0  0
    2.1190   20.1912   69.6719 C   0  0  0  0  0  0  0  0  0  0  0  0
    1.9258   20.9319   68.5753 N   0  0  0  0  0  0  0  0  0  0  0  0
    0.7344   20.5627   68.1595 O   0  0  0  0  0  0  0  0  0  0  0  0
    0.1524   19.6481   68.9035 N   0  0  0  0  0  0  0  0  0  0  0  0
    1.0464   19.4148   69.8704 C   0  0  0  0  0  0  0  0  0  0  0  0
    0.9537   18.5612   70.9145 N   0  0  0  0  0  0  0  0  0  0  0  0
    2.0138   18.4941   71.7827 C   0  0  0  0  0  0  0  0  0  0  0  0
    4.2432   19.2699   72.5103 N   0  0  0  0  0  0  0  0  0  0  0  0
    4.2450   18.5029   73.1276 H   0  0  0  0  0  0  0  0  0  0  0  0
    8.6345   22.9203   73.0150 C   0  0  0  0  0  0  0  0  0  0  0  0
    7.4927   21.9779   72.8878 C   0  0  0  0  0  0  0  0  0  0  0  0
    6.2792   22.2620   73.5166 C   0  0  0  0  0  0  0  0  0  0  0  0
    5.2068   21.3750   73.3961 C   0  0  0  0  0  0  0  0  0  0  0  0
    5.3348   20.1950   72.6467 C   0  0  0  0  0  0  0  0  0  0  0  0
    6.5619   19.9164   72.0159 C   0  0  0  0  0  0  0  0  0  0  0  0
    6.7489   18.6771   71.2091 C   0  0  0  0  0  0  0  0  0  0  0  0
    7.6330   20.8073   72.1393 C   0  0  0  0  0  0  0  0  0  0  0  0
    1.9610   17.6319   72.9250 N   0  0  0  0  0  0  0  0  0  0  0  0
    2.5804   16.8669   72.9441 H   0  0  0  0  0  0  0  0  0  0  0  0
    1.0781   17.7939   74.0432 C   0  0  0  0  0  0  0  0  0  0  0  0
   -0.2899   17.4573   74.0321 C   0  0  0  0  0  0  0  0  0  0  0  0
   -0.9024   17.6383   75.2663 C   0  0  0  0  0  0  0  0  0  0  0  0
    0.2174   18.2390   76.3617 S   0  0  0  0  0  0  0  0  0  0  0  0
    1.5234   18.2380   75.2925 C   0  0  0  0  0  0  0  0  0  0  0  0
   -2.3612   17.4203   75.5223 C   0  0  0  0  0  0  0  0  0  0  0  0
   -2.9583   16.4822   74.4685 C   0  0  0  0  0  0  0  0  0  0  0  0
   -2.5294   16.9034   73.0604 C   0  0  0  0  0  0  0  0  0  0  0  0
   -1.0109   16.7773   72.9018 C   0  0  0  0  0  0  0  0  0  0  0  0
    2.8907   18.6554   75.6470 C   0  0  0  0  0  0  0  0  0  0  0  0
    3.8456   17.6867   76.0675 N   0  0  0  0  0  0  0  0  0  0  0  0
    3.2288   19.8665   75.5834 O   0  0  0  0  0  0  0  0  0  0  0  0
    3.5923   16.7368   76.1210 H   0  0  0  0  0  0  0  0  0  0  0  0
    4.7591   17.9667   76.3048 H   0  0  0  0  0  0  0  0  0  0  0  0
 12 13  1  0  0  0
 13 14  2  0  0  0
 14 15  1  0  0  0
 15 16  2  0  0  0
 16 10  1  0  0  0
 10  1  1  0  0  0
  1  2  2  0  0  0
  2  3  1  0  0  0
  3  4  2  0  0  0
  4  5  1  0  0  0
  5  6  1  0  0  0
  6  7  2  0  0  0
  7  8  1  0  0  0
  8  9  2  0  0  0
  9 20  1  0  0  0
 20 22  1  0  0  0
 22 23  1  0  0  0
 23 24  2  0  0  0
 24 25  1  0  0  0
 25 26  1  0  0  0
 26 31  1  0  0  0
 31 32  1  0  0  0
 31 33  2  0  0  0
 24 27  1  0  0  0
 27 28  1  0  0  0
 28 29  1  0  0  0
 29 30  1  0  0  0
 16 17  1  0  0  0
 17 18  1  0  0  0
 17 19  2  0  0  0
 19 13  1  0  0  0
  9  1  1  0  0  0
 26 22  2  0  0  0
  7  3  1  0  0  0
 30 23  1  0  0  0
 10 11  1  0  0  0
 20 21  1  0  0  0
 32 34  1  0  0  0
 32 35  1  0  0  0
M  END
>  <minimizedAffinity>
-8.43764

>  <minimizedRMSD>
7.37101

$$$$
MolPort-002-536-294 CSSS00160698753 LN00345131 MCULE-8434124838 PubChem-16408404


 37 39  0  0  0  0  0  0  0  0999 V2000
    1.2335   19.0799   72.5091 C   0  0  0  0  0  0  0  0  0  0  0  0
    1.7771   18.5853   73.5327 O   0  0  0  0  0  0  0  0  0  0  0  0
   -0.0175   19.7802   72.6242 N   0  0  0  0  0  0  0  0  0  0  0  0
   -0.6228   19.9831   73.9304 C   0  0  0  0  0  0  0  0  0  0  0  0
    1.9191   18.9203   71.1875 C   0  0  0  0  0  0  0  0  0  0  0  0
    2.6067   20.1157   70.8303 O   0  0  0  0  0  0  0  0  0  0  0  0
    8.5056   19.3616   71.7740 C   0  0  0  0  0  0  0  0  0  0  0  0
    9.2965   18.9370   72.6590 O   0  0  0  0  0  0  0  0  0  0  0  0
    8.9977   19.8543   70.5540 C   0  0  0  0  0  0  0  0  0  0  0  0
   10.3735   19.8892   70.2826 C   0  0  0  0  0  0  0  0  0  0  0  0
   10.8380   20.3840   69.0617 C   0  0  0  0  0  0  0  0  0  0  0  0
    9.9332   20.8467   68.1035 C   0  0  0  0  0  0  0  0  0  0  0  0
    8.5608   20.8165   68.3633 C   0  0  0  0  0  0  0  0  0  0  0  0
    8.0793   20.3217   69.5868 C   0  0  0  0  0  0  0  0  0  0  0  0
    6.7057   20.2788   69.8766 C   0  0  0  0  0  0  0  0  0  0  0  0
    6.2981   19.7671   71.1291 C   0  0  0  0  0  0  0  0  0  0  0  0
    4.9391   19.7108   71.4489 C   0  0  0  0  0  0  0  0  0  0  0  0
    3.9731   20.1609   70.5354 C   0  0  0  0  0  0  0  0  0  0  0  0
    4.3790   20.6650   69.2964 C   0  0  0  0  0  0  0  0  0  0  0  0
    5.7351   20.7252   68.9662 C   0  0  0  0  0  0  0  0  0  0  0  0
    7.1969   19.3380   72.0092 O   0  0  0  0  0  0  0  0  0  0  0  0
   -0.6529   20.4122   71.4749 C   0  0  0  0  0  0  0  0  0  0  0  0
   -0.6527   19.4726   70.2758 C   0  0  0  0  0  0  0  0  0  0  0  0
   -1.7913   18.6658   70.3245 O   0  0  0  0  0  0  0  0  0  0  0  0
   -2.5843   19.2237   70.2960 H   0  0  0  0  0  0  0  0  0  0  0  0
   -0.6354   20.2744   68.9769 C   0  0  0  0  0  0  0  0  0  0  0  0
    0.3599   19.7899   68.1228 O   0  0  0  0  0  0  0  0  0  0  0  0
    1.2267   19.8906   68.5464 H   0  0  0  0  0  0  0  0  0  0  0  0
   -0.4149   21.7652   69.2525 C   0  0  0  0  0  0  0  0  0  0  0  0
    0.9406   22.0164   69.4903 O   0  0  0  0  0  0  0  0  0  0  0  0
    1.4561   21.7803   68.7032 H   0  0  0  0  0  0  0  0  0  0  0  0
   -0.9176   22.6235   68.0941 C   0  0  0  0  0  0  0  0  0  0  0  0
   -1.5888   21.8240   67.1658 O   0  0  0  0  0  0  0  0  0  0  0  0
   -2.3508   21.4025   67.5932 H   0  0  0  0  0  0  0  0  0  0  0  0
   -1.8656   23.6951   68.6073 C   0  0  0  0  0  0  0  0  0  0  0  0
   -2.2774   24.5087   67.5518 O   0  0  0  0  0  0  0  0  0  0  0  0
   -1.5036   24.9346   67.1509 H   0  0  0  0  0  0  0  0  0  0  0  0
  7  8  2  0  0  0
  7  9  1  0  0  0
  9 10  2  0  0  0
 10 11  1  0  0  0
 11 12  2  0  0  0
 12 13  1  0  0  0
 13 14  2  0  0  0
 14 15  1  0  0  0
 15 16  2  0  0  0
 16 17  1  0  0  0
 17 18  2  0  0  0
 18 19  1  0  0  0
 19 20  2  0  0  0
 18  6  1  0  0  0
  6  5  1  0  0  0
  5  1  1  0  0  0
  1  2  2  0  0  0
  1  3  1  0  0  0
  3  4  1  0  0  0
  3 22  1  0  0  0
 22 23  1  0  0  0
 23 24  1  0  0  0
 23 26  1  0  0  0
 26 27  1  0  0  0
 26 29  1  0  0  0
 29 30  1  0  0  0
 29 32  1  0  0  0
 32 35  1  0  0  0
 35 36  1  0  0  0
 32 33  1  0  0  0
 16 21  1  0  0  0
 21  7  1  0  0  0
 14  9  1  0  0  0
 20 15  1  0  0  0
 24 25  1  0  0  0
 27 28  1  0  0  0
 30 31  1  0  0  0
 36 37  1  0  0  0
 33 34  1  0  0  0
M  END
>  <minimizedAffinity>
-8.42582

>  <minimizedRMSD>
6.55831

$$$$
MolPort-047-145-478 CSSS00161149090 MCULE-8492533235 PubChem-53463159


 42 44  0  0  0  0  0  0  0  0999 V2000
    0.3724   20.6905   68.8314 C   0  0  0  0  0  0  0  0  0  0  0  0
   -0.4450   19.9682   69.9184 C   0  0  0  0  0  0  0  0  0  0  0  0
    0.3631   19.8844   71.2234 C   0  0  0  0  0  0  0  0  0  0  0  0
    1.8623   19.7555   70.9487 C   0  0  0  0  0  0  0  0  0  0  0  0
    2.3262   20.9273   70.0407 C   0  0  0  0  0  0  0  0  0  0  0  0
    1.2814   21.6242   69.3805 O   0  0  0  0  0  0  0  0  0  0  0  0
    2.1320   18.5159   70.3574 O   0  0  0  0  0  0  0  0  0  0  0  0
   -0.0902   18.8489   72.0445 O   0  0  0  0  0  0  0  0  0  0  0  0
   -0.7869   18.6935   69.4600 O   0  0  0  0  0  0  0  0  0  0  0  0
    1.6486   18.4455   69.5194 H   0  0  0  0  0  0  0  0  0  0  0  0
    0.0375   17.9994   71.5938 H   0  0  0  0  0  0  0  0  0  0  0  0
    0.0207   18.1898   69.2728 H   0  0  0  0  0  0  0  0  0  0  0  0
   -0.4418   21.2689   67.8329 O   0  0  0  0  0  0  0  0  0  0  0  0
   -0.9140   22.5109   68.2980 C   0  0  0  0  0  0  0  0  0  0  0  0
   -4.9745   22.2314   69.6818 C   0  0  0  0  0  0  0  0  0  0  0  0
   -3.9468   22.5668   70.5684 C   0  0  0  0  0  0  0  0  0  0  0  0
   -2.6290   22.6547   70.1105 C   0  0  0  0  0  0  0  0  0  0  0  0
   -2.3331   22.4048   68.7654 C   0  0  0  0  0  0  0  0  0  0  0  0
   -3.3672   22.0715   67.8779 C   0  0  0  0  0  0  0  0  0  0  0  0
   -4.6850   21.9852   68.3363 C   0  0  0  0  0  0  0  0  0  0  0  0
   -0.7601   23.5588   67.2423 C   0  0  0  0  0  0  0  0  0  0  0  0
    0.2684   23.5660   66.5177 O   0  0  0  0  0  0  0  0  0  0  0  0
   -1.7692   24.5450   67.0467 N   0  0  0  0  0  0  0  0  0  0  0  0
   -2.5755   24.5429   67.6115 H   0  0  0  0  0  0  0  0  0  0  0  0
   -1.6602   25.2287   66.3467 H   0  0  0  0  0  0  0  0  0  0  0  0
    3.4644   20.5856   69.0843 C   0  0  0  0  0  0  0  0  0  0  0  0
    4.5398   21.4510   69.2966 O   0  0  0  0  0  0  0  0  0  0  0  0
    5.6561   20.6170   69.3960 C   0  0  0  0  0  0  0  0  0  0  0  0
    5.9745   20.3473   70.8736 C   0  0  0  0  0  0  0  0  0  0  0  0
    7.2144   19.4476   70.9878 C   0  0  0  0  0  0  0  0  0  0  0  0
    8.3394   19.9530   70.0808 C   0  0  0  0  0  0  0  0  0  0  0  0
    7.7707   20.2629   68.6866 C   0  0  0  0  0  0  0  0  0  0  0  0
    6.7593   21.2377   68.7794 O   0  0  0  0  0  0  0  0  0  0  0  0
    8.9145   21.0969   70.6418 O   0  0  0  0  0  0  0  0  0  0  0  0
    6.8981   18.1296   70.6465 O   0  0  0  0  0  0  0  0  0  0  0  0
    4.8831   19.7529   71.5104 O   0  0  0  0  0  0  0  0  0  0  0  0
    8.2390   21.7869   70.7331 H   0  0  0  0  0  0  0  0  0  0  0  0
    6.5955   18.0978   69.7254 H   0  0  0  0  0  0  0  0  0  0  0  0
    4.6839   18.9039   71.0856 H   0  0  0  0  0  0  0  0  0  0  0  0
    8.8686   20.7318   67.7462 C   0  0  0  0  0  0  0  0  0  0  0  0
    8.4558   21.8805   67.0723 O   0  0  0  0  0  0  0  0  0  0  0  0
    7.6580   21.6838   66.5568 H   0  0  0  0  0  0  0  0  0  0  0  0
 15 16  2  0  0  0
 16 17  1  0  0  0
 17 18  2  0  0  0
 18 19  1  0  0  0
 19 20  2  0  0  0
 20 15  1  0  0  0
 14 18  1  0  0  0
 14 21  1  0  0  0
 14 13  1  0  0  0
 21 22  2  0  0  0
 21 23  1  0  0  0
  1 13  1  0  0  0
  1  2  1  0  0  0
  2  3  1  0  0  0
  2  9  1  0  0  0
  3  4  1  0  0  0
  3  8  1  0  0  0
  4  5  1  0  0  0
  4  7  1  0  0  0
  5  6  1  0  0  0
  5 26  1  0  0  0
  6  1  1  0  0  0
 26 27  1  0  0  0
 28 27  1  0  0  0
 28 29  1  0  0  0
 29 30  1  0  0  0
 29 36  1  0  0  0
 30 31  1  0  0  0
 30 35  1  0  0  0
 31 32  1  0  0  0
 31 34  1  0  0  0
 32 33  1  0  0  0
 32 40  1  0  0  0
 33 28  1  0  0  0
 40 41  1  0  0  0
 23 24  1  0  0  0
 23 25  1  0  0  0
 41 42  1  0  0  0
 34 37  1  0  0  0
 35 38  1  0  0  0
 36 39  1  0  0  0
  7 10  1  0  0  0
  8 11  1  0  0  0
  9 12  1  0  0  0
M  END
>  <minimizedAffinity>
-8.38508

>  <minimizedRMSD>
3.45671

$$$$
MolPort-035-897-762 3039550 MCULE-4166993013 PubChem-5065952 ZINC000003039550 ZINC03039550


 31 33  0  0  0  0  0  0  0  0999 V2000
   -1.4010   17.7434   71.4419 C   0  0  0  0  0  0  0  0  0  0  0  0
   -0.0693   18.1926   71.9386 C   0  0  0  0  0  0  0  0  0  0  0  0
    0.3199   17.8031   73.2233 C   0  0  0  0  0  0  0  0  0  0  0  0
    1.5900   18.1259   73.7059 C   0  0  0  0  0  0  0  0  0  0  0  0
    2.4931   18.8294   72.9052 C   0  0  0  0  0  0  0  0  0  0  0  0
    2.1042   19.2187   71.6161 C   0  0  0  0  0  0  0  0  0  0  0  0
    0.8255   18.9278   71.1300 C   0  0  0  0  0  0  0  0  0  0  0  0
    0.4964   19.3432   69.7981 N   0  0  0  0  0  0  0  0  0  0  0  0
   -0.0605   20.6140   69.4495 C   0  0  0  0  0  0  0  0  0  0  0  0
   -0.0820   21.5511   70.2932 O   0  0  0  0  0  0  0  0  0  0  0  0
   -0.5489   20.8156   68.1188 N   0  0  0  0  0  0  0  0  0  0  0  0
    0.6666   18.7055   69.0676 H   0  0  0  0  0  0  0  0  0  0  0  0
   -0.4825   20.0554   67.4968 H   0  0  0  0  0  0  0  0  0  0  0  0
   -1.1254   22.0248   67.6120 C   0  0  0  0  0  0  0  0  0  0  0  0
   -0.3390   22.9027   66.9345 N   0  0  0  0  0  0  0  0  0  0  0  0
   -0.8480   24.0604   66.4378 C   0  0  0  0  0  0  0  0  0  0  0  0
   -2.1960   24.3635   66.6193 C   0  0  0  0  0  0  0  0  0  0  0  0
   -2.9898   23.4539   67.3153 C   0  0  0  0  0  0  0  0  0  0  0  0
   -2.4446   22.3065   67.7969 N   0  0  0  0  0  0  0  0  0  0  0  0
    3.7924   19.1301   73.4336 N   0  0  0  0  0  0  0  0  0  0  0  0
    4.9591   19.5276   72.7012 C   0  0  0  0  0  0  0  0  0  0  0  0
    6.0219   19.7576   73.3364 O   0  0  0  0  0  0  0  0  0  0  0  0
    4.9231   19.6622   71.2738 N   0  0  0  0  0  0  0  0  0  0  0  0
    3.8945   19.0550   74.4099 H   0  0  0  0  0  0  0  0  0  0  0  0
    4.0676   19.4663   70.8277 H   0  0  0  0  0  0  0  0  0  0  0  0
    6.0174   20.0555   70.4380 C   0  0  0  0  0  0  0  0  0  0  0  0
    5.8100   20.9821   69.4652 N   0  0  0  0  0  0  0  0  0  0  0  0
    6.8220   21.3825   68.6519 C   0  0  0  0  0  0  0  0  0  0  0  0
    8.0971   20.8419   68.8081 C   0  0  0  0  0  0  0  0  0  0  0  0
    8.2943   19.8933   69.8096 C   0  0  0  0  0  0  0  0  0  0  0  0
    7.2574   19.5182   70.6032 N   0  0  0  0  0  0  0  0  0  0  0  0
  1  2  1  0  0  0
  2  3  2  0  0  0
  3  4  1  0  0  0
  4  5  2  0  0  0
  5  6  1  0  0  0
  5 20  1  0  0  0
  6  7  2  0  0  0
  7  8  1  0  0  0
  7  2  1  0  0  0
  8  9  1  0  0  0
  9 10  2  0  0  0
  9 11  1  0  0  0
 11 14  1  0  0  0
 14 15  2  0  0  0
 15 16  1  0  0  0
 16 17  2  0  0  0
 17 18  1  0  0  0
 18 19  2  0  0  0
 19 14  1  0  0  0
 20 21  1  0  0  0
 21 22  2  0  0  0
 21 23  1  0  0  0
 23 26  1  0  0  0
 26 27  2  0  0  0
 27 28  1  0  0  0
 28 29  2  0  0  0
 29 30  1  0  0  0
 30 31  2  0  0  0
 31 26  1  0  0  0
  8 12  1  0  0  0
 11 13  1  0  0  0
 20 24  1  0  0  0
 23 25  1  0  0  0
M  END
>  <minimizedAffinity>
-8.37865

>  <minimizedRMSD>
1.85380

$$$$
MolPort-042-675-455 136202286 CSSS00159279316 MCULE-7024706751 MCULE-9548987531 PubChem-10390778 ZINC000136202286


 41 43  0  0  0  0  0  0  0  0999 V2000
    4.8018   20.5266   69.9722 C   0  0  0  0  0  0  0  0  0  0  0  0
    4.6665   19.3397   70.9397 C   0  0  0  0  0  0  0  0  0  0  0  0
    3.2026   18.9279   71.1496 C   0  0  0  0  0  0  0  0  0  0  0  0
    2.3325   19.1552   69.9053 C   0  0  0  0  0  0  0  0  0  0  0  0
    2.7280   20.4244   69.1266 C   0  0  0  0  0  0  0  0  0  0  0  0
    3.5997   21.2467   69.8630 O   0  0  0  0  0  0  0  0  0  0  0  0
    2.4172   18.0478   69.0620 O   0  0  0  0  0  0  0  0  0  0  0  0
    2.6691   19.6403   72.2241 O   0  0  0  0  0  0  0  0  0  0  0  0
    5.3975   18.2573   70.4516 O   0  0  0  0  0  0  0  0  0  0  0  0
    3.3332   17.9392   68.7619 H   0  0  0  0  0  0  0  0  0  0  0  0
    2.6829   20.5889   72.0219 H   0  0  0  0  0  0  0  0  0  0  0  0
    5.0404   17.9876   69.5910 H   0  0  0  0  0  0  0  0  0  0  0  0
    5.8780   21.3861   70.3518 O   0  0  0  0  0  0  0  0  0  0  0  0
    8.1159   20.4715   69.9537 C   0  0  0  0  0  0  0  0  0  0  0  0
    7.1208   20.9537   70.8421 C   0  0  0  0  0  0  0  0  0  0  0  0
    7.3966   20.9927   72.2203 C   0  0  0  0  0  0  0  0  0  0  0  0
    8.6274   20.5652   72.7177 C   0  0  0  0  0  0  0  0  0  0  0  0
    9.6050   20.0923   71.8420 C   0  0  0  0  0  0  0  0  0  0  0  0
    9.3454   20.0457   70.4705 C   0  0  0  0  0  0  0  0  0  0  0  0
    8.6667   21.1596   67.6104 C   0  0  0  0  0  0  0  0  0  0  0  0
    7.9472   20.3897   68.5632 O   0  0  0  0  0  0  0  0  0  0  0  0
   10.9182   19.6217   72.3726 C   0  0  0  0  0  0  0  0  0  0  0  0
   10.7321   18.5828   73.4339 C   0  0  0  0  0  0  0  0  0  0  0  0
   11.6628   17.6568   73.6539 C   0  0  0  0  0  0  0  0  0  0  0  0
    1.4892   21.2072   68.7176 C   0  0  0  0  0  0  0  0  0  0  0  0
    0.9258   21.8451   69.8271 O   0  0  0  0  0  0  0  0  0  0  0  0
   -0.4078   21.4344   69.8351 C   0  0  0  0  0  0  0  0  0  0  0  0
   -0.6625   20.5160   71.0416 C   0  0  0  0  0  0  0  0  0  0  0  0
   -2.0272   20.7737   71.6971 C   0  0  0  0  0  0  0  0  0  0  0  0
   -3.1034   21.2015   70.6892 C   0  0  0  0  0  0  0  0  0  0  0  0
   -2.5350   22.0770   69.5576 C   0  0  0  0  0  0  0  0  0  0  0  0
   -1.2501   22.5584   69.8665 O   0  0  0  0  0  0  0  0  0  0  0  0
   -3.7127   20.0727   70.1418 O   0  0  0  0  0  0  0  0  0  0  0  0
   -1.8925   21.7584   72.6765 O   0  0  0  0  0  0  0  0  0  0  0  0
   -0.5791   19.1842   70.6342 O   0  0  0  0  0  0  0  0  0  0  0  0
   -3.0520   19.5494   69.6618 H   0  0  0  0  0  0  0  0  0  0  0  0
   -1.6007   22.5866   72.2643 H   0  0  0  0  0  0  0  0  0  0  0  0
   -1.2631   19.0058   69.9700 H   0  0  0  0  0  0  0  0  0  0  0  0
   -3.4732   23.2342   69.2469 C   0  0  0  0  0  0  0  0  0  0  0  0
   -2.9055   24.0849   68.2957 O   0  0  0  0  0  0  0  0  0  0  0  0
   -2.0744   24.4469   68.6408 H   0  0  0  0  0  0  0  0  0  0  0  0
 20 21  1  0  0  0
 21 14  1  0  0  0
 14 15  2  0  0  0
 15 16  1  0  0  0
 15 13  1  0  0  0
 16 17  2  0  0  0
 17 18  1  0  0  0
 18 19  2  0  0  0
 18 22  1  0  0  0
 19 14  1  0  0  0
 22 23  1  0  0  0
 23 24  2  0  0  0
  1 13  1  0  0  0
  1  2  1  0  0  0
  2  3  1  0  0  0
  2  9  1  0  0  0
  3  4  1  0  0  0
  3  8  1  0  0  0
  4  5  1  0  0  0
  4  7  1  0  0  0
  5  6  1  0  0  0
  5 25  1  0  0  0
  6  1  1  0  0  0
 25 26  1  0  0  0
 27 26  1  0  0  0
 27 28  1  0  0  0
 28 29  1  0  0  0
 28 35  1  0  0  0
 29 30  1  0  0  0
 29 34  1  0  0  0
 30 31  1  0  0  0
 30 33  1  0  0  0
 31 32  1  0  0  0
 31 39  1  0  0  0
 32 27  1  0  0  0
 39 40  1  0  0  0
 40 41  1  0  0  0
 33 36  1  0  0  0
 34 37  1  0  0  0
 35 38  1  0  0  0
  7 10  1  0  0  0
  8 11  1  0  0  0
  9 12  1  0  0  0
M  END
>  <minimizedAffinity>
-8.35665

>  <minimizedRMSD>
3.28751

$$$$
MolPort-046-594-364 MCULE-2910238391 PubChem-59415717


 39 41  0  0  0  0  0  0  0  0999 V2000
    0.8144   20.9436   70.0048 C   0  0  0  0  0  0  0  0  0  0  0  0
    0.4351   19.5858   70.5956 C   0  0  0  0  0  0  0  0  0  0  0  0
    1.6586   18.6694   70.5909 C   0  0  0  0  0  0  0  0  0  0  0  0
    2.3903   18.6967   69.2432 C   0  0  0  0  0  0  0  0  0  0  0  0
    2.5041   20.1214   68.6710 C   0  0  0  0  0  0  0  0  0  0  0  0
    1.2648   20.8058   68.6738 O   0  0  0  0  0  0  0  0  0  0  0  0
    1.7263   17.8773   68.3302 O   0  0  0  0  0  0  0  0  0  0  0  0
    2.5328   19.0415   71.6130 O   0  0  0  0  0  0  0  0  0  0  0  0
   -0.6025   19.0056   69.8617 O   0  0  0  0  0  0  0  0  0  0  0  0
    0.8280   18.2143   68.1870 H   0  0  0  0  0  0  0  0  0  0  0  0
    2.8404   19.9488   71.4611 H   0  0  0  0  0  0  0  0  0  0  0  0
   -0.3147   18.8720   68.9450 H   0  0  0  0  0  0  0  0  0  0  0  0
   -0.2959   21.8322   70.0524 O   0  0  0  0  0  0  0  0  0  0  0  0
   -4.1806   23.4352   67.5165 C   0  0  0  0  0  0  0  0  0  0  0  0
   -2.7096   23.2763   67.6565 C   0  0  0  0  0  0  0  0  0  0  0  0
   -1.8558   23.7724   66.6666 C   0  0  0  0  0  0  0  0  0  0  0  0
   -0.4727   23.6210   66.7968 C   0  0  0  0  0  0  0  0  0  0  0  0
    0.0562   22.9740   67.9170 C   0  0  0  0  0  0  0  0  0  0  0  0
   -0.7969   22.4746   68.9159 C   0  0  0  0  0  0  0  0  0  0  0  0
   -2.1805   22.6301   68.7781 C   0  0  0  0  0  0  0  0  0  0  0  0
    0.3758   24.1148   65.8155 O   0  0  0  0  0  0  0  0  0  0  0  0
    0.0212   24.5486   65.0645 H   0  0  0  0  0  0  0  0  0  0  0  0
    3.6237   20.9424   69.3085 C   0  0  0  0  0  0  0  0  0  0  0  0
    4.7445   20.9586   68.4763 O   0  0  0  0  0  0  0  0  0  0  0  0
    5.8084   20.6354   69.3194 C   0  0  0  0  0  0  0  0  0  0  0  0
    6.8475   21.7567   69.3170 C   0  0  0  0  0  0  0  0  0  0  0  0
    7.9533   21.4268   70.3179 C   0  0  0  0  0  0  0  0  0  0  0  0
    8.4421   19.9784   70.1895 C   0  0  0  0  0  0  0  0  0  0  0  0
    7.3022   18.9829   69.9053 C   0  0  0  0  0  0  0  0  0  0  0  0
    6.3840   19.4130   68.9172 O   0  0  0  0  0  0  0  0  0  0  0  0
    9.3919   19.8952   69.1709 O   0  0  0  0  0  0  0  0  0  0  0  0
    7.5091   21.6706   71.6183 O   0  0  0  0  0  0  0  0  0  0  0  0
    7.3902   21.9167   68.0394 O   0  0  0  0  0  0  0  0  0  0  0  0
    8.9835   20.1436   68.3268 H   0  0  0  0  0  0  0  0  0  0  0  0
    6.7555   21.0927   71.8162 H   0  0  0  0  0  0  0  0  0  0  0  0
    7.8251   21.0934   67.7674 H   0  0  0  0  0  0  0  0  0  0  0  0
    6.6501   18.3609   71.1436 C   0  0  0  0  0  0  0  0  0  0  0  0
    5.6127   19.1555   71.6327 O   0  0  0  0  0  0  0  0  0  0  0  0
    5.9635   20.0222   71.8911 H   0  0  0  0  0  0  0  0  0  0  0  0
 14 15  1  0  0  0
 15 16  2  0  0  0
 16 17  1  0  0  0
 17 18  2  0  0  0
 17 21  1  0  0  0
 18 19  1  0  0  0
 19 20  2  0  0  0
 19 13  1  0  0  0
 20 15  1  0  0  0
  1 13  1  0  0  0
  1  2  1  0  0  0
  2  3  1  0  0  0
  2  9  1  0  0  0
  3  4  1  0  0  0
  3  8  1  0  0  0
  4  5  1  0  0  0
  4  7  1  0  0  0
  5  6  1  0  0  0
  5 23  1  0  0  0
  6  1  1  0  0  0
 23 24  1  0  0  0
 25 24  1  0  0  0
 25 26  1  0  0  0
 26 27  1  0  0  0
 26 33  1  0  0  0
 27 28  1  0  0  0
 27 32  1  0  0  0
 28 29  1  0  0  0
 28 31  1  0  0  0
 29 30  1  0  0  0
 29 37  1  0  0  0
 30 25  1  0  0  0
 37 38  1  0  0  0
 38 39  1  0  0  0
 31 34  1  0  0  0
 32 35  1  0  0  0
 33 36  1  0  0  0
  7 10  1  0  0  0
  8 11  1  0  0  0
  9 12  1  0  0  0
 21 22  1  0  0  0
M  END
>  <minimizedAffinity>
-8.34210

>  <minimizedRMSD>
3.57117

$$$$
MolPort-005-976-476 CHEMBL3213364 LN00518139


 30 31  0  0  0  0  0  0  0  0999 V2000
    2.9874   19.5650   71.1362 C   0  0  0  0  0  0  0  0  0  0  0  0
    2.1619   19.6218   72.0868 O   0  0  0  0  0  0  0  0  0  0  0  0
    2.5688   19.8340   69.7998 N   0  0  0  0  0  0  0  0  0  0  0  0
    3.2230   19.7778   69.0663 H   0  0  0  0  0  0  0  0  0  0  0  0
    1.2423   20.1765   69.5152 N   0  0  0  0  0  0  0  0  0  0  0  0
    0.9445   21.3905   69.1869 C   0  0  0  0  0  0  0  0  0  0  0  0
   -0.4348   21.7844   68.8816 C   0  0  0  0  0  0  0  0  0  0  0  0
   -0.7388   22.2586   67.6023 C   0  0  0  0  0  0  0  0  0  0  0  0
   -2.0457   22.6396   67.2849 C   0  0  0  0  0  0  0  0  0  0  0  0
   -3.0660   22.5376   68.2414 C   0  0  0  0  0  0  0  0  0  0  0  0
   -2.7545   22.0815   69.5300 C   0  0  0  0  0  0  0  0  0  0  0  0
   -1.4475   21.7014   69.8475 C   0  0  0  0  0  0  0  0  0  0  0  0
   -4.4583   22.9958   67.9168 C   0  0  0  0  0  0  0  0  0  0  0  0
   -5.2409   21.9236   67.5239 F   0  0  0  0  0  0  0  0  0  0  0  0
   -4.4073   23.9184   66.8884 F   0  0  0  0  0  0  0  0  0  0  0  0
   -5.0425   23.5854   69.0247 F   0  0  0  0  0  0  0  0  0  0  0  0
    4.4099   19.2043   71.4025 C   0  0  0  0  0  0  0  0  0  0  0  0
    5.3511   20.2664   70.8590 C   0  0  0  0  0  0  0  0  0  0  0  0
    6.1414   19.7196   69.7656 N   0  0  0  0  0  0  0  0  0  0  0  0
    5.8454   18.8647   69.3773 H   0  0  0  0  0  0  0  0  0  0  0  0
   10.5706   22.1375   67.4366 O   0  0  0  0  0  0  0  0  0  0  0  0
    9.4826   21.5240   68.0417 C   0  0  0  0  0  0  0  0  0  0  0  0
    8.2549   21.5953   67.4696 N   0  0  0  0  0  0  0  0  0  0  0  0
    7.2019   21.0100   68.0408 N   0  0  0  0  0  0  0  0  0  0  0  0
    7.3158   20.3244   69.2081 C   0  0  0  0  0  0  0  0  0  0  0  0
    8.5866   20.2444   69.8086 C   0  0  0  0  0  0  0  0  0  0  0  0
    8.7900   19.5631   71.0020 O   0  0  0  0  0  0  0  0  0  0  0  0
    9.6418   20.8493   69.2066 N   0  0  0  0  0  0  0  0  0  0  0  0
   10.4578   22.6032   66.6314 H   0  0  0  0  0  0  0  0  0  0  0  0
    8.0707   19.1407   71.4288 H   0  0  0  0  0  0  0  0  0  0  0  0
 21 22  1  0  0  0
 22 23  2  0  0  0
 23 24  1  0  0  0
 24 25  2  0  0  0
 25 19  1  0  0  0
 25 26  1  0  0  0
 19 18  1  0  0  0
 18 17  1  0  0  0
 17  1  1  0  0  0
  1  2  2  0  0  0
  1  3  1  0  0  0
  3  5  1  0  0  0
  5  6  2  0  0  0
  6  7  1  0  0  0
  7  8  2  0  0  0
  8  9  1  0  0  0
  9 10  2  0  0  0
 10 11  1  0  0  0
 10 13  1  0  0  0
 11 12  2  0  0  0
 12  7  1  0  0  0
 13 14  1  0  0  0
 13 15  1  0  0  0
 13 16  1  0  0  0
 26 27  1  0  0  0
 26 28  2  0  0  0
 28 22  1  0  0  0
 21 29  1  0  0  0
 19 20  1  0  0  0
  3  4  1  0  0  0
 27 30  1  0  0  0
M  END
>  <minimizedAffinity>
-8.29703

>  <minimizedRMSD>
4.62644

$$$$
MolPort-002-535-616 MolPort-002-911-506 MolPort-009-758-640 CSSS00020617912 CSSS00160522142 LN00342766 LN01746258 MCULE-2238824311 MCULE-6232746752 PubChem-439559 PubChem-52994241


 31 32  0  0  0  0  0  0  0  0999 V2000
   -1.3051   21.0525   69.6654 O   0  0  0  0  0  0  0  0  0  0  0  0
   -3.4919   22.5225   68.5336 C   0  0  0  0  0  0  0  0  0  0  0  0
   -2.5981   22.9736   69.5228 O   0  0  0  0  0  0  0  0  0  0  0  0
   -2.2329   21.8674   70.3288 C   0  0  0  0  0  0  0  0  0  0  0  0
   -3.4424   21.0622   70.8753 C   0  0  0  0  0  0  0  0  0  0  0  0
   -3.4837   19.7764   70.3288 O   0  0  0  0  0  0  0  0  0  0  0  0
   -4.7691   21.7775   70.5979 C   0  0  0  0  0  0  0  0  0  0  0  0
   -4.9066   22.8641   71.4624 O   0  0  0  0  0  0  0  0  0  0  0  0
   -4.8723   22.2607   69.1451 C   0  0  0  0  0  0  0  0  0  0  0  0
   -5.5477   21.3089   68.3811 O   0  0  0  0  0  0  0  0  0  0  0  0
   -3.6043   19.8371   69.3683 H   0  0  0  0  0  0  0  0  0  0  0  0
   -4.1879   23.4961   71.3043 H   0  0  0  0  0  0  0  0  0  0  0  0
   -5.0498   20.4765   68.3876 H   0  0  0  0  0  0  0  0  0  0  0  0
   -2.6288   24.5373   67.5975 O   0  0  0  0  0  0  0  0  0  0  0  0
   -3.6022   23.5531   67.4256 C   0  0  0  0  0  0  0  0  0  0  0  0
   -2.7035   25.1935   66.8871 H   0  0  0  0  0  0  0  0  0  0  0  0
   -0.1869   21.8651   69.4602 C   0  0  0  0  0  0  0  0  0  0  0  0
    0.8507   21.1252   68.6312 C   0  0  0  0  0  0  0  0  0  0  0  0
    2.1311   21.3404   69.1765 O   0  0  0  0  0  0  0  0  0  0  0  0
    2.8295   20.1292   69.0408 C   0  0  0  0  0  0  0  0  0  0  0  0
    3.4580   20.1024   67.7914 O   0  0  0  0  0  0  0  0  0  0  0  0
    1.8103   18.9967   69.1139 C   0  0  0  0  0  0  0  0  0  0  0  0
    1.5978   18.5853   70.4334 O   0  0  0  0  0  0  0  0  0  0  0  0
    0.5519   19.6376   68.6112 C   0  0  0  0  0  0  0  0  0  0  0  0
    0.3125   19.2323   67.2984 O   0  0  0  0  0  0  0  0  0  0  0  0
    4.1072   20.8212   67.7406 H   0  0  0  0  0  0  0  0  0  0  0  0
    1.3074   19.3426   70.9654 H   0  0  0  0  0  0  0  0  0  0  0  0
    1.0772   19.4577   66.7458 H   0  0  0  0  0  0  0  0  0  0  0  0
    3.8975   20.0405   70.1308 C   0  0  0  0  0  0  0  0  0  0  0  0
    4.5082   18.7843   70.1234 O   0  0  0  0  0  0  0  0  0  0  0  0
    3.8419   18.0999   70.2921 H   0  0  0  0  0  0  0  0  0  0  0  0
 14 15  1  0  0  0
  2 15  1  0  0  0
  2  3  1  0  0  0
  3  4  1  0  0  0
  4  1  1  0  0  0
  4  5  1  0  0  0
  1 17  1  0  0  0
 18 17  1  0  0  0
 18 19  1  0  0  0
 19 20  1  0  0  0
 20 21  1  0  0  0
 20 29  1  0  0  0
 20 22  1  0  0  0
 29 30  1  0  0  0
 22 23  1  0  0  0
 22 24  1  0  0  0
 24 25  1  0  0  0
 24 18  1  0  0  0
  5  6  1  0  0  0
  5  7  1  0  0  0
  7  8  1  0  0  0
  7  9  1  0  0  0
  9 10  1  0  0  0
  9  2  1  0  0  0
 14 16  1  0  0  0
 21 26  1  0  0  0
 30 31  1  0  0  0
 23 27  1  0  0  0
 25 28  1  0  0  0
  6 11  1  0  0  0
  8 12  1  0  0  0
 10 13  1  0  0  0
M  END
>  <minimizedAffinity>
-8.29254

>  <minimizedRMSD>
2.67159

$$$$
MolPort-039-144-881 CSSS00102649497 LN03249993 MCULE-5349590494 MCULE-6389077711 PubChem-91873341


 36 38  0  0  0  0  0  0  0  0999 V2000
    2.6615   20.0830   69.4955 C   0  0  0  0  0  0  0  0  0  0  0  0
    1.9338   21.4040   69.7942 C   0  0  0  0  0  0  0  0  0  0  0  0
    0.5443   21.2145   69.8702 O   0  0  0  0  0  0  0  0  0  0  0  0
    0.1282   20.9577   68.5531 C   0  0  0  0  0  0  0  0  0  0  0  0
    0.5831   19.5654   68.0887 C   0  0  0  0  0  0  0  0  0  0  0  0
    1.7148   18.9979   68.9569 C   0  0  0  0  0  0  0  0  0  0  0  0
    1.1676   18.2885   70.0262 O   0  0  0  0  0  0  0  0  0  0  0  0
    0.9973   19.6328   66.7588 O   0  0  0  0  0  0  0  0  0  0  0  0
    0.6442   18.8896   70.5790 H   0  0  0  0  0  0  0  0  0  0  0  0
    1.7540   20.2353   66.6860 H   0  0  0  0  0  0  0  0  0  0  0  0
    3.6870   20.3163   68.5760 O   0  0  0  0  0  0  0  0  0  0  0  0
    6.2838   20.6768   70.8617 C   0  0  0  0  0  0  0  0  0  0  0  0
    7.5672   20.3097   70.1022 C   0  0  0  0  0  0  0  0  0  0  0  0
    7.3299   20.1216   68.5962 C   0  0  0  0  0  0  0  0  0  0  0  0
    5.9416   19.5515   68.2712 C   0  0  0  0  0  0  0  0  0  0  0  0
    4.8652   20.0183   69.2642 C   0  0  0  0  0  0  0  0  0  0  0  0
    5.2925   21.1462   69.9848 O   0  0  0  0  0  0  0  0  0  0  0  0
    5.9930   18.1580   68.2647 O   0  0  0  0  0  0  0  0  0  0  0  0
    7.4909   21.3454   67.9461 O   0  0  0  0  0  0  0  0  0  0  0  0
    8.1083   19.1446   70.6442 O   0  0  0  0  0  0  0  0  0  0  0  0
    6.2411   17.8394   69.1466 H   0  0  0  0  0  0  0  0  0  0  0  0
    6.8291   21.9747   68.2730 H   0  0  0  0  0  0  0  0  0  0  0  0
    7.4781   18.4151   70.5367 H   0  0  0  0  0  0  0  0  0  0  0  0
   -1.2629   21.0509   68.4707 O   0  0  0  0  0  0  0  0  0  0  0  0
   -1.5310   22.4204   68.4080 C   0  0  0  0  0  0  0  0  0  0  0  0
   -1.9482   22.9233   69.7990 C   0  0  0  0  0  0  0  0  0  0  0  0
   -2.9934   23.8570   69.7081 O   0  0  0  0  0  0  0  0  0  0  0  0
   -4.1291   23.1158   69.3417 C   0  0  0  0  0  0  0  0  0  0  0  0
   -4.0324   22.6244   67.8894 C   0  0  0  0  0  0  0  0  0  0  0  0
   -2.6009   22.6947   67.3386 C   0  0  0  0  0  0  0  0  0  0  0  0
   -2.3817   23.9521   66.7757 O   0  0  0  0  0  0  0  0  0  0  0  0
   -4.5035   21.3143   67.8111 O   0  0  0  0  0  0  0  0  0  0  0  0
   -5.2713   23.9003   69.4959 O   0  0  0  0  0  0  0  0  0  0  0  0
   -2.4678   24.6328   67.4615 H   0  0  0  0  0  0  0  0  0  0  0  0
   -3.9489   20.7379   68.3598 H   0  0  0  0  0  0  0  0  0  0  0  0
   -5.2125   24.6748   68.9149 H   0  0  0  0  0  0  0  0  0  0  0  0
 12 13  1  0  0  0
 13 14  1  0  0  0
 14 15  1  0  0  0
 15 16  1  0  0  0
 16 17  1  0  0  0
 16 11  1  0  0  0
 11  1  1  0  0  0
  1  2  1  0  0  0
  2  3  1  0  0  0
  3  4  1  0  0  0
  4  5  1  0  0  0
  5  6  1  0  0  0
  6  7  1  0  0  0
  5  8  1  0  0  0
  4 24  1  0  0  0
 25 24  1  0  0  0
 25 26  1  0  0  0
 26 27  1  0  0  0
 27 28  1  0  0  0
 28 29  1  0  0  0
 29 30  1  0  0  0
 30 31  1  0  0  0
 29 32  1  0  0  0
 28 33  1  0  0  0
 15 18  1  0  0  0
 14 19  1  0  0  0
 13 20  1  0  0  0
 17 12  1  0  0  0
  6  1  1  0  0  0
 30 25  1  0  0  0
  7  9  1  0  0  0
  8 10  1  0  0  0
 31 34  1  0  0  0
 32 35  1  0  0  0
 33 36  1  0  0  0
 18 21  1  0  0  0
 19 22  1  0  0  0
 20 23  1  0  0  0
M  END
>  <minimizedAffinity>
-8.28261

>  <minimizedRMSD>
2.25685

$$$$
MolPort-005-949-864 12603786 CSSS00159290599 MCULE-9692866813 PubChem-25390337 ZINC000012603786 ZINC12603786


 32 34  0  0  0  0  0  0  0  0999 V2000
    1.7539   20.0060   68.9211 C   0  0  0  0  0  0  0  0  0  0  0  0
    3.0473   20.5335   68.7788 O   0  0  0  0  0  0  0  0  0  0  0  0
    3.8216   19.8978   69.7617 C   0  0  0  0  0  0  0  0  0  0  0  0
    2.9387   19.6274   70.9540 C   0  0  0  0  0  0  0  0  0  0  0  0
    3.2854   18.4045   71.5357 O   0  0  0  0  0  0  0  0  0  0  0  0
    1.5457   19.6111   70.3696 C   0  0  0  0  0  0  0  0  0  0  0  0
    0.9672   18.3399   70.4264 O   0  0  0  0  0  0  0  0  0  0  0  0
    3.2220   17.7008   70.8711 H   0  0  0  0  0  0  0  0  0  0  0  0
    1.5281   17.7079   69.9500 H   0  0  0  0  0  0  0  0  0  0  0  0
    0.7301   21.0443   68.4874 C   0  0  0  0  0  0  0  0  0  0  0  0
   -2.7656   20.9707   70.0307 N   0  0  0  0  0  0  0  0  0  0  0  0
   -1.4947   21.4855   69.6142 C   0  0  0  0  0  0  0  0  0  0  0  0
   -1.1575   22.6713   69.8796 O   0  0  0  0  0  0  0  0  0  0  0  0
   -0.6102   20.6350   68.8833 N   0  0  0  0  0  0  0  0  0  0  0  0
   -2.9703   20.0426   69.7737 H   0  0  0  0  0  0  0  0  0  0  0  0
   -0.9198   19.7336   68.6366 H   0  0  0  0  0  0  0  0  0  0  0  0
   -6.8632   23.7089   72.9457 C   0  0  0  0  0  0  0  0  0  0  0  0
   -5.7913   23.0022   72.1973 C   0  0  0  0  0  0  0  0  0  0  0  0
   -6.0688   22.4293   70.9532 C   0  0  0  0  0  0  0  0  0  0  0  0
   -5.0613   21.7625   70.2494 C   0  0  0  0  0  0  0  0  0  0  0  0
   -3.7707   21.6649   70.7823 C   0  0  0  0  0  0  0  0  0  0  0  0
   -3.4990   22.2420   72.0328 C   0  0  0  0  0  0  0  0  0  0  0  0
   -4.5058   22.9085   72.7377 C   0  0  0  0  0  0  0  0  0  0  0  0
    4.9845   20.7877   70.1717 C   0  0  0  0  0  0  0  0  0  0  0  0
    5.9351   20.9808   69.0322 C   0  0  0  0  0  0  0  0  0  0  0  0
    5.5110   21.5339   67.9825 O   0  0  0  0  0  0  0  0  0  0  0  0
    7.3105   20.5754   69.1268 N   0  0  0  0  0  0  0  0  0  0  0  0
    7.8233   19.9411   70.3431 C   0  0  0  0  0  0  0  0  0  0  0  0
    9.3092   20.2618   70.4996 C   0  0  0  0  0  0  0  0  0  0  0  0
    9.9973   19.9196   69.3229 O   0  0  0  0  0  0  0  0  0  0  0  0
    9.6116   20.8602   68.3522 C   0  0  0  0  0  0  0  0  0  0  0  0
    8.1615   20.6132   67.9367 C   0  0  0  0  0  0  0  0  0  0  0  0
 17 18  1  0  0  0
 18 19  2  0  0  0
 19 20  1  0  0  0
 20 21  2  0  0  0
 21 11  1  0  0  0
 21 22  1  0  0  0
 11 12  1  0  0  0
 12 13  2  0  0  0
 12 14  1  0  0  0
 14 10  1  0  0  0
  1 10  1  0  0  0
  1  2  1  0  0  0
  2  3  1  0  0  0
  3 24  1  0  0  0
  3  4  1  0  0  0
 24 25  1  0  0  0
 25 26  2  0  0  0
 25 27  1  0  0  0
 27 28  1  0  0  0
 28 29  1  0  0  0
 29 30  1  0  0  0
 30 31  1  0  0  0
 31 32  1  0  0  0
 32 27  1  0  0  0
  4  5  1  0  0  0
  4  6  1  0  0  0
  6  7  1  0  0  0
  6  1  1  0  0  0
 22 23  2  0  0  0
 23 18  1  0  0  0
 11 15  1  0  0  0
 14 16  1  0  0  0
  5  8  1  0  0  0
  7  9  1  0  0  0
M  END
>  <minimizedAffinity>
-8.26838

>  <minimizedRMSD>
2.40810

$$$$
Molport-053-192-562 PubChem-160471789 PubChem-89518927


 37 38  0  0  0  0  0  0  0  0999 V2000
    0.4134   20.9998   69.3612 C   0  0  0  0  0  0  0  0  0  0  0  0
    0.5941   19.7511   68.5153 C   0  0  0  0  0  0  0  0  0  0  0  0
    1.9951   19.3420   68.8509 C   0  0  0  0  0  0  0  0  0  0  0  0
    2.6101   20.5804   69.4829 C   0  0  0  0  0  0  0  0  0  0  0  0
    1.6615   21.6198   69.5248 O   0  0  0  0  0  0  0  0  0  0  0  0
    1.9678   18.3101   69.7888 O   0  0  0  0  0  0  0  0  0  0  0  0
    0.5323   20.0501   67.1511 O   0  0  0  0  0  0  0  0  0  0  0  0
    1.4780   18.6000   70.5742 H   0  0  0  0  0  0  0  0  0  0  0  0
    1.1993   20.7209   66.9365 H   0  0  0  0  0  0  0  0  0  0  0  0
   -1.1761   24.0703   65.8330 C   0  0  0  0  0  0  0  0  0  0  0  0
   -1.4027   23.4330   67.1207 N   0  0  0  0  0  0  0  0  0  0  0  0
   -0.4521   22.5896   67.6007 C   0  0  0  0  0  0  0  0  0  0  0  0
   -0.6228   21.9558   68.8352 C   0  0  0  0  0  0  0  0  0  0  0  0
   -1.8026   22.2078   69.5460 C   0  0  0  0  0  0  0  0  0  0  0  0
   -2.0131   21.6547   70.6581 O   0  0  0  0  0  0  0  0  0  0  0  0
   -2.7304   23.0569   69.0338 N   0  0  0  0  0  0  0  0  0  0  0  0
   -2.5421   23.6692   67.8356 C   0  0  0  0  0  0  0  0  0  0  0  0
   -3.4271   24.4513   67.3947 O   0  0  0  0  0  0  0  0  0  0  0  0
   -3.5559   23.2323   69.5408 H   0  0  0  0  0  0  0  0  0  0  0  0
    3.8416   21.0251   68.7053 C   0  0  0  0  0  0  0  0  0  0  0  0
    4.5024   19.9211   68.1555 O   0  0  0  0  0  0  0  0  0  0  0  0
    5.8884   19.6979   69.1068 P   0  0  0  0  0  0  0  0  0  0  0  0
    5.5752   18.7222   70.2204 O   0  0  0  0  0  0  0  0  0  0  0  0
    7.1033   19.0494   68.1226 O   0  0  0  0  0  0  0  0  0  0  0  0
    6.8088   18.1975   67.7644 H   0  0  0  0  0  0  0  0  0  0  0  0
    6.3698   21.1986   69.7563 O   0  0  0  0  0  0  0  0  0  0  0  0
    7.6569   20.9159   70.8350 P   0  0  0  0  0  0  0  0  0  0  0  0
    8.6410   19.9571   70.2006 O   0  0  0  0  0  0  0  0  0  0  0  0
    7.0763   20.2639   72.2870 O   0  0  0  0  0  0  0  0  0  0  0  0
    6.6449   19.4134   72.1098 H   0  0  0  0  0  0  0  0  0  0  0  0
    8.4185   22.4115   71.1269 O   0  0  0  0  0  0  0  0  0  0  0  0
    8.4984   22.6430   72.8128 P   0  0  0  0  0  0  0  0  0  0  0  0
    9.2513   21.5108   73.4753 O   0  0  0  0  0  0  0  0  0  0  0  0
    6.9456   22.7583   73.4750 O   0  0  0  0  0  0  0  0  0  0  0  0
    9.3199   24.0892   73.1165 O   0  0  0  0  0  0  0  0  0  0  0  0
    6.4611   21.9346   73.3085 H   0  0  0  0  0  0  0  0  0  0  0  0
   10.2133   24.0383   72.7422 H   0  0  0  0  0  0  0  0  0  0  0  0
 10 11  1  0  0  0
 11 12  1  0  0  0
 12 13  2  0  0  0
 13 14  1  0  0  0
 14 15  2  0  0  0
 14 16  1  0  0  0
 16 17  1  0  0  0
 17 18  2  0  0  0
 17 11  1  0  0  0
  1 13  1  0  0  0
  1  2  1  0  0  0
  2  3  1  0  0  0
  2  7  1  0  0  0
  3  4  1  0  0  0
  3  6  1  0  0  0
  4  5  1  0  0  0
  4 20  1  0  0  0
  5  1  1  0  0  0
 20 21  1  0  0  0
 22 21  1  0  0  0
 22 23  2  0  0  0
 22 24  1  0  0  0
 22 26  1  0  0  0
 27 26  1  0  0  0
 27 28  2  0  0  0
 27 29  1  0  0  0
 27 31  1  0  0  0
 31 32  1  0  0  0
 32 33  2  0  0  0
 32 34  1  0  0  0
 32 35  1  0  0  0
 16 19  1  0  0  0
 24 25  1  0  0  0
 29 30  1  0  0  0
 34 36  1  0  0  0
 35 37  1  0  0  0
  6  8  1  0  0  0
  7  9  1  0  0  0
M  END
>  <minimizedAffinity>
-8.26616

>  <minimizedRMSD>
3.66091

$$$$
Molport-051-854-470 MCULE-1997401149 MCULE-4460375793 PubChem-198273 ZINC000031545286


 32 33  0  0  0  0  0  0  0  0999 V2000
    5.8892   18.7946   69.8366 C   0  0  0  0  0  0  0  0  0  0  0  0
    6.0744   20.2026   69.2337 C   0  0  0  0  0  0  0  0  0  0  0  0
    4.9500   20.5394   68.2508 C   0  0  0  0  0  0  0  0  0  0  0  0
    3.5648   20.2831   68.8538 C   0  0  0  0  0  0  0  0  0  0  0  0
    3.6418   19.2503   69.9884 C   0  0  0  0  0  0  0  0  0  0  0  0
    4.5865   18.2537   69.6771 O   0  0  0  0  0  0  0  0  0  0  0  0
    2.7052   19.8437   67.8447 O   0  0  0  0  0  0  0  0  0  0  0  0
    5.0449   21.8727   67.8507 O   0  0  0  0  0  0  0  0  0  0  0  0
    7.3612   20.2786   68.5638 N   0  0  0  0  0  0  0  0  0  0  0  0
    3.0468   19.0189   67.4654 H   0  0  0  0  0  0  0  0  0  0  0  0
    4.9399   22.4502   68.6229 H   0  0  0  0  0  0  0  0  0  0  0  0
    7.3910   19.5961   67.8064 H   0  0  0  0  0  0  0  0  0  0  0  0
    8.1049   20.0775   69.2322 H   0  0  0  0  0  0  0  0  0  0  0  0
    6.3301   18.7665   71.2936 C   0  0  0  0  0  0  0  0  0  0  0  0
    7.0381   17.5929   71.5523 O   0  0  0  0  0  0  0  0  0  0  0  0
    7.8222   17.5560   70.9824 H   0  0  0  0  0  0  0  0  0  0  0  0
    2.3939   18.6714   70.2345 O   0  0  0  0  0  0  0  0  0  0  0  0
    1.7517   19.5595   71.1077 C   0  0  0  0  0  0  0  0  0  0  0  0
    0.7808   18.8399   72.0816 C   0  0  0  0  0  0  0  0  0  0  0  0
   -0.5454   19.5947   72.2132 C   0  0  0  0  0  0  0  0  0  0  0  0
   -1.1225   19.9841   70.8464 C   0  0  0  0  0  0  0  0  0  0  0  0
   -0.0211   20.1644   69.7908 C   0  0  0  0  0  0  0  0  0  0  0  0
    1.1623   20.6302   70.3930 O   0  0  0  0  0  0  0  0  0  0  0  0
   -2.0203   19.0038   70.4231 O   0  0  0  0  0  0  0  0  0  0  0  0
   -0.3592   20.7414   72.9864 O   0  0  0  0  0  0  0  0  0  0  0  0
    0.5320   17.5273   71.6710 O   0  0  0  0  0  0  0  0  0  0  0  0
   -1.5542   18.1587   70.3257 H   0  0  0  0  0  0  0  0  0  0  0  0
    0.2766   21.3277   72.5472 H   0  0  0  0  0  0  0  0  0  0  0  0
    0.0973   17.5367   70.8038 H   0  0  0  0  0  0  0  0  0  0  0  0
   -0.4632   21.1479   68.7212 C   0  0  0  0  0  0  0  0  0  0  0  0
   -0.2548   20.6036   67.4537 O   0  0  0  0  0  0  0  0  0  0  0  0
    0.6889   20.4129   67.3349 H   0  0  0  0  0  0  0  0  0  0  0  0
 14 15  1  0  0  0
  1 14  1  0  0  0
  1  2  1  0  0  0
  2  3  1  0  0  0
  2  9  1  0  0  0
  3  4  1  0  0  0
  3  8  1  0  0  0
  4  5  1  0  0  0
  4  7  1  0  0  0
  5  6  1  0  0  0
  5 17  1  0  0  0
  6  1  1  0  0  0
 18 17  1  0  0  0
 18 19  1  0  0  0
 19 20  1  0  0  0
 19 26  1  0  0  0
 20 21  1  0  0  0
 20 25  1  0  0  0
 21 22  1  0  0  0
 21 24  1  0  0  0
 22 23  1  0  0  0
 22 30  1  0  0  0
 23 18  1  0  0  0
 30 31  1  0  0  0
 31 32  1  0  0  0
 24 27  1  0  0  0
 25 28  1  0  0  0
 26 29  1  0  0  0
  7 10  1  0  0  0
  8 11  1  0  0  0
  9 12  1  0  0  0
  9 13  1  0  0  0
 15 16  1  0  0  0
M  END
>  <minimizedAffinity>
-8.20887

>  <minimizedRMSD>
3.47999

$$$$
MolPort-000-859-424 CSSS00132826519 LN00817766 MCULE-4284293152


 35 38  0  0  0  0  0  0  0  0999 V2000
    1.4515   19.7884   71.1503 C   0  0  0  0  0  0  0  0  0  0  0  0
    1.4542   19.5802   72.3956 O   0  0  0  0  0  0  0  0  0  0  0  0
    2.5170   19.2704   70.3431 N   0  0  0  0  0  0  0  0  0  0  0  0
    2.4595   19.3729   69.3656 H   0  0  0  0  0  0  0  0  0  0  0  0
   -1.9442   21.2776   70.6102 N   0  0  0  0  0  0  0  0  0  0  0  0
   -0.8921   20.5971   71.1405 C   0  0  0  0  0  0  0  0  0  0  0  0
    0.3608   20.5689   70.5145 C   0  0  0  0  0  0  0  0  0  0  0  0
    0.5306   21.2814   69.3091 C   0  0  0  0  0  0  0  0  0  0  0  0
    1.6490   21.2913   68.7216 O   0  0  0  0  0  0  0  0  0  0  0  0
   -0.5508   21.9924   68.7622 C   0  0  0  0  0  0  0  0  0  0  0  0
   -0.3992   22.7207   67.5614 C   0  0  0  0  0  0  0  0  0  0  0  0
   -1.5045   23.4075   67.0712 C   0  0  0  0  0  0  0  0  0  0  0  0
   -2.7038   23.3931   67.7047 C   0  0  0  0  0  0  0  0  0  0  0  0
   -3.6091   24.1601   66.9961 O   0  0  0  0  0  0  0  0  0  0  0  0
   -2.9309   24.7020   65.8523 C   0  0  0  0  0  0  0  0  0  0  0  0
   -1.5923   24.1885   65.9355 O   0  0  0  0  0  0  0  0  0  0  0  0
   -2.9035   22.6968   68.8931 C   0  0  0  0  0  0  0  0  0  0  0  0
   -1.8125   21.9764   69.4374 C   0  0  0  0  0  0  0  0  0  0  0  0
   -4.3030   20.6202   70.5510 C   0  0  0  0  0  0  0  0  0  0  0  0
   -3.1932   21.2614   71.3677 C   0  0  0  0  0  0  0  0  0  0  0  0
    3.6818   18.5986   70.9057 C   0  0  0  0  0  0  0  0  0  0  0  0
    4.8803   18.8743   70.0656 C   0  0  0  0  0  0  0  0  0  0  0  0
    5.0944   18.1680   69.0441 O   0  0  0  0  0  0  0  0  0  0  0  0
    5.7632   19.9433   70.4302 N   0  0  0  0  0  0  0  0  0  0  0  0
    5.6103   20.3690   71.3046 H   0  0  0  0  0  0  0  0  0  0  0  0
    6.8494   20.4517   69.6409 C   0  0  0  0  0  0  0  0  0  0  0  0
    6.6389   21.2611   68.5185 C   0  0  0  0  0  0  0  0  0  0  0  0
    7.6949   21.7263   67.8035 N   0  0  0  0  0  0  0  0  0  0  0  0
    8.9674   21.4146   68.1615 C   0  0  0  0  0  0  0  0  0  0  0  0
   10.0324   21.8897   67.4112 O   0  0  0  0  0  0  0  0  0  0  0  0
    9.1983   20.6425   69.2562 N   0  0  0  0  0  0  0  0  0  0  0  0
    8.1690   20.1558   69.9980 C   0  0  0  0  0  0  0  0  0  0  0  0
    8.4358   19.3581   71.1047 O   0  0  0  0  0  0  0  0  0  0  0  0
    9.8733   22.4220   66.6566 H   0  0  0  0  0  0  0  0  0  0  0  0
    9.3218   19.1633   71.3391 H   0  0  0  0  0  0  0  0  0  0  0  0
 19 20  1  0  0  0
 20  5  1  0  0  0
  5  6  1  0  0  0
  6  7  2  0  0  0
  7  1  1  0  0  0
  7  8  1  0  0  0
  1  2  2  0  0  0
  1  3  1  0  0  0
  3 21  1  0  0  0
 21 22  1  0  0  0
 22 23  2  0  0  0
 22 24  1  0  0  0
 24 26  1  0  0  0
 26 27  2  0  0  0
 27 28  1  0  0  0
 28 29  2  0  0  0
 29 30  1  0  0  0
 29 31  1  0  0  0
 31 32  2  0  0  0
 32 33  1  0  0  0
 32 26  1  0  0  0
  8  9  2  0  0  0
  8 10  1  0  0  0
 10 11  2  0  0  0
 11 12  1  0  0  0
 12 13  2  0  0  0
 13 14  1  0  0  0
 13 17  1  0  0  0
 14 15  1  0  0  0
 15 16  1  0  0  0
 16 12  1  0  0  0
 17 18  2  0  0  0
 18  5  1  0  0  0
 18 10  1  0  0  0
  3  4  1  0  0  0
 24 25  1  0  0  0
 30 34  1  0  0  0
 33 35  1  0  0  0
M  END
>  <minimizedAffinity>
-8.20636

>  <minimizedRMSD>
4.97078

$$$$
MolPort-035-783-926 LN04687523


 37 36  0  0  0  0  0  0  0  0999 V2000
    4.1164   24.1183   65.7224 Mn  0  0  0  0  0  0  0  0  0  0  0  0
    5.0931   21.6182   68.1886 O   0  0  0  0  0  0  0  0  0  0  0  0
    6.3460   21.1564   68.5777 C   0  0  0  0  0  0  0  0  0  0  0  0
    7.3638   21.5122   67.9272 O   0  0  0  0  0  0  0  0  0  0  0  0
    6.5068   20.2559   69.7656 C   0  0  0  0  0  0  0  0  0  0  0  0
    6.2242   18.9348   69.4090 O   0  0  0  0  0  0  0  0  0  0  0  0
    5.2997   18.8677   69.1234 H   0  0  0  0  0  0  0  0  0  0  0  0
    5.6504   20.6892   70.9595 C   0  0  0  0  0  0  0  0  0  0  0  0
    4.3527   20.1830   70.8277 O   0  0  0  0  0  0  0  0  0  0  0  0
    4.3830   19.2135   70.8201 H   0  0  0  0  0  0  0  0  0  0  0  0
    6.2700   20.2384   72.2912 C   0  0  0  0  0  0  0  0  0  0  0  0
    5.8511   18.9431   72.6009 O   0  0  0  0  0  0  0  0  0  0  0  0
    4.8884   18.9344   72.7197 H   0  0  0  0  0  0  0  0  0  0  0  0
    5.9192   21.1609   73.4621 C   0  0  0  0  0  0  0  0  0  0  0  0
    4.6234   21.6681   73.3320 O   0  0  0  0  0  0  0  0  0  0  0  0
    4.5665   22.2077   72.5279 H   0  0  0  0  0  0  0  0  0  0  0  0
    6.4631   23.2169   74.5473 O   0  0  0  0  0  0  0  0  0  0  0  0
    6.9235   22.2924   73.6103 C   0  0  0  0  0  0  0  0  0  0  0  0
    7.1085   23.9355   74.6366 H   0  0  0  0  0  0  0  0  0  0  0  0
    2.2520   21.5212   69.6377 O   0  0  0  0  0  0  0  0  0  0  0  0
    1.8654   20.4398   68.8594 C   0  0  0  0  0  0  0  0  0  0  0  0
    2.7313   19.8013   68.2052 O   0  0  0  0  0  0  0  0  0  0  0  0
    0.4169   20.0679   68.7727 C   0  0  0  0  0  0  0  0  0  0  0  0
    0.0650   19.7480   67.4605 O   0  0  0  0  0  0  0  0  0  0  0  0
    0.1783   20.5286   66.8959 H   0  0  0  0  0  0  0  0  0  0  0  0
   -0.5161   21.1413   69.3492 C   0  0  0  0  0  0  0  0  0  0  0  0
   -0.3475   21.2066   70.7337 O   0  0  0  0  0  0  0  0  0  0  0  0
    0.5626   21.4744   70.9363 H   0  0  0  0  0  0  0  0  0  0  0  0
   -0.3204   22.5319   68.7246 C   0  0  0  0  0  0  0  0  0  0  0  0
   -0.7961   23.5294   69.5810 O   0  0  0  0  0  0  0  0  0  0  0  0
   -1.7503   23.4149   69.7122 H   0  0  0  0  0  0  0  0  0  0  0  0
   -0.9732   22.6498   67.3431 C   0  0  0  0  0  0  0  0  0  0  0  0
   -0.1853   23.4317   66.4957 O   0  0  0  0  0  0  0  0  0  0  0  0
   -0.1287   24.3338   66.8477 H   0  0  0  0  0  0  0  0  0  0  0  0
   -2.4068   23.1802   67.3864 C   0  0  0  0  0  0  0  0  0  0  0  0
   -2.4254   24.5762   67.3494 O   0  0  0  0  0  0  0  0  0  0  0  0
   -1.9509   24.9265   68.1195 H   0  0  0  0  0  0  0  0  0  0  0  0
 17 18  1  0  0  0
 14 18  1  0  0  0
 14 15  1  0  0  0
 14 11  1  0  0  0
 11 12  1  0  0  0
 11  8  1  0  0  0
  8  9  1  0  0  0
  8  5  1  0  0  0
  5  6  1  0  0  0
  5  3  1  0  0  0
  3  4  2  0  0  0
  3  2  1  0  0  0
  2  1  1  0  0  0
  1 20  1  0  0  0
 20 21  1  0  0  0
 21 22  2  0  0  0
 23 21  1  0  0  0
 23 24  1  0  0  0
 23 26  1  0  0  0
 26 27  1  0  0  0
 26 29  1  0  0  0
 29 30  1  0  0  0
 29 32  1  0  0  0
 32 33  1  0  0  0
 32 35  1  0  0  0
 35 36  1  0  0  0
 17 19  1  0  0  0
 15 16  1  0  0  0
 12 13  1  0  0  0
  9 10  1  0  0  0
  6  7  1  0  0  0
 24 25  1  0  0  0
 27 28  1  0  0  0
 30 31  1  0  0  0
 33 34  1  0  0  0
 36 37  1  0  0  0
M  END
>  <minimizedAffinity>
-8.18889

>  <minimizedRMSD>
2.52165

$$$$
Molport-051-988-033


 31 33  0  0  0  0  0  0  0  0999 V2000
   -0.4727   20.1778   71.2138 C   0  0  0  0  0  0  0  0  0  0  0  0
    0.7376   20.7887   70.8182 O   0  0  0  0  0  0  0  0  0  0  0  0
    1.5151   19.8003   70.1858 C   0  0  0  0  0  0  0  0  0  0  0  0
    0.5678   18.7796   69.5566 C   0  0  0  0  0  0  0  0  0  0  0  0
    0.1816   19.1768   68.2642 O   0  0  0  0  0  0  0  0  0  0  0  0
   -0.6231   18.8280   70.4931 C   0  0  0  0  0  0  0  0  0  0  0  0
   -0.6053   17.7538   71.4039 O   0  0  0  0  0  0  0  0  0  0  0  0
   -0.2480   18.3873   67.8424 H   0  0  0  0  0  0  0  0  0  0  0  0
    0.2556   17.7821   71.8989 H   0  0  0  0  0  0  0  0  0  0  0  0
   -0.4423   23.0870   66.6658 N   0  0  0  0  0  0  0  0  0  0  0  0
   -1.3213   22.8561   67.7665 C   0  0  0  0  0  0  0  0  0  0  0  0
   -0.9248   22.0323   68.7842 N   0  0  0  0  0  0  0  0  0  0  0  0
   -1.7797   21.8316   69.8151 C   0  0  0  0  0  0  0  0  0  0  0  0
   -3.0018   22.4042   69.8689 C   0  0  0  0  0  0  0  0  0  0  0  0
   -3.6595   22.0150   70.9774 N   0  0  0  0  0  0  0  0  0  0  0  0
   -2.7641   21.1837   71.5799 C   0  0  0  0  0  0  0  0  0  0  0  0
   -1.5974   21.0604   70.8954 N   0  0  0  0  0  0  0  0  0  0  0  0
   -3.4197   23.2400   68.8437 C   0  0  0  0  0  0  0  0  0  0  0  0
   -4.5560   23.7838   68.8681 O   0  0  0  0  0  0  0  0  0  0  0  0
   -2.5601   23.4549   67.8007 N   0  0  0  0  0  0  0  0  0  0  0  0
   -0.7272   23.7079   65.8765 H   0  0  0  0  0  0  0  0  0  0  0  0
    0.4961   22.6298   66.6366 H   0  0  0  0  0  0  0  0  0  0  0  0
   -2.8530   24.0809   67.0167 H   0  0  0  0  0  0  0  0  0  0  0  0
    2.4815   20.4565   69.1860 C   0  0  0  0  0  0  0  0  0  0  0  0
    3.3385   19.4909   68.6093 O   0  0  0  0  0  0  0  0  0  0  0  0
    4.9157   19.6548   69.2429 P   0  0  0  0  0  0  0  0  0  0  0  0
    5.2036   21.1012   69.5764 O   0  0  0  0  0  0  0  0  0  0  0  0
    6.0514   19.0960   68.1200 O   0  0  0  0  0  0  0  0  0  0  0  0
    5.7707   17.0808   68.0757 Na  0  0  0  0  0  0  0  0  0  0  0  0
    5.0376   18.7296   70.6526 O   0  0  0  0  0  0  0  0  0  0  0  0
    6.6666   17.5483   70.3445 Na  0  0  0  0  0  0  0  0  0  0  0  0
 10 11  1  0  0  0
 11 12  2  0  0  0
 12 13  1  0  0  0
 13 14  2  0  0  0
 14 15  1  0  0  0
 15 16  2  0  0  0
 16 17  1  0  0  0
 17  1  1  0  0  0
  1  2  1  0  0  0
  2  3  1  0  0  0
  3 24  1  0  0  0
 24 25  1  0  0  0
 25 26  1  0  0  0
 26 27  2  0  0  0
 26 28  1  0  0  0
 28 29  1  0  0  0
 26 30  1  0  0  0
 30 31  1  0  0  0
  3  4  1  0  0  0
  4  5  1  0  0  0
  4  6  1  0  0  0
  6  7  1  0  0  0
 14 18  1  0  0  0
 18 19  2  0  0  0
 18 20  1  0  0  0
 20 11  1  0  0  0
 17 13  1  0  0  0
  6  1  1  0  0  0
 10 21  1  0  0  0
 10 22  1  0  0  0
  5  8  1  0  0  0
  7  9  1  0  0  0
 20 23  1  0  0  0
M  ISO 1   1  13
M  ISO 1   3  13
M  ISO 1   4  13
M  ISO 1   6  13
M  ISO 1  10  15
M  ISO 1  11  13
M  ISO 1  12  15
M  ISO 1  13  13
M  ISO 1  14  13
M  ISO 1  15  15
M  ISO 1  16  13
M  ISO 1  17  15
M  ISO 1  18  13
M  ISO 1  20  15
M  ISO 1  24  13
M  END
>  <minimizedAffinity>
-8.16631

>  <minimizedRMSD>
3.54981

$$$$
MolPort-030-046-387 CSSS00160103447 MCULE-2868576650


 28 31  0  0  0  0  0  0  0  0999 V2000
    1.6047   19.3362   71.0906 N   0  0  0  0  0  0  0  0  0  0  0  0
    2.6851   18.9928   70.2156 C   0  0  0  0  0  0  0  0  0  0  0  0
    2.4421   18.4256   69.1155 O   0  0  0  0  0  0  0  0  0  0  0  0
    1.8165   19.7447   71.9609 H   0  0  0  0  0  0  0  0  0  0  0  0
    4.0776   19.3042   70.6111 C   0  0  0  0  0  0  0  0  0  0  0  0
    4.3568   19.6302   71.9572 C   0  0  0  0  0  0  0  0  0  0  0  0
    5.6251   19.9249   72.3634 N   0  0  0  0  0  0  0  0  0  0  0  0
    6.6245   19.9013   71.4507 C   0  0  0  0  0  0  0  0  0  0  0  0
    7.9603   20.1676   71.6646 C   0  0  0  0  0  0  0  0  0  0  0  0
    8.4787   19.9872   70.3802 C   0  0  0  0  0  0  0  0  0  0  0  0
    9.9111   20.1502   70.0184 C   0  0  0  0  0  0  0  0  0  0  0  0
    7.5218   19.6432   69.4880 N   0  0  0  0  0  0  0  0  0  0  0  0
    6.3942   19.5974   70.1703 N   0  0  0  0  0  0  0  0  0  0  0  0
    5.1589   19.2945   69.6982 C   0  0  0  0  0  0  0  0  0  0  0  0
    4.9959   19.0151   68.4793 O   0  0  0  0  0  0  0  0  0  0  0  0
    5.8103   20.1507   73.3036 H   0  0  0  0  0  0  0  0  0  0  0  0
   -0.5892   18.8726   72.0199 C   0  0  0  0  0  0  0  0  0  0  0  0
    0.2066   19.1083   70.7512 C   0  0  0  0  0  0  0  0  0  0  0  0
   -0.3483   20.2842   70.0136 C   0  0  0  0  0  0  0  0  0  0  0  0
   -1.2746   21.1253   70.5478 N   0  0  0  0  0  0  0  0  0  0  0  0
   -1.4574   22.0143   69.5620 C   0  0  0  0  0  0  0  0  0  0  0  0
   -2.3086   23.1165   69.5585 C   0  0  0  0  0  0  0  0  0  0  0  0
   -2.3283   23.9142   68.3991 C   0  0  0  0  0  0  0  0  0  0  0  0
   -1.5095   23.5934   67.2931 C   0  0  0  0  0  0  0  0  0  0  0  0
   -0.6609   22.4713   67.3333 C   0  0  0  0  0  0  0  0  0  0  0  0
   -0.6683   21.7052   68.4963 C   0  0  0  0  0  0  0  0  0  0  0  0
    0.0524   20.6056   68.7559 N   0  0  0  0  0  0  0  0  0  0  0  0
    0.7066   20.1468   68.1808 H   0  0  0  0  0  0  0  0  0  0  0  0
 18 17  1  0  0  0
 18  1  1  0  0  0
 18 19  1  0  0  0
  1  2  1  0  0  0
  2  3  2  0  0  0
  2  5  1  0  0  0
  5  6  2  0  0  0
  6  7  1  0  0  0
  7  8  1  0  0  0
  8  9  2  0  0  0
  9 10  1  0  0  0
 10 11  1  0  0  0
 10 12  2  0  0  0
 12 13  1  0  0  0
 13 14  1  0  0  0
 13  8  1  0  0  0
 14 15  2  0  0  0
 14  5  1  0  0  0
 19 20  2  0  0  0
 20 21  1  0  0  0
 21 22  2  0  0  0
 22 23  1  0  0  0
 23 24  2  0  0  0
 24 25  1  0  0  0
 25 26  2  0  0  0
 26 27  1  0  0  0
 26 21  1  0  0  0
 27 19  1  0  0  0
  1  4  1  0  0  0
  7 16  1  0  0  0
 27 28  1  0  0  0
M  END
>  <minimizedAffinity>
-8.09995

>  <minimizedRMSD>
1.91179

$$$$
MolPort-002-725-343 MolPort-045-968-793 CSSS00160402688 MCULE-9829029241 PubChem-4324544


 40 42  0  0  0  0  0  0  0  0999 V2000
   -1.0994   19.9641   70.7747 C   0  0  0  0  0  0  0  0  0  0  0  0
   -0.4303   19.3274   69.7086 O   0  0  0  0  0  0  0  0  0  0  0  0
    0.9501   19.6532   69.7666 C   0  0  0  0  0  0  0  0  0  0  0  0
    1.5928   19.3976   71.1431 C   0  0  0  0  0  0  0  0  0  0  0  0
    0.6326   18.6227   72.0455 C   0  0  0  0  0  0  0  0  0  0  0  0
    1.1805   18.4507   73.3193 O   0  0  0  0  0  0  0  0  0  0  0  0
   -0.7313   19.3247   72.1223 C   0  0  0  0  0  0  0  0  0  0  0  0
   -0.7208   20.3134   73.1094 O   0  0  0  0  0  0  0  0  0  0  0  0
    1.3277   19.3181   73.7278 H   0  0  0  0  0  0  0  0  0  0  0  0
   -0.0586   20.9861   72.8861 H   0  0  0  0  0  0  0  0  0  0  0  0
    1.2259   21.0738   69.2885 C   0  0  0  0  0  0  0  0  0  0  0  0
    0.7294   21.2461   67.9966 O   0  0  0  0  0  0  0  0  0  0  0  0
    1.1645   20.6203   67.3968 H   0  0  0  0  0  0  0  0  0  0  0  0
   -2.5377   19.8834   70.5624 N   0  0  0  0  0  0  0  0  0  0  0  0
   -2.8929   19.1134   70.0622 H   0  0  0  0  0  0  0  0  0  0  0  0
   -5.2942   22.8081   71.9231 C   0  0  0  0  0  0  0  0  0  0  0  0
   -5.6327   21.9296   70.8836 C   0  0  0  0  0  0  0  0  0  0  0  0
   -4.7216   20.9643   70.4460 C   0  0  0  0  0  0  0  0  0  0  0  0
   -3.4615   20.8641   71.0426 C   0  0  0  0  0  0  0  0  0  0  0  0
   -3.1174   21.7407   72.0813 C   0  0  0  0  0  0  0  0  0  0  0  0
   -4.0282   22.7054   72.5188 C   0  0  0  0  0  0  0  0  0  0  0  0
   -6.0562   24.5678   73.6552 C   0  0  0  0  0  0  0  0  0  0  0  0
   -6.2592   23.8287   72.3753 C   0  0  0  0  0  0  0  0  0  0  0  0
   -7.2759   24.0924   71.6786 O   0  0  0  0  0  0  0  0  0  0  0  0
    2.7819   18.6817   70.9765 O   0  0  0  0  0  0  0  0  0  0  0  0
    3.7934   19.6433   71.0333 C   0  0  0  0  0  0  0  0  0  0  0  0
    4.6430   19.5078   69.9199 O   0  0  0  0  0  0  0  0  0  0  0  0
    5.4446   20.6621   69.9175 C   0  0  0  0  0  0  0  0  0  0  0  0
    6.4644   20.6373   71.0826 C   0  0  0  0  0  0  0  0  0  0  0  0
    7.7768   20.4321   70.6432 O   0  0  0  0  0  0  0  0  0  0  0  0
    6.0869   19.5999   72.1577 C   0  0  0  0  0  0  0  0  0  0  0  0
    6.5841   18.3395   71.8160 O   0  0  0  0  0  0  0  0  0  0  0  0
    4.5682   19.5030   72.3553 C   0  0  0  0  0  0  0  0  0  0  0  0
    4.1457   20.4891   73.2461 O   0  0  0  0  0  0  0  0  0  0  0  0
    7.8472   19.5560   70.2327 H   0  0  0  0  0  0  0  0  0  0  0  0
    6.1815   18.0480   70.9830 H   0  0  0  0  0  0  0  0  0  0  0  0
    4.3397   21.3643   72.8753 H   0  0  0  0  0  0  0  0  0  0  0  0
    6.0774   20.8746   68.5492 C   0  0  0  0  0  0  0  0  0  0  0  0
    5.2021   21.5829   67.7263 O   0  0  0  0  0  0  0  0  0  0  0  0
    4.3793   21.0802   67.6208 H   0  0  0  0  0  0  0  0  0  0  0  0
 22 23  1  0  0  0
 23 24  2  0  0  0
 23 16  1  0  0  0
 16 17  2  0  0  0
 17 18  1  0  0  0
 18 19  2  0  0  0
 19 14  1  0  0  0
 19 20  1  0  0  0
  1 14  1  0  0  0
  1  2  1  0  0  0
  2  3  1  0  0  0
  3 11  1  0  0  0
  3  4  1  0  0  0
 11 12  1  0  0  0
  4 25  1  0  0  0
  4  5  1  0  0  0
 26 25  1  0  0  0
 26 27  1  0  0  0
 27 28  1  0  0  0
 28 38  1  0  0  0
 28 29  1  0  0  0
 38 39  1  0  0  0
 29 30  1  0  0  0
 29 31  1  0  0  0
 31 32  1  0  0  0
 31 33  1  0  0  0
 33 34  1  0  0  0
 33 26  1  0  0  0
  5  6  1  0  0  0
  5  7  1  0  0  0
  7  8  1  0  0  0
  7  1  1  0  0  0
 20 21  2  0  0  0
 21 16  1  0  0  0
 14 15  1  0  0  0
 12 13  1  0  0  0
 39 40  1  0  0  0
 30 35  1  0  0  0
 32 36  1  0  0  0
 34 37  1  0  0  0
  6  9  1  0  0  0
  8 10  1  0  0  0
M  END
>  <minimizedAffinity>
-8.07334

>  <minimizedRMSD>
3.63875

$$$$
MolPort-039-035-613 334159700 CSSS00160135450 MCULE-6790219010 ZINC000334159700


 27 29  0  0  0  0  0  0  0  0999 V2000
    2.0390   19.9054   70.3265 N   0  0  0  0  0  0  0  0  0  0  0  0
    2.7654   19.8820   69.0885 C   0  0  0  0  0  0  0  0  0  0  0  0
    2.1422   19.9217   67.9930 O   0  0  0  0  0  0  0  0  0  0  0  0
    2.5628   19.8603   71.1589 H   0  0  0  0  0  0  0  0  0  0  0  0
    4.2441   19.8100   69.1096 C   0  0  0  0  0  0  0  0  0  0  0  0
    4.8731   18.7117   69.7374 C   0  0  0  0  0  0  0  0  0  0  0  0
    6.2324   18.6066   69.7798 N   0  0  0  0  0  0  0  0  0  0  0  0
    6.9800   19.5785   69.2064 C   0  0  0  0  0  0  0  0  0  0  0  0
    8.3557   19.6508   69.1460 C   0  0  0  0  0  0  0  0  0  0  0  0
    8.5308   20.8488   68.4497 C   0  0  0  0  0  0  0  0  0  0  0  0
    9.8507   21.4322   68.0937 C   0  0  0  0  0  0  0  0  0  0  0  0
    7.3516   21.4294   68.1294 N   0  0  0  0  0  0  0  0  0  0  0  0
    6.4167   20.6300   68.6050 N   0  0  0  0  0  0  0  0  0  0  0  0
    5.0728   20.7979   68.5262 C   0  0  0  0  0  0  0  0  0  0  0  0
    4.5922   21.8096   67.9469 O   0  0  0  0  0  0  0  0  0  0  0  0
    6.6620   17.8376   70.2194 H   0  0  0  0  0  0  0  0  0  0  0  0
    0.5849   19.9905   70.4524 C   0  0  0  0  0  0  0  0  0  0  0  0
   -0.0332   18.6378   70.0402 C   0  0  0  0  0  0  0  0  0  0  0  0
   -1.5287   18.5626   70.3507 C   0  0  0  0  0  0  0  0  0  0  0  0
   -1.7703   18.8071   71.8341 C   0  0  0  0  0  0  0  0  0  0  0  0
   -1.2326   20.1767   72.2259 C   0  0  0  0  0  0  0  0  0  0  0  0
    0.2659   20.2540   71.9335 C   0  0  0  0  0  0  0  0  0  0  0  0
   -1.1834   21.9679   67.5819 C   0  0  0  0  0  0  0  0  0  0  0  0
   -0.7065   20.8912   68.4329 N   0  0  0  0  0  0  0  0  0  0  0  0
    0.0797   21.1392   69.6026 C   0  0  0  0  0  0  0  0  0  0  0  0
    0.4001   22.3224   69.9025 O   0  0  0  0  0  0  0  0  0  0  0  0
   -0.9312   19.9621   68.1975 H   0  0  0  0  0  0  0  0  0  0  0  0
 23 24  1  0  0  0
 24 25  1  0  0  0
 25 26  2  0  0  0
 25 17  1  0  0  0
 17 18  1  0  0  0
 18 19  1  0  0  0
 19 20  1  0  0  0
 20 21  1  0  0  0
 21 22  1  0  0  0
 17  1  1  0  0  0
  1  2  1  0  0  0
  2  3  2  0  0  0
  2  5  1  0  0  0
  5  6  2  0  0  0
  6  7  1  0  0  0
  7  8  1  0  0  0
  8  9  2  0  0  0
  9 10  1  0  0  0
 10 11  1  0  0  0
 10 12  2  0  0  0
 12 13  1  0  0  0
 13 14  1  0  0  0
 14 15  2  0  0  0
 22 17  1  0  0  0
 14  5  1  0  0  0
 13  8  1  0  0  0
 24 27  1  0  0  0
  1  4  1  0  0  0
  7 16  1  0  0  0
M  END
>  <minimizedAffinity>
-8.00084

>  <minimizedRMSD>
2.08019

$$$$
MolPort-046-702-561 MCULE-6628110408 PubChem-158828385 PubChem-3600220


 31 32  0  0  0  0  0  0  0  0999 V2000
    4.8786   19.5444   69.4548 O   0  0  0  0  0  0  0  0  0  0  0  0
    5.4842   20.5594   70.2086 C   0  0  0  0  0  0  0  0  0  0  0  0
    5.9832   20.0414   71.5688 C   0  0  0  0  0  0  0  0  0  0  0  0
    7.1977   19.1166   71.4141 C   0  0  0  0  0  0  0  0  0  0  0  0
    8.2284   19.7445   70.4775 C   0  0  0  0  0  0  0  0  0  0  0  0
    7.5248   20.2255   69.1979 C   0  0  0  0  0  0  0  0  0  0  0  0
    6.5265   21.1845   69.4822 O   0  0  0  0  0  0  0  0  0  0  0  0
    8.8623   20.8080   71.1255 O   0  0  0  0  0  0  0  0  0  0  0  0
    6.8094   17.8678   70.9206 O   0  0  0  0  0  0  0  0  0  0  0  0
    4.9558   19.4050   72.2685 O   0  0  0  0  0  0  0  0  0  0  0  0
    8.2027   21.4742   71.3745 H   0  0  0  0  0  0  0  0  0  0  0  0
    6.4081   17.9770   70.0442 H   0  0  0  0  0  0  0  0  0  0  0  0
    4.6549   18.6306   71.7677 H   0  0  0  0  0  0  0  0  0  0  0  0
    8.5038   20.7498   68.1538 C   0  0  0  0  0  0  0  0  0  0  0  0
    9.0319   21.9830   68.5409 O   0  0  0  0  0  0  0  0  0  0  0  0
    8.3132   22.6279   68.6333 H   0  0  0  0  0  0  0  0  0  0  0  0
    4.1448   20.2142   68.4718 C   0  0  0  0  0  0  0  0  0  0  0  0
    0.7802   21.2175   69.2926 C   0  0  0  0  0  0  0  0  0  0  0  0
    0.2889   20.2353   70.3664 C   0  0  0  0  0  0  0  0  0  0  0  0
    1.3861   19.2573   70.8107 C   0  0  0  0  0  0  0  0  0  0  0  0
    2.3661   18.9085   69.6818 C   0  0  0  0  0  0  0  0  0  0  0  0
    2.6552   20.1087   68.7608 C   0  0  0  0  0  0  0  0  0  0  0  0
    2.1814   21.3155   69.3068 O   0  0  0  0  0  0  0  0  0  0  0  0
    1.8573   17.8539   68.9242 O   0  0  0  0  0  0  0  0  0  0  0  0
    2.0909   19.8072   71.8820 O   0  0  0  0  0  0  0  0  0  0  0  0
   -0.8075   19.5249   69.8788 O   0  0  0  0  0  0  0  0  0  0  0  0
    1.0210   18.1246   68.5139 H   0  0  0  0  0  0  0  0  0  0  0  0
    2.5220   20.6284   71.5979 H   0  0  0  0  0  0  0  0  0  0  0  0
   -0.5395   19.0104   69.1014 H   0  0  0  0  0  0  0  0  0  0  0  0
   -0.5989   22.6980   68.4027 C   0  0  0  0  0  0  0  0  0  0  0  0
    0.2175   22.4753   69.5120 O   0  0  0  0  0  0  0  0  0  0  0  0
 30 31  1  0  0  0
 18 31  1  0  0  0
 18 19  1  0  0  0
 19 20  1  0  0  0
 19 26  1  0  0  0
 20 21  1  0  0  0
 20 25  1  0  0  0
 21 22  1  0  0  0
 21 24  1  0  0  0
 22 23  1  0  0  0
 22 17  1  0  0  0
 23 18  1  0  0  0
 17  1  1  0  0  0
  2  1  1  0  0  0
  2  3  1  0  0  0
  3  4  1  0  0  0
  3 10  1  0  0  0
  4  5  1  0  0  0
  4  9  1  0  0  0
  5  6  1  0  0  0
  5  8  1  0  0  0
  6  7  1  0  0  0
  6 14  1  0  0  0
  7  2  1  0  0  0
 14 15  1  0  0  0
 15 16  1  0  0  0
  8 11  1  0  0  0
  9 12  1  0  0  0
 10 13  1  0  0  0
 24 27  1  0  0  0
 25 28  1  0  0  0
 26 29  1  0  0  0
M  END
>  <minimizedAffinity>
-7.98259

>  <minimizedRMSD>
2.39126

$$$$
MolPort-027-883-588 91907733 CSSS00159627305 MCULE-2675544204 ZINC000091907733


 31 33  0  0  0  0  0  0  0  0999 V2000
    4.2492   20.0093   69.0972 C   0  0  0  0  0  0  0  0  0  0  0  0
    5.0298   19.5705   70.1842 C   0  0  0  0  0  0  0  0  0  0  0  0
    4.5021   18.7315   71.1584 O   0  0  0  0  0  0  0  0  0  0  0  0
    6.3239   19.9698   70.2916 N   0  0  0  0  0  0  0  0  0  0  0  0
    6.8865   20.7918   69.3693 C   0  0  0  0  0  0  0  0  0  0  0  0
    6.1566   21.2226   68.3093 N   0  0  0  0  0  0  0  0  0  0  0  0
    4.8593   20.8516   68.1613 C   0  0  0  0  0  0  0  0  0  0  0  0
    3.6113   18.4469   71.0992 H   0  0  0  0  0  0  0  0  0  0  0  0
    1.9173   20.5424   68.3098 N   0  0  0  0  0  0  0  0  0  0  0  0
    2.8333   19.6205   68.9112 C   0  0  0  0  0  0  0  0  0  0  0  0
    2.4258   18.4845   69.2771 O   0  0  0  0  0  0  0  0  0  0  0  0
    2.2651   21.4051   67.9874 H   0  0  0  0  0  0  0  0  0  0  0  0
    0.4947   20.2654   68.1520 C   0  0  0  0  0  0  0  0  0  0  0  0
   -0.3332   21.0740   69.1436 C   0  0  0  0  0  0  0  0  0  0  0  0
   -4.6563   23.4343   68.9795 C   0  0  0  0  0  0  0  0  0  0  0  0
   -3.3380   23.1334   68.3639 C   0  0  0  0  0  0  0  0  0  0  0  0
   -2.9815   23.7256   67.1531 C   0  0  0  0  0  0  0  0  0  0  0  0
   -1.7344   23.4206   66.6092 C   0  0  0  0  0  0  0  0  0  0  0  0
   -1.3806   23.9377   65.5182 O   0  0  0  0  0  0  0  0  0  0  0  0
   -0.9014   22.5649   67.2572 N   0  0  0  0  0  0  0  0  0  0  0  0
   -1.2691   21.9920   68.4342 C   0  0  0  0  0  0  0  0  0  0  0  0
   -2.4790   22.2818   68.9821 N   0  0  0  0  0  0  0  0  0  0  0  0
   -0.0205   22.3571   66.8697 H   0  0  0  0  0  0  0  0  0  0  0  0
    8.3179   21.1864   69.4972 C   0  0  0  0  0  0  0  0  0  0  0  0
    9.0681   20.1291   70.0858 O   0  0  0  0  0  0  0  0  0  0  0  0
    9.7256   20.2467   71.3151 C   0  0  0  0  0  0  0  0  0  0  0  0
   11.0145   19.7185   71.4465 C   0  0  0  0  0  0  0  0  0  0  0  0
   11.7005   19.8235   72.6601 C   0  0  0  0  0  0  0  0  0  0  0  0
   11.0996   20.4588   73.7502 C   0  0  0  0  0  0  0  0  0  0  0  0
    9.8132   20.9904   73.6273 C   0  0  0  0  0  0  0  0  0  0  0  0
    9.1276   20.8863   72.4137 C   0  0  0  0  0  0  0  0  0  0  0  0
 15 16  1  0  0  0
 16 17  2  0  0  0
 17 18  1  0  0  0
 18 19  2  0  0  0
 18 20  1  0  0  0
 20 21  1  0  0  0
 21 14  1  0  0  0
 21 22  2  0  0  0
 14 13  1  0  0  0
 13  9  1  0  0  0
  9 10  1  0  0  0
 10 11  2  0  0  0
 10  1  1  0  0  0
  1  2  2  0  0  0
  2  3  1  0  0  0
  2  4  1  0  0  0
  4  5  2  0  0  0
  5 24  1  0  0  0
  5  6  1  0  0  0
 24 25  1  0  0  0
 25 26  1  0  0  0
 26 27  2  0  0  0
 27 28  1  0  0  0
 28 29  2  0  0  0
 29 30  1  0  0  0
 30 31  2  0  0  0
 31 26  1  0  0  0
  6  7  2  0  0  0
  7  1  1  0  0  0
 22 16  1  0  0  0
 20 23  1  0  0  0
  9 12  1  0  0  0
  3  8  1  0  0  0
M  END
>  <minimizedAffinity>
-7.96266

>  <minimizedRMSD>
2.22348

$$$$
Molport-047-014-054 MCULE-4215523642 PubChem-110158337


 30 31  0  0  0  0  0  0  0  0999 V2000
    0.3981   21.2292   69.5297 C   0  0  0  0  0  0  0  0  0  0  0  0
    0.0461   20.4138   70.7707 C   0  0  0  0  0  0  0  0  0  0  0  0
    0.6923   19.0474   70.5938 C   0  0  0  0  0  0  0  0  0  0  0  0
    0.9791   18.9088   69.0983 C   0  0  0  0  0  0  0  0  0  0  0  0
    1.1729   20.3144   68.5752 C   0  0  0  0  0  0  0  0  0  0  0  0
    0.7309   20.4119   67.2535 O   0  0  0  0  0  0  0  0  0  0  0  0
    2.1049   18.1229   68.8387 O   0  0  0  0  0  0  0  0  0  0  0  0
   -0.2058   20.1643   67.2068 H   0  0  0  0  0  0  0  0  0  0  0  0
    2.8829   18.5245   69.2563 H   0  0  0  0  0  0  0  0  0  0  0  0
   -1.3841   24.1107   65.9924 C   0  0  0  0  0  0  0  0  0  0  0  0
   -1.6398   23.2673   67.1944 C   0  0  0  0  0  0  0  0  0  0  0  0
   -0.5773   22.6325   67.8322 C   0  0  0  0  0  0  0  0  0  0  0  0
   -0.7868   21.8583   68.9311 N   0  0  0  0  0  0  0  0  0  0  0  0
   -2.0606   21.6958   69.4187 C   0  0  0  0  0  0  0  0  0  0  0  0
   -2.2793   20.9782   70.4313 O   0  0  0  0  0  0  0  0  0  0  0  0
   -3.1070   22.3099   68.8065 N   0  0  0  0  0  0  0  0  0  0  0  0
   -2.9262   23.0890   67.7102 C   0  0  0  0  0  0  0  0  0  0  0  0
   -3.9197   23.6429   67.1688 O   0  0  0  0  0  0  0  0  0  0  0  0
   -4.0153   22.1869   69.1659 H   0  0  0  0  0  0  0  0  0  0  0  0
    1.9280   18.9061   71.4919 C   0  0  0  0  0  0  0  0  0  0  0  0
    3.0460   19.6932   70.9891 N   0  0  0  0  0  0  0  0  0  0  0  0
    4.1946   19.9757   71.7870 C   0  0  0  0  0  0  0  0  0  0  0  0
    4.2805   19.5372   72.9650 O   0  0  0  0  0  0  0  0  0  0  0  0
    3.0078   20.0415   70.0690 H   0  0  0  0  0  0  0  0  0  0  0  0
    5.3187   20.7666   71.2106 C   0  0  0  0  0  0  0  0  0  0  0  0
    5.9472   20.0249   70.0361 C   0  0  0  0  0  0  0  0  0  0  0  0
    5.4711   20.5165   68.7017 C   0  0  0  0  0  0  0  0  0  0  0  0
    5.9842   21.5285   68.1537 O   0  0  0  0  0  0  0  0  0  0  0  0
    4.4546   19.8305   68.0519 O   0  0  0  0  0  0  0  0  0  0  0  0
    4.0675   19.0769   68.4523 H   0  0  0  0  0  0  0  0  0  0  0  0
 10 11  1  0  0  0
 11 12  2  0  0  0
 12 13  1  0  0  0
 13 14  1  0  0  0
 14 15  2  0  0  0
 14 16  1  0  0  0
 16 17  1  0  0  0
 17 18  2  0  0  0
  1 13  1  0  0  0
  1  2  1  0  0  0
  2  3  1  0  0  0
  3  4  1  0  0  0
  4  5  1  0  0  0
  5  6  1  0  0  0
  4  7  1  0  0  0
  3 20  1  0  0  0
 20 21  1  0  0  0
 21 22  1  0  0  0
 22 23  2  0  0  0
 22 25  1  0  0  0
 25 26  1  0  0  0
 26 27  1  0  0  0
 27 28  2  0  0  0
 27 29  1  0  0  0
 17 11  1  0  0  0
  5  1  1  0  0  0
 16 19  1  0  0  0
  6  8  1  0  0  0
  7  9  1  0  0  0
 21 24  1  0  0  0
 29 30  1  0  0  0
M  END
>  <minimizedAffinity>
-7.94838

>  <minimizedRMSD>
2.87508

$$$$
MolPort-029-943-677 MolPort-047-147-584 225503909 CSSS02125601353 MCULE-2149338079 MCULE-7729366200 PubChem-146117837 PubChem-75529459 ZINC000225503909


 34 38  0  0  0  0  0  0  0  0999 V2000
    3.5270   18.6189   71.6663 O   0  0  0  0  0  0  0  0  0  0  0  0
    3.0930   18.7975   70.3500 C   0  0  0  0  0  0  0  0  0  0  0  0
    3.5951   20.1402   69.8480 C   0  0  0  0  0  0  0  0  0  0  0  0
    2.4105   21.0980   69.8674 C   0  0  0  0  0  0  0  0  0  0  0  0
    1.2356   20.3394   70.4511 C   0  0  0  0  0  0  0  0  0  0  0  0
    1.5750   18.8775   70.2872 C   0  0  0  0  0  0  0  0  0  0  0  0
    0.9719   18.1178   71.2931 O   0  0  0  0  0  0  0  0  0  0  0  0
    4.4956   18.5706   71.6836 H   0  0  0  0  0  0  0  0  0  0  0  0
    1.2680   18.4360   72.1602 H   0  0  0  0  0  0  0  0  0  0  0  0
    0.0264   20.6514   69.7080 N   0  0  0  0  0  0  0  0  0  0  0  0
   -1.1774   21.0640   70.3547 C   0  0  0  0  0  0  0  0  0  0  0  0
   -1.2035   21.2123   71.6068 O   0  0  0  0  0  0  0  0  0  0  0  0
   -2.3460   21.3002   69.5587 N   0  0  0  0  0  0  0  0  0  0  0  0
    0.0378   20.5757   68.7264 H   0  0  0  0  0  0  0  0  0  0  0  0
   -2.2551   21.1540   68.5894 H   0  0  0  0  0  0  0  0  0  0  0  0
   -3.6338   21.7269   70.0247 C   0  0  0  0  0  0  0  0  0  0  0  0
   -3.8117   22.3108   71.2893 C   0  0  0  0  0  0  0  0  0  0  0  0
   -5.0848   22.7102   71.7045 C   0  0  0  0  0  0  0  0  0  0  0  0
   -6.1840   22.5519   70.8502 C   0  0  0  0  0  0  0  0  0  0  0  0
   -7.4410   22.9944   71.2699 O   0  0  0  0  0  0  0  0  0  0  0  0
   -7.5737   23.8477   72.4077 C   0  0  0  0  0  0  0  0  0  0  0  0
   -6.5985   23.4210   73.5070 C   0  0  0  0  0  0  0  0  0  0  0  0
   -5.2822   23.2677   72.9706 O   0  0  0  0  0  0  0  0  0  0  0  0
   -6.0167   21.9579   69.5983 C   0  0  0  0  0  0  0  0  0  0  0  0
   -4.7437   21.5476   69.1891 C   0  0  0  0  0  0  0  0  0  0  0  0
    4.1185   19.9909   68.4272 C   0  0  0  0  0  0  0  0  0  0  0  0
    5.4919   20.4622   68.3338 N   0  0  0  0  0  0  0  0  0  0  0  0
    6.5848   19.6800   68.3074 C   0  0  0  0  0  0  0  0  0  0  0  0
    7.6419   20.5656   68.2035 C   0  0  0  0  0  0  0  0  0  0  0  0
    7.1664   21.8260   68.1452 N   0  0  0  0  0  0  0  0  0  0  0  0
    5.8493   21.7318   68.2310 N   0  0  0  0  0  0  0  0  0  0  0  0
    9.0875   20.2022   68.0929 C   0  0  0  0  0  0  0  0  0  0  0  0
    9.9435   21.4488   68.2293 C   0  0  0  0  0  0  0  0  0  0  0  0
    9.7973   20.5046   69.4011 C   0  0  0  0  0  0  0  0  0  0  0  0
  2  1  1  0  0  0
  2  3  1  0  0  0
  3 26  1  0  0  0
 26 27  1  0  0  0
 27 28  1  0  0  0
 28 29  2  0  0  0
 29 30  1  0  0  0
 30 31  2  0  0  0
 29 32  1  0  0  0
 32 33  1  0  0  0
 33 34  1  0  0  0
  3  4  1  0  0  0
  4  5  1  0  0  0
  5 10  1  0  0  0
 10 11  1  0  0  0
 11 12  2  0  0  0
 11 13  1  0  0  0
 13 16  1  0  0  0
 16 17  2  0  0  0
 17 18  1  0  0  0
 18 19  2  0  0  0
 19 20  1  0  0  0
 20 21  1  0  0  0
 21 22  1  0  0  0
 22 23  1  0  0  0
 19 24  1  0  0  0
 24 25  2  0  0  0
  5  6  1  0  0  0
  6  7  1  0  0  0
  6  2  1  0  0  0
 31 27  1  0  0  0
 34 32  1  0  0  0
 25 16  1  0  0  0
 23 18  1  0  0  0
  1  8  1  0  0  0
 10 14  1  0  0  0
 13 15  1  0  0  0
  7  9  1  0  0  0
M  END
>  <minimizedAffinity>
-7.91216

>  <minimizedRMSD>
2.63682

$$$$
MolPort-051-694-460 MCULE-6125952583 MCULE-7009611363 PubChem-132558856


 35 36  0  0  0  0  0  0  0  0999 V2000
    4.9733   20.1828   69.8327 C   0  0  0  0  0  0  0  0  0  0  0  0
    4.3461   19.0525   70.6780 C   0  0  0  0  0  0  0  0  0  0  0  0
    3.0502   18.6536   70.2574 O   0  0  0  0  0  0  0  0  0  0  0  0
    2.2865   19.8066   69.9920 C   0  0  0  0  0  0  0  0  0  0  0  0
    2.7326   20.4478   68.6688 C   0  0  0  0  0  0  0  0  0  0  0  0
    4.2499   20.3304   68.4902 C   0  0  0  0  0  0  0  0  0  0  0  0
    4.7279   21.4482   67.8059 O   0  0  0  0  0  0  0  0  0  0  0  0
    2.0998   19.8339   67.5856 O   0  0  0  0  0  0  0  0  0  0  0  0
    4.5459   22.2473   68.3248 H   0  0  0  0  0  0  0  0  0  0  0  0
    2.3479   18.8967   67.5549 H   0  0  0  0  0  0  0  0  0  0  0  0
    4.3661   19.4065   72.1586 C   0  0  0  0  0  0  0  0  0  0  0  0
    3.3642   18.7024   72.8267 O   0  0  0  0  0  0  0  0  0  0  0  0
    2.5001   18.9382   72.4544 H   0  0  0  0  0  0  0  0  0  0  0  0
    6.3275   19.9136   69.6211 O   0  0  0  0  0  0  0  0  0  0  0  0
    7.0069   20.8879   70.3570 C   0  0  0  0  0  0  0  0  0  0  0  0
   10.7262   20.0651   69.7789 C   0  0  0  0  0  0  0  0  0  0  0  0
    9.3207   20.4743   69.5071 C   0  0  0  0  0  0  0  0  0  0  0  0
    8.4435   20.4962   70.5177 C   0  0  0  0  0  0  0  0  0  0  0  0
    8.9369   20.8589   68.1137 C   0  0  0  0  0  0  0  0  0  0  0  0
    0.9258   19.4890   69.9715 O   0  0  0  0  0  0  0  0  0  0  0  0
    0.3352   20.3753   70.8823 C   0  0  0  0  0  0  0  0  0  0  0  0
   -0.8319   19.7278   71.6756 C   0  0  0  0  0  0  0  0  0  0  0  0
   -2.0349   20.6707   71.7764 C   0  0  0  0  0  0  0  0  0  0  0  0
   -2.3976   21.2854   70.4186 C   0  0  0  0  0  0  0  0  0  0  0  0
   -1.1758   21.3901   69.4935 C   0  0  0  0  0  0  0  0  0  0  0  0
   -0.0061   21.5944   70.2485 O   0  0  0  0  0  0  0  0  0  0  0  0
   -3.3850   20.5133   69.8056 O   0  0  0  0  0  0  0  0  0  0  0  0
   -1.7599   21.6874   72.6917 O   0  0  0  0  0  0  0  0  0  0  0  0
   -1.2316   18.5212   71.0945 O   0  0  0  0  0  0  0  0  0  0  0  0
   -3.0460   19.6176   69.6517 H   0  0  0  0  0  0  0  0  0  0  0  0
   -0.9995   22.2040   72.3822 H   0  0  0  0  0  0  0  0  0  0  0  0
   -1.5653   18.6884   70.1991 H   0  0  0  0  0  0  0  0  0  0  0  0
   -1.3472   22.5337   68.5086 C   0  0  0  0  0  0  0  0  0  0  0  0
   -1.9293   22.0673   67.3296 O   0  0  0  0  0  0  0  0  0  0  0  0
   -1.3574   21.3923   66.9317 H   0  0  0  0  0  0  0  0  0  0  0  0
 16 17  1  0  0  0
 17 18  2  0  0  0
 18 15  1  0  0  0
 15 14  1  0  0  0
  1 14  1  0  0  0
  1  2  1  0  0  0
  2  3  1  0  0  0
  3  4  1  0  0  0
  4  5  1  0  0  0
  5  6  1  0  0  0
  6  7  1  0  0  0
  5  8  1  0  0  0
  4 20  1  0  0  0
 21 20  1  0  0  0
 21 22  1  0  0  0
 22 23  1  0  0  0
 23 24  1  0  0  0
 24 25  1  0  0  0
 25 26  1  0  0  0
 25 33  1  0  0  0
 33 34  1  0  0  0
 24 27  1  0  0  0
 23 28  1  0  0  0
 22 29  1  0  0  0
  2 11  1  0  0  0
 11 12  1  0  0  0
 17 19  1  0  0  0
  6  1  1  0  0  0
 26 21  1  0  0  0
  7  9  1  0  0  0
  8 10  1  0  0  0
 34 35  1  0  0  0
 27 30  1  0  0  0
 28 31  1  0  0  0
 29 32  1  0  0  0
 12 13  1  0  0  0
M  END
>  <minimizedAffinity>
-7.90102

>  <minimizedRMSD>
3.27467

$$$$
MolPort-019-937-050 CSSS00159279676 MCULE-9428223138 PubChem-45783033


 32 34  0  0  0  0  0  0  0  0999 V2000
    5.5160   21.3017   72.6700 C   0  0  0  0  0  0  0  0  0  0  0  0
    5.3894   19.8001   72.4548 C   0  0  0  0  0  0  0  0  0  0  0  0
    6.6494   19.1365   72.9885 C   0  0  0  0  0  0  0  0  0  0  0  0
    7.2555   18.3407   71.8452 C   0  0  0  0  0  0  0  0  0  0  0  0
    6.6617   18.8878   70.5506 C   0  0  0  0  0  0  0  0  0  0  0  0
    5.2802   19.3814   70.9774 C   0  0  0  0  0  0  0  0  0  0  0  0
    4.6909   20.3989   69.9835 C   0  0  0  0  0  0  0  0  0  0  0  0
    5.6292   21.4331   69.6951 O   0  0  0  0  0  0  0  0  0  0  0  0
    6.9972   21.1667   69.5747 C   0  0  0  0  0  0  0  0  0  0  0  0
    7.5082   19.9905   69.9465 C   0  0  0  0  0  0  0  0  0  0  0  0
    6.5282   17.8504   69.6277 O   0  0  0  0  0  0  0  0  0  0  0  0
    8.6509   18.4132   71.8757 O   0  0  0  0  0  0  0  0  0  0  0  0
    4.2808   19.3258   73.1545 O   0  0  0  0  0  0  0  0  0  0  0  0
    5.9868   17.1434   70.0121 H   0  0  0  0  0  0  0  0  0  0  0  0
    8.9281   19.3400   71.8040 H   0  0  0  0  0  0  0  0  0  0  0  0
    4.3490   19.5893   74.0855 H   0  0  0  0  0  0  0  0  0  0  0  0
    3.4956   20.9459   70.4590 O   0  0  0  0  0  0  0  0  0  0  0  0
    2.5333   20.5860   69.5138 C   0  0  0  0  0  0  0  0  0  0  0  0
    1.9877   19.1871   69.8373 C   0  0  0  0  0  0  0  0  0  0  0  0
    0.4763   19.0766   69.5910 C   0  0  0  0  0  0  0  0  0  0  0  0
   -0.0081   19.9578   68.4303 C   0  0  0  0  0  0  0  0  0  0  0  0
    0.7686   21.2841   68.3286 C   0  0  0  0  0  0  0  0  0  0  0  0
    1.5013   21.5387   69.5002 O   0  0  0  0  0  0  0  0  0  0  0  0
    0.1083   19.2587   67.2291 O   0  0  0  0  0  0  0  0  0  0  0  0
   -0.2090   19.4258   70.7549 O   0  0  0  0  0  0  0  0  0  0  0  0
    2.6625   18.2374   69.0708 O   0  0  0  0  0  0  0  0  0  0  0  0
    1.0409   19.0464   67.0676 H   0  0  0  0  0  0  0  0  0  0  0  0
   -0.0124   20.3482   70.9815 H   0  0  0  0  0  0  0  0  0  0  0  0
    2.5051   18.4106   68.1295 H   0  0  0  0  0  0  0  0  0  0  0  0
   -0.1847   22.4360   68.0660 C   0  0  0  0  0  0  0  0  0  0  0  0
   -1.0610   22.1051   67.0319 O   0  0  0  0  0  0  0  0  0  0  0  0
   -0.5547   21.9244   66.2245 H   0  0  0  0  0  0  0  0  0  0  0  0
  2  1  1  0  0  0
  2  3  1  0  0  0
  2 13  1  0  0  0
  3  4  1  0  0  0
  4  5  1  0  0  0
  4 12  1  0  0  0
  5 11  1  0  0  0
  6  5  1  0  0  0
  6  7  1  0  0  0
  6  2  1  0  0  0
  7  8  1  0  0  0
  7 17  1  0  0  0
  8  9  1  0  0  0
  9 10  2  0  0  0
 10  5  1  0  0  0
 18 17  1  0  0  0
 18 19  1  0  0  0
 19 20  1  0  0  0
 19 26  1  0  0  0
 20 21  1  0  0  0
 20 25  1  0  0  0
 21 22  1  0  0  0
 21 24  1  0  0  0
 22 23  1  0  0  0
 22 30  1  0  0  0
 23 18  1  0  0  0
 30 31  1  0  0  0
 31 32  1  0  0  0
 24 27  1  0  0  0
 25 28  1  0  0  0
 26 29  1  0  0  0
 11 14  1  0  0  0
 12 15  1  0  0  0
 13 16  1  0  0  0
M  END
>  <minimizedAffinity>
-7.87345

>  <minimizedRMSD>
2.63201

$$$$
MolPort-027-846-916 CSSS00160806318 MCULE-9204583293


 31 34  0  0  0  0  0  0  0  0999 V2000
    2.7689   18.7837   69.5630 C   0  0  0  0  0  0  0  0  0  0  0  0
    5.3092   18.7171   68.2918 O   0  0  0  0  0  0  0  0  0  0  0  0
    5.3098   18.7843   69.6803 C   0  0  0  0  0  0  0  0  0  0  0  0
    6.4401   18.6627   70.3068 N   0  0  0  0  0  0  0  0  0  0  0  0
    6.6665   18.7166   71.7258 C   0  0  0  0  0  0  0  0  0  0  0  0
    5.9799   19.5985   72.6076 C   0  0  0  0  0  0  0  0  0  0  0  0
    6.3502   19.6266   73.9618 C   0  0  0  0  0  0  0  0  0  0  0  0
    7.3680   18.8062   74.4479 C   0  0  0  0  0  0  0  0  0  0  0  0
    8.0457   17.9534   73.5804 C   0  0  0  0  0  0  0  0  0  0  0  0
    7.7021   17.9195   72.2291 C   0  0  0  0  0  0  0  0  0  0  0  0
    4.9275   20.5460   72.1731 C   0  0  0  0  0  0  0  0  0  0  0  0
    4.7955   21.6431   72.7786 O   0  0  0  0  0  0  0  0  0  0  0  0
    4.0178   20.2379   71.1186 N   0  0  0  0  0  0  0  0  0  0  0  0
    4.0233   18.9604   70.4291 C   0  0  0  0  0  0  0  0  0  0  0  0
    6.1157   18.6070   67.8277 H   0  0  0  0  0  0  0  0  0  0  0  0
    3.3601   20.9186   70.8477 H   0  0  0  0  0  0  0  0  0  0  0  0
    2.2427   20.0639   68.9898 C   0  0  0  0  0  0  0  0  0  0  0  0
    3.0363   20.9482   68.5701 O   0  0  0  0  0  0  0  0  0  0  0  0
    0.8319   20.2640   68.9139 N   0  0  0  0  0  0  0  0  0  0  0  0
    0.2309   19.5546   69.2376 H   0  0  0  0  0  0  0  0  0  0  0  0
    0.2556   21.4837   68.3729 C   0  0  0  0  0  0  0  0  0  0  0  0
   -1.0401   21.7643   69.0474 C   0  0  0  0  0  0  0  0  0  0  0  0
   -1.2112   21.6267   70.3882 N   0  0  0  0  0  0  0  0  0  0  0  0
   -2.5065   21.9336   70.5445 C   0  0  0  0  0  0  0  0  0  0  0  0
   -3.2369   21.9596   71.7300 C   0  0  0  0  0  0  0  0  0  0  0  0
   -4.5975   22.3093   71.6432 C   0  0  0  0  0  0  0  0  0  0  0  0
   -5.1814   22.6169   70.3938 C   0  0  0  0  0  0  0  0  0  0  0  0
   -4.4118   22.5786   69.2160 C   0  0  0  0  0  0  0  0  0  0  0  0
   -3.0692   22.2301   69.3403 C   0  0  0  0  0  0  0  0  0  0  0  0
   -2.1574   22.1252   68.3637 N   0  0  0  0  0  0  0  0  0  0  0  0
   -2.2689   22.2722   67.3966 H   0  0  0  0  0  0  0  0  0  0  0  0
  2  3  1  0  0  0
  3  4  2  0  0  0
  4  5  1  0  0  0
  5  6  2  0  0  0
  6  7  1  0  0  0
  6 11  1  0  0  0
  7  8  2  0  0  0
  8  9  1  0  0  0
  9 10  2  0  0  0
 10  5  1  0  0  0
 11 12  2  0  0  0
 11 13  1  0  0  0
 13 14  1  0  0  0
 14  1  1  0  0  0
 14  3  1  0  0  0
  1 17  1  0  0  0
 17 18  2  0  0  0
 17 19  1  0  0  0
 19 21  1  0  0  0
 21 22  1  0  0  0
 22 23  2  0  0  0
 23 24  1  0  0  0
 24 25  2  0  0  0
 25 26  1  0  0  0
 26 27  2  0  0  0
 27 28  1  0  0  0
 28 29  2  0  0  0
 29 30  1  0  0  0
 29 24  1  0  0  0
 30 22  1  0  0  0
  2 15  1  0  0  0
 13 16  1  0  0  0
 19 20  1  0  0  0
 30 31  1  0  0  0
M  END
>  <minimizedAffinity>
-7.86450

>  <minimizedRMSD>
1.75724

$$$$
MolPort-046-418-829 3806739 CSSS00102633980 LN04607766 MCULE-5168229138 MCULE-5907771990 PubChem-131801087 PubChem-164444 PubChem-45273920


 32 34  0  0  0  0  0  0  0  0999 V2000
   -1.4030   20.5258   72.1233 C   0  0  0  0  0  0  0  0  0  0  0  0
   -1.4486   19.0767   72.5778 C   0  0  0  0  0  0  0  0  0  0  0  0
   -0.1416   18.5036   72.1238 C   0  0  0  0  0  0  0  0  0  0  0  0
    0.6730   19.7486   71.8157 C   0  0  0  0  0  0  0  0  0  0  0  0
   -0.2094   20.7657   71.4177 O   0  0  0  0  0  0  0  0  0  0  0  0
   -0.3611   17.7542   70.9649 O   0  0  0  0  0  0  0  0  0  0  0  0
   -1.5210   19.0305   73.9698 O   0  0  0  0  0  0  0  0  0  0  0  0
   -0.7957   18.3091   70.2985 H   0  0  0  0  0  0  0  0  0  0  0  0
   -0.7664   19.5077   74.3488 H   0  0  0  0  0  0  0  0  0  0  0  0
    1.6957   19.5042   70.7972 N   0  0  0  0  0  0  0  0  0  0  0  0
    1.5737   19.6561   69.4607 C   0  0  0  0  0  0  0  0  0  0  0  0
    2.7245   19.3590   68.8116 N   0  0  0  0  0  0  0  0  0  0  0  0
    3.5961   19.0132   69.7826 C   0  0  0  0  0  0  0  0  0  0  0  0
    2.9607   19.1063   70.9995 C   0  0  0  0  0  0  0  0  0  0  0  0
    3.5294   18.8437   72.2801 N   0  0  0  0  0  0  0  0  0  0  0  0
    4.4676   18.5540   72.3520 H   0  0  0  0  0  0  0  0  0  0  0  0
    2.9840   18.9519   73.0925 H   0  0  0  0  0  0  0  0  0  0  0  0
    4.9882   18.6136   69.5258 C   0  0  0  0  0  0  0  0  0  0  0  0
    5.4222   18.5791   68.3446 O   0  0  0  0  0  0  0  0  0  0  0  0
    5.8554   18.2625   70.5992 N   0  0  0  0  0  0  0  0  0  0  0  0
    5.5255   18.2863   71.5264 H   0  0  0  0  0  0  0  0  0  0  0  0
    6.7849   17.9961   70.4140 H   0  0  0  0  0  0  0  0  0  0  0  0
   -2.6113   20.8609   71.2567 C   0  0  0  0  0  0  0  0  0  0  0  0
   -2.6082   22.2698   70.8878 N   0  0  0  0  0  0  0  0  0  0  0  0
   -2.9955   22.8300   71.6472 H   0  0  0  0  0  0  0  0  0  0  0  0
   -3.4319   22.4086   69.6975 C   0  0  0  0  0  0  0  0  0  0  0  0
   -1.0826   23.8340   66.4056 C   0  0  0  0  0  0  0  0  0  0  0  0
   -2.4535   24.1048   66.4560 C   0  0  0  0  0  0  0  0  0  0  0  0
   -3.2169   23.6490   67.5350 C   0  0  0  0  0  0  0  0  0  0  0  0
   -2.6094   22.9253   68.5669 C   0  0  0  0  0  0  0  0  0  0  0  0
   -1.2381   22.6506   68.5129 C   0  0  0  0  0  0  0  0  0  0  0  0
   -0.4750   23.1067   67.4338 C   0  0  0  0  0  0  0  0  0  0  0  0
 27 28  2  0  0  0
 28 29  1  0  0  0
 29 30  2  0  0  0
 30 31  1  0  0  0
 30 26  1  0  0  0
 31 32  2  0  0  0
 32 27  1  0  0  0
 26 24  1  0  0  0
 24 23  1  0  0  0
  1 23  1  0  0  0
  1  2  1  0  0  0
  2  3  1  0  0  0
  2  7  1  0  0  0
  3  4  1  0  0  0
  3  6  1  0  0  0
  4  5  1  0  0  0
  4 10  1  0  0  0
  5  1  1  0  0  0
 10 11  1  0  0  0
 11 12  2  0  0  0
 12 13  1  0  0  0
 13 14  2  0  0  0
 13 18  1  0  0  0
 14 15  1  0  0  0
 14 10  1  0  0  0
 18 19  2  0  0  0
 18 20  1  0  0  0
 24 25  1  0  0  0
 15 16  1  0  0  0
 15 17  1  0  0  0
 20 21  1  0  0  0
 20 22  1  0  0  0
  6  8  1  0  0  0
  7  9  1  0  0  0
M  END
>  <minimizedAffinity>
-7.83737

>  <minimizedRMSD>
3.69129

$$$$
MolPort-005-976-879 LN00534183


 29 31  0  0  0  0  0  0  0  0999 V2000
    0.0639   20.9044   69.3808 C   0  0  0  0  0  0  0  0  0  0  0  0
    0.6112   22.0087   69.6397 O   0  0  0  0  0  0  0  0  0  0  0  0
   -1.1285   20.5125   70.0599 N   0  0  0  0  0  0  0  0  0  0  0  0
   -1.5507   19.6507   69.8403 H   0  0  0  0  0  0  0  0  0  0  0  0
   -1.7067   21.3349   71.0333 N   0  0  0  0  0  0  0  0  0  0  0  0
   -2.9869   21.3250   71.2106 C   0  0  0  0  0  0  0  0  0  0  0  0
   -3.6253   22.1737   72.2217 C   0  0  0  0  0  0  0  0  0  0  0  0
   -2.9636   22.4939   73.4330 C   0  0  0  0  0  0  0  0  0  0  0  0
   -3.5855   23.3089   74.3961 C   0  0  0  0  0  0  0  0  0  0  0  0
   -4.8634   23.7802   74.1090 C   0  0  0  0  0  0  0  0  0  0  0  0
   -5.6747   24.5867   74.8819 O   0  0  0  0  0  0  0  0  0  0  0  0
   -6.8984   24.8032   74.1650 C   0  0  0  0  0  0  0  0  0  0  0  0
   -6.7441   24.0762   72.9378 O   0  0  0  0  0  0  0  0  0  0  0  0
   -5.5009   23.4759   72.9500 C   0  0  0  0  0  0  0  0  0  0  0  0
   -4.9177   22.6727   71.9734 C   0  0  0  0  0  0  0  0  0  0  0  0
    0.6629   20.0100   68.3489 C   0  0  0  0  0  0  0  0  0  0  0  0
    1.6746   19.0575   68.9723 C   0  0  0  0  0  0  0  0  0  0  0  0
    2.6087   19.7833   69.8233 N   0  0  0  0  0  0  0  0  0  0  0  0
    2.3419   19.9856   70.7491 H   0  0  0  0  0  0  0  0  0  0  0  0
    7.5900   21.4739   68.0574 O   0  0  0  0  0  0  0  0  0  0  0  0
    6.3497   21.0423   68.5068 C   0  0  0  0  0  0  0  0  0  0  0  0
    5.2143   21.6117   68.0264 N   0  0  0  0  0  0  0  0  0  0  0  0
    4.0163   21.2064   68.4502 N   0  0  0  0  0  0  0  0  0  0  0  0
    3.8959   20.2150   69.3731 C   0  0  0  0  0  0  0  0  0  0  0  0
    5.0571   19.6222   69.8723 C   0  0  0  0  0  0  0  0  0  0  0  0
    4.9856   18.6048   70.8160 O   0  0  0  0  0  0  0  0  0  0  0  0
    6.2661   20.0493   69.4280 N   0  0  0  0  0  0  0  0  0  0  0  0
    7.6451   22.1597   67.4213 H   0  0  0  0  0  0  0  0  0  0  0  0
    4.1515   18.3090   71.1237 H   0  0  0  0  0  0  0  0  0  0  0  0
 20 21  1  0  0  0
 21 22  2  0  0  0
 22 23  1  0  0  0
 23 24  2  0  0  0
 24 18  1  0  0  0
 24 25  1  0  0  0
 18 17  1  0  0  0
 17 16  1  0  0  0
 16  1  1  0  0  0
  1  2  2  0  0  0
  1  3  1  0  0  0
  3  5  1  0  0  0
  5  6  2  0  0  0
  6  7  1  0  0  0
  7  8  2  0  0  0
  8  9  1  0  0  0
  9 10  2  0  0  0
 10 11  1  0  0  0
 11 12  1  0  0  0
 12 13  1  0  0  0
 13 14  1  0  0  0
 14 15  2  0  0  0
 14 10  1  0  0  0
 15  7  1  0  0  0
 25 26  1  0  0  0
 25 27  2  0  0  0
 27 21  1  0  0  0
 20 28  1  0  0  0
 18 19  1  0  0  0
  3  4  1  0  0  0
 26 29  1  0  0  0
M  END
>  <minimizedAffinity>
-7.80831

>  <minimizedRMSD>
2.22967

$$$$
MolPort-046-688-537


 29 31  0  0  0  0  0  0  0  0999 V2000
    4.1975   18.8691   72.2819 N   0  0  0  0  0  0  0  0  0  0  0  0
    3.0948   19.3336   71.5093 C   0  0  0  0  0  0  0  0  0  0  0  0
    1.8571   19.5286   72.0416 N   0  0  0  0  0  0  0  0  0  0  0  0
    1.1594   19.9752   70.9786 C   0  0  0  0  0  0  0  0  0  0  0  0
    1.9474   20.0406   69.8789 C   0  0  0  0  0  0  0  0  0  0  0  0
    1.4929   20.4721   68.6774 N   0  0  0  0  0  0  0  0  0  0  0  0
    0.1812   20.8497   68.5867 C   0  0  0  0  0  0  0  0  0  0  0  0
   -0.3376   21.3075   67.3442 N   0  0  0  0  0  0  0  0  0  0  0  0
   -0.6374   20.7907   69.6871 N   0  0  0  0  0  0  0  0  0  0  0  0
   -0.1717   20.3574   70.8957 C   0  0  0  0  0  0  0  0  0  0  0  0
   -0.9318   20.3106   71.8981 O   0  0  0  0  0  0  0  0  0  0  0  0
    3.1826   19.6334   70.1864 N   0  0  0  0  0  0  0  0  0  0  0  0
    4.0781   18.6665   73.2379 H   0  0  0  0  0  0  0  0  0  0  0  0
    5.0790   18.7507   71.8600 H   0  0  0  0  0  0  0  0  0  0  0  0
    2.0880   20.5125   67.8942 H   0  0  0  0  0  0  0  0  0  0  0  0
    0.2466   21.3512   66.5529 H   0  0  0  0  0  0  0  0  0  0  0  0
   -1.2809   21.5807   67.2753 H   0  0  0  0  0  0  0  0  0  0  0  0
    4.3444   19.5872   69.3048 C   0  0  0  0  0  0  0  0  0  0  0  0
    5.3260   18.7323   69.8364 O   0  0  0  0  0  0  0  0  0  0  0  0
    6.5574   19.2808   69.4461 C   0  0  0  0  0  0  0  0  0  0  0  0
    6.4024   20.7792   69.3696 C   0  0  0  0  0  0  0  0  0  0  0  0
    7.1880   21.2921   68.3334 O   0  0  0  0  0  0  0  0  0  0  0  0
    4.9260   20.9745   69.1218 C   0  0  0  0  0  0  0  0  0  0  0  0
    4.6668   21.4129   67.8204 O   0  0  0  0  0  0  0  0  0  0  0  0
    6.9419   20.8638   67.4986 H   0  0  0  0  0  0  0  0  0  0  0  0
    5.0243   20.7720   67.1861 H   0  0  0  0  0  0  0  0  0  0  0  0
    7.6299   18.9260   70.4593 C   0  0  0  0  0  0  0  0  0  0  0  0
    7.3630   17.6736   71.0119 O   0  0  0  0  0  0  0  0  0  0  0  0
    6.5003   17.6929   71.4550 H   0  0  0  0  0  0  0  0  0  0  0  0
  1  2  1  0  0  0
  2  3  2  0  0  0
  3  4  1  0  0  0
  4  5  2  0  0  0
  5  6  1  0  0  0
  6  7  1  0  0  0
  7  8  1  0  0  0
  7  9  2  0  0  0
  9 10  1  0  0  0
 10 11  2  0  0  0
  5 12  1  0  0  0
 18 12  1  0  0  0
 18 19  1  0  0  0
 19 20  1  0  0  0
 20 27  1  0  0  0
 27 28  1  0  0  0
 20 21  1  0  0  0
 21 22  1  0  0  0
 21 23  1  0  0  0
 23 24  1  0  0  0
 12  2  1  0  0  0
 23 18  1  0  0  0
 10  4  1  0  0  0
  1 13  1  0  0  0
  1 14  1  0  0  0
  6 15  1  0  0  0
  8 16  1  0  0  0
  8 17  1  0  0  0
 28 29  1  0  0  0
 22 25  1  0  0  0
 24 26  1  0  0  0
M  END
>  <minimizedAffinity>
-7.80023

>  <minimizedRMSD>
0.86961

$$$$
MolPort-006-822-883 CSSS00025726844 LN00194415 MCULE-4419979447 MCULE-6003438168 PubChem-46781992


 31 32  0  0  0  0  0  0  0  0999 V2000
    2.3384   20.4116   68.3307 O   0  0  0  0  0  0  0  0  0  0  0  0
    4.5082   20.0794   71.0514 C   0  0  0  0  0  0  0  0  0  0  0  0
    5.7691   19.4193   70.4574 C   0  0  0  0  0  0  0  0  0  0  0  0
    5.6294   19.2613   68.9379 C   0  0  0  0  0  0  0  0  0  0  0  0
    4.7397   20.3381   68.2956 C   0  0  0  0  0  0  0  0  0  0  0  0
    3.4676   20.5991   69.1283 C   0  0  0  0  0  0  0  0  0  0  0  0
    3.3836   19.7723   70.2681 O   0  0  0  0  0  0  0  0  0  0  0  0
    5.4459   21.5348   68.1565 O   0  0  0  0  0  0  0  0  0  0  0  0
    6.8867   19.2216   68.3326 O   0  0  0  0  0  0  0  0  0  0  0  0
    5.9944   18.1592   71.0185 O   0  0  0  0  0  0  0  0  0  0  0  0
    5.7066   21.8600   69.0324 H   0  0  0  0  0  0  0  0  0  0  0  0
    7.3434   20.0645   68.4804 H   0  0  0  0  0  0  0  0  0  0  0  0
    5.2458   17.5766   70.8160 H   0  0  0  0  0  0  0  0  0  0  0  0
    4.2710   19.7174   72.5108 C   0  0  0  0  0  0  0  0  0  0  0  0
    2.9230   19.8848   72.8273 O   0  0  0  0  0  0  0  0  0  0  0  0
    2.3846   19.3065   72.2646 H   0  0  0  0  0  0  0  0  0  0  0  0
    1.3651   21.2397   68.8926 C   0  0  0  0  0  0  0  0  0  0  0  0
   -0.0144   20.8315   68.3883 C   0  0  0  0  0  0  0  0  0  0  0  0
   -0.8408   22.0202   67.8766 C   0  0  0  0  0  0  0  0  0  0  0  0
   -1.4992   22.7905   69.0171 C   0  0  0  0  0  0  0  0  0  0  0  0
   -2.1876   21.8215   69.9747 C   0  0  0  0  0  0  0  0  0  0  0  0
   -1.2490   20.6858   70.3943 C   0  0  0  0  0  0  0  0  0  0  0  0
   -0.7126   19.9784   69.2871 O   0  0  0  0  0  0  0  0  0  0  0  0
   -0.2440   21.1239   71.2631 O   0  0  0  0  0  0  0  0  0  0  0  0
   -2.6833   22.4948   71.0931 O   0  0  0  0  0  0  0  0  0  0  0  0
   -0.5479   23.5656   69.6861 O   0  0  0  0  0  0  0  0  0  0  0  0
   -1.8172   21.5646   66.9898 O   0  0  0  0  0  0  0  0  0  0  0  0
    0.3267   21.7593   70.8032 H   0  0  0  0  0  0  0  0  0  0  0  0
   -1.9478   22.8990   71.5795 H   0  0  0  0  0  0  0  0  0  0  0  0
    0.1358   22.9875   70.0592 H   0  0  0  0  0  0  0  0  0  0  0  0
   -2.4166   20.9584   67.4524 H   0  0  0  0  0  0  0  0  0  0  0  0
 14 15  1  0  0  0
  2 14  1  0  0  0
  2  3  1  0  0  0
  3  4  1  0  0  0
  3 10  1  0  0  0
  4  5  1  0  0  0
  4  9  1  0  0  0
  5  6  1  0  0  0
  5  8  1  0  0  0
  6  7  1  0  0  0
  6  1  1  0  0  0
  7  2  1  0  0  0
  1 17  1  0  0  0
 18 17  1  0  0  0
 18 19  1  0  0  0
 19 20  1  0  0  0
 19 27  1  0  0  0
 20 21  1  0  0  0
 20 26  1  0  0  0
 21 22  1  0  0  0
 21 25  1  0  0  0
 22 23  1  0  0  0
 22 24  1  0  0  0
 23 18  1  0  0  0
 24 28  1  0  0  0
 25 29  1  0  0  0
 26 30  1  0  0  0
 27 31  1  0  0  0
  8 11  1  0  0  0
  9 12  1  0  0  0
 10 13  1  0  0  0
 15 16  1  0  0  0
M  END
>  <minimizedAffinity>
-7.77806

>  <minimizedRMSD>
2.91887

$$$$
MolPort-006-148-510 CSSS02515421317 MCULE-4778497739 PubChem-4678529


 32 34  0  0  0  0  0  0  0  0999 V2000
    5.5195   21.3431   72.4023 C   0  0  0  0  0  0  0  0  0  0  0  0
    5.2710   19.8620   72.1531 C   0  0  0  0  0  0  0  0  0  0  0  0
    6.5062   19.0862   72.5852 C   0  0  0  0  0  0  0  0  0  0  0  0
    6.9525   18.2622   71.3896 C   0  0  0  0  0  0  0  0  0  0  0  0
    6.3437   18.9099   70.1498 C   0  0  0  0  0  0  0  0  0  0  0  0
    5.0446   19.5122   70.6756 C   0  0  0  0  0  0  0  0  0  0  0  0
    4.4552   20.6302   69.7977 C   0  0  0  0  0  0  0  0  0  0  0  0
    5.4605   21.5064   69.2823 O   0  0  0  0  0  0  0  0  0  0  0  0
    6.8080   21.1494   69.1633 C   0  0  0  0  0  0  0  0  0  0  0  0
    7.2512   19.9526   69.5444 C   0  0  0  0  0  0  0  0  0  0  0  0
    6.0639   17.9274   69.1998 O   0  0  0  0  0  0  0  0  0  0  0  0
    8.3469   18.1853   71.3325 O   0  0  0  0  0  0  0  0  0  0  0  0
    4.1716   19.4454   72.9024 O   0  0  0  0  0  0  0  0  0  0  0  0
    5.4806   17.2575   69.5896 H   0  0  0  0  0  0  0  0  0  0  0  0
    8.7174   19.0791   71.2642 H   0  0  0  0  0  0  0  0  0  0  0  0
    4.3142   19.6663   73.8361 H   0  0  0  0  0  0  0  0  0  0  0  0
    3.7296   20.0763   68.7406 O   0  0  0  0  0  0  0  0  0  0  0  0
    2.3944   20.1606   69.1395 C   0  0  0  0  0  0  0  0  0  0  0  0
    1.7212   18.7874   68.9946 C   0  0  0  0  0  0  0  0  0  0  0  0
    0.2744   18.8931   68.4914 C   0  0  0  0  0  0  0  0  0  0  0  0
   -0.4338   20.1709   68.9645 C   0  0  0  0  0  0  0  0  0  0  0  0
    0.5186   21.3779   69.0431 C   0  0  0  0  0  0  0  0  0  0  0  0
    1.7302   21.1321   68.3729 O   0  0  0  0  0  0  0  0  0  0  0  0
   -1.0120   19.9538   70.2149 O   0  0  0  0  0  0  0  0  0  0  0  0
    0.2650   18.8480   67.0970 O   0  0  0  0  0  0  0  0  0  0  0  0
    1.7475   18.1263   70.2222 O   0  0  0  0  0  0  0  0  0  0  0  0
   -0.3182   19.7461   70.8602 H   0  0  0  0  0  0  0  0  0  0  0  0
    0.7570   19.6066   66.7456 H   0  0  0  0  0  0  0  0  0  0  0  0
    1.2463   18.6384   70.8760 H   0  0  0  0  0  0  0  0  0  0  0  0
   -0.1473   22.6299   68.4923 C   0  0  0  0  0  0  0  0  0  0  0  0
   -0.2486   22.5601   67.1013 O   0  0  0  0  0  0  0  0  0  0  0  0
    0.6385   22.4882   66.7157 H   0  0  0  0  0  0  0  0  0  0  0  0
  2  1  1  0  0  0
  2  3  1  0  0  0
  2 13  1  0  0  0
  3  4  1  0  0  0
  4  5  1  0  0  0
  4 12  1  0  0  0
  5 11  1  0  0  0
  6  5  1  0  0  0
  6  7  1  0  0  0
  6  2  1  0  0  0
  7  8  1  0  0  0
  7 17  1  0  0  0
  8  9  1  0  0  0
  9 10  2  0  0  0
 10  5  1  0  0  0
 18 17  1  0  0  0
 18 19  1  0  0  0
 19 20  1  0  0  0
 19 26  1  0  0  0
 20 21  1  0  0  0
 20 25  1  0  0  0
 21 22  1  0  0  0
 21 24  1  0  0  0
 22 23  1  0  0  0
 22 30  1  0  0  0
 23 18  1  0  0  0
 30 31  1  0  0  0
 31 32  1  0  0  0
 24 27  1  0  0  0
 25 28  1  0  0  0
 26 29  1  0  0  0
 11 14  1  0  0  0
 12 15  1  0  0  0
 13 16  1  0  0  0
M  END
>  <minimizedAffinity>
-7.76291

>  <minimizedRMSD>
2.69713

$$$$
MolPort-005-949-698 8624334 CSSS00159281311 MCULE-5412578423 PubChem-40777865 ZINC000008624334 ZINC08624334


 31 33  0  0  0  0  0  0  0  0999 V2000
    1.2980   20.8074   68.7854 C   0  0  0  0  0  0  0  0  0  0  0  0
    2.1005   20.6424   69.9308 O   0  0  0  0  0  0  0  0  0  0  0  0
    1.5006   19.6383   70.7120 C   0  0  0  0  0  0  0  0  0  0  0  0
    0.6643   18.7650   69.8157 C   0  0  0  0  0  0  0  0  0  0  0  0
   -0.4795   18.3450   70.4942 O   0  0  0  0  0  0  0  0  0  0  0  0
    0.2844   19.6840   68.7029 C   0  0  0  0  0  0  0  0  0  0  0  0
    0.4117   19.0219   67.4825 O   0  0  0  0  0  0  0  0  0  0  0  0
   -0.9705   19.1195   70.8104 H   0  0  0  0  0  0  0  0  0  0  0  0
    1.3196   18.6943   67.3855 H   0  0  0  0  0  0  0  0  0  0  0  0
    0.6093   22.1649   68.8319 C   0  0  0  0  0  0  0  0  0  0  0  0
   -3.1967   22.0204   68.5095 N   0  0  0  0  0  0  0  0  0  0  0  0
   -1.9068   22.2012   69.1044 C   0  0  0  0  0  0  0  0  0  0  0  0
   -1.8007   22.4784   70.3304 O   0  0  0  0  0  0  0  0  0  0  0  0
   -0.7397   22.0722   68.2912 N   0  0  0  0  0  0  0  0  0  0  0  0
   -3.2311   21.8173   67.5467 H   0  0  0  0  0  0  0  0  0  0  0  0
   -0.8517   21.9142   67.3260 H   0  0  0  0  0  0  0  0  0  0  0  0
   -4.6360   23.4910   69.8456 C   0  0  0  0  0  0  0  0  0  0  0  0
   -4.4648   22.1155   69.2274 C   0  0  0  0  0  0  0  0  0  0  0  0
   -4.5659   21.0388   70.2925 C   0  0  0  0  0  0  0  0  0  0  0  0
    2.5669   18.8000   71.3989 C   0  0  0  0  0  0  0  0  0  0  0  0
    3.6233   19.6716   71.9973 C   0  0  0  0  0  0  0  0  0  0  0  0
    3.3666   20.3157   73.0496 O   0  0  0  0  0  0  0  0  0  0  0  0
    4.9174   19.7646   71.3838 N   0  0  0  0  0  0  0  0  0  0  0  0
    5.3071   19.0635   70.1604 C   0  0  0  0  0  0  0  0  0  0  0  0
    6.7653   19.4807   69.8695 C   0  0  0  0  0  0  0  0  0  0  0  0
    7.0845   20.4121   70.9833 C   0  0  0  0  0  0  0  0  0  0  0  0
    8.2806   21.0915   71.2135 C   0  0  0  0  0  0  0  0  0  0  0  0
    8.3641   21.9295   72.3373 C   0  0  0  0  0  0  0  0  0  0  0  0
    7.2614   22.0718   73.2011 C   0  0  0  0  0  0  0  0  0  0  0  0
    6.0684   21.3766   72.9465 C   0  0  0  0  0  0  0  0  0  0  0  0
    6.0132   20.5491   71.8214 C   0  0  0  0  0  0  0  0  0  0  0  0
 17 18  1  0  0  0
 18 19  1  0  0  0
 18 11  1  0  0  0
 11 12  1  0  0  0
 12 13  2  0  0  0
 12 14  1  0  0  0
 14 10  1  0  0  0
  1 10  1  0  0  0
  1  2  1  0  0  0
  2  3  1  0  0  0
  3 20  1  0  0  0
  3  4  1  0  0  0
 20 21  1  0  0  0
 21 22  2  0  0  0
 21 23  1  0  0  0
 23 24  1  0  0  0
 24 25  1  0  0  0
 25 26  1  0  0  0
 26 27  2  0  0  0
 27 28  1  0  0  0
 28 29  2  0  0  0
 29 30  1  0  0  0
 30 31  2  0  0  0
 31 23  1  0  0  0
 31 26  1  0  0  0
  4  5  1  0  0  0
  4  6  1  0  0  0
  6  7  1  0  0  0
  6  1  1  0  0  0
 11 15  1  0  0  0
 14 16  1  0  0  0
  5  8  1  0  0  0
  7  9  1  0  0  0
M  END
>  <minimizedAffinity>
-7.76071

>  <minimizedRMSD>
4.58517

$$$$
Molport-053-106-469 3917694 LN02182476 MCULE-8024575368 PubChem-9804719 ZINC000003917694


 43 43  0  0  0  0  0  0  0  0999 V2000
    1.0996   20.1178   69.1030 C   0  0  0  0  0  0  0  0  0  0  0  0
    3.4084   19.4549   69.9091 C   0  0  0  0  0  0  0  0  0  0  0  0
    3.6854   18.9385   68.7919 O   0  0  0  0  0  0  0  0  0  0  0  0
    2.1293   20.0491   70.1352 N   0  0  0  0  0  0  0  0  0  0  0  0
    1.9344   20.4274   71.0230 H   0  0  0  0  0  0  0  0  0  0  0  0
    3.7219   19.6892   72.3456 C   0  0  0  0  0  0  0  0  0  0  0  0
    4.4100   19.4349   71.0184 C   0  0  0  0  0  0  0  0  0  0  0  0
    5.4317   20.4487   70.7964 N   0  0  0  0  0  0  0  0  0  0  0  0
    6.8101   20.1261   70.6020 C   0  0  0  0  0  0  0  0  0  0  0  0
    7.2082   18.9327   70.6975 O   0  0  0  0  0  0  0  0  0  0  0  0
    5.1615   21.3952   70.7795 H   0  0  0  0  0  0  0  0  0  0  0  0
    7.7718   21.2156   70.2517 C   0  0  0  0  0  0  0  0  0  0  0  0
    8.3244   21.7975   71.4624 N   0  0  0  0  0  0  0  0  0  0  0  0
    8.8302   21.0814   71.9837 H   0  0  0  0  0  0  0  0  0  0  0  0
    7.5678   22.1667   72.0382 H   0  0  0  0  0  0  0  0  0  0  0  0
    8.9008   20.6858   69.3779 C   0  0  0  0  0  0  0  0  0  0  0  0
    8.9806   21.4368   68.0913 C   0  0  0  0  0  0  0  0  0  0  0  0
    7.9333   21.6636   67.4321 O   0  0  0  0  0  0  0  0  0  0  0  0
   10.2078   21.8802   67.6152 O   0  0  0  0  0  0  0  0  0  0  0  0
   10.9887   21.7121   68.1049 H   0  0  0  0  0  0  0  0  0  0  0  0
    0.2676   21.3630   69.2154 C   0  0  0  0  0  0  0  0  0  0  0  0
    0.7572   22.4207   69.6986 O   0  0  0  0  0  0  0  0  0  0  0  0
   -1.0956   21.3306   68.7876 N   0  0  0  0  0  0  0  0  0  0  0  0
   -1.4404   20.5083   68.3702 H   0  0  0  0  0  0  0  0  0  0  0  0
   -1.9959   22.4663   68.9444 C   0  0  0  0  0  0  0  0  0  0  0  0
   -2.6719   22.4082   70.2764 C   0  0  0  0  0  0  0  0  0  0  0  0
   -3.8594   22.8072   70.4110 O   0  0  0  0  0  0  0  0  0  0  0  0
   -1.9871   21.9014   71.3721 O   0  0  0  0  0  0  0  0  0  0  0  0
   -1.1038   21.6037   71.2759 H   0  0  0  0  0  0  0  0  0  0  0  0
   -3.0339   22.4633   67.8343 C   0  0  0  0  0  0  0  0  0  0  0  0
   -3.0061   23.7821   67.0863 C   0  0  0  0  0  0  0  0  0  0  0  0
   -1.9343   23.7329   66.0149 C   0  0  0  0  0  0  0  0  0  0  0  0
   -0.7995   24.6790   66.3616 C   0  0  0  0  0  0  0  0  0  0  0  0
    0.4756   24.0772   66.0114 N   0  0  0  0  0  0  0  0  0  0  0  0
    0.5967   23.2092   66.5333 H   0  0  0  0  0  0  0  0  0  0  0  0
    1.2311   24.7218   66.2438 H   0  0  0  0  0  0  0  0  0  0  0  0
    0.2386   18.8531   69.1091 C   0  0  0  0  0  0  0  0  0  0  0  0
   -0.4373   18.6080   70.4220 C   0  0  0  0  0  0  0  0  0  0  0  0
    0.1860   18.1560   71.5589 C   0  0  0  0  0  0  0  0  0  0  0  0
   -0.7550   18.0422   72.5138 N   0  0  0  0  0  0  0  0  0  0  0  0
   -1.9121   18.4201   71.9309 C   0  0  0  0  0  0  0  0  0  0  0  0
   -1.7524   18.7717   70.6399 N   0  0  0  0  0  0  0  0  0  0  0  0
   -2.4396   19.0773   70.0045 H   0  0  0  0  0  0  0  0  0  0  0  0
  7  6  1  0  0  0
  7  2  1  0  0  0
  7  8  1  0  0  0
  2  3  2  0  0  0
  2  4  1  0  0  0
  1  4  1  0  0  0
  1 37  1  0  0  0
  1 21  1  0  0  0
 37 38  1  0  0  0
 38 39  2  0  0  0
 39 40  1  0  0  0
 40 41  2  0  0  0
 41 42  1  0  0  0
 42 38  1  0  0  0
 21 22  2  0  0  0
 21 23  1  0  0  0
 25 23  1  0  0  0
 25 30  1  0  0  0
 25 26  1  0  0  0
 30 31  1  0  0  0
 31 32  1  0  0  0
 32 33  1  0  0  0
 33 34  1  0  0  0
 26 27  2  0  0  0
 26 28  1  0  0  0
  8  9  1  0  0  0
  9 10  2  0  0  0
 12  9  1  0  0  0
 12 16  1  0  0  0
 12 13  1  0  0  0
 16 17  1  0  0  0
 17 18  2  0  0  0
 17 19  1  0  0  0
  4  5  1  0  0  0
 42 43  1  0  0  0
 23 24  1  0  0  0
 34 35  1  0  0  0
 34 36  1  0  0  0
 28 29  1  0  0  0
  8 11  1  0  0  0
 19 20  1  0  0  0
 13 14  1  0  0  0
 13 15  1  0  0  0
M  END
>  <minimizedAffinity>
-7.73423

>  <minimizedRMSD>
2.56980

$$$$
Molport-047-586-651 15721753 LN02221521 MCULE-2510472172 MCULE-6340560700 PubChem-67438263 ZINC000015721753


 40 40  0  0  0  0  0  0  0  0999 V2000
    1.6033   18.9232   70.0566 C   0  0  0  0  0  0  0  0  0  0  0  0
    1.5302   18.1935   69.0300 O   0  0  0  0  0  0  0  0  0  0  0  0
    2.8703   19.2262   70.6421 N   0  0  0  0  0  0  0  0  0  0  0  0
    2.8922   19.7648   71.4659 H   0  0  0  0  0  0  0  0  0  0  0  0
    0.3662   19.4852   70.6709 C   0  0  0  0  0  0  0  0  0  0  0  0
   -0.5537   18.3628   71.1186 C   0  0  0  0  0  0  0  0  0  0  0  0
   -1.2501   21.3491   70.1073 C   0  0  0  0  0  0  0  0  0  0  0  0
   -1.4798   21.5649   71.3289 O   0  0  0  0  0  0  0  0  0  0  0  0
   -0.3176   20.3415   69.7120 N   0  0  0  0  0  0  0  0  0  0  0  0
   -0.1298   20.2212   68.7531 H   0  0  0  0  0  0  0  0  0  0  0  0
   -0.9772   23.0291   68.3095 C   0  0  0  0  0  0  0  0  0  0  0  0
   -1.9535   22.1426   69.0576 C   0  0  0  0  0  0  0  0  0  0  0  0
   -2.9965   22.9567   69.6610 N   0  0  0  0  0  0  0  0  0  0  0  0
   -4.3748   22.5921   69.5955 C   0  0  0  0  0  0  0  0  0  0  0  0
   -4.7219   21.5292   69.0110 O   0  0  0  0  0  0  0  0  0  0  0  0
   -2.7440   23.7850   70.1293 H   0  0  0  0  0  0  0  0  0  0  0  0
   -5.3290   23.4296   70.1882 O   0  0  0  0  0  0  0  0  0  0  0  0
   -5.9434   23.1912   71.4567 C   0  0  0  0  0  0  0  0  0  0  0  0
   -6.6768   24.4446   71.8836 C   0  0  0  0  0  0  0  0  0  0  0  0
   -6.9480   22.0560   71.3631 C   0  0  0  0  0  0  0  0  0  0  0  0
   -4.8962   22.8667   72.5077 C   0  0  0  0  0  0  0  0  0  0  0  0
    4.1341   18.7710   70.0708 C   0  0  0  0  0  0  0  0  0  0  0  0
    5.2937   19.1110   70.9602 C   0  0  0  0  0  0  0  0  0  0  0  0
    5.1237   19.8445   71.9725 O   0  0  0  0  0  0  0  0  0  0  0  0
    6.5928   18.5995   70.6308 N   0  0  0  0  0  0  0  0  0  0  0  0
    6.6516   18.0266   69.8323 H   0  0  0  0  0  0  0  0  0  0  0  0
    7.8152   18.8357   71.3433 C   0  0  0  0  0  0  0  0  0  0  0  0
    8.0941   18.2129   72.5688 C   0  0  0  0  0  0  0  0  0  0  0  0
    9.2977   18.4649   73.2317 C   0  0  0  0  0  0  0  0  0  0  0  0
   10.2399   19.3436   72.6801 C   0  0  0  0  0  0  0  0  0  0  0  0
    9.9595   19.9662   71.4547 C   0  0  0  0  0  0  0  0  0  0  0  0
    8.7549   19.7127   70.7930 C   0  0  0  0  0  0  0  0  0  0  0  0
   11.4746   19.6004   73.3635 N   0  0  0  0  0  0  0  0  0  0  0  0
   12.4740   20.0077   72.7358 O   0  0  0  0  0  0  0  0  0  0  0  0
   11.5752   19.3862   74.7192 O   0  0  0  0  0  0  0  0  0  0  0  0
    4.3336   19.3082   68.6489 C   0  0  0  0  0  0  0  0  0  0  0  0
    4.4738   20.7974   68.5954 C   0  0  0  0  0  0  0  0  0  0  0  0
    3.5086   21.5413   68.9105 O   0  0  0  0  0  0  0  0  0  0  0  0
    5.6703   21.3609   68.1740 O   0  0  0  0  0  0  0  0  0  0  0  0
    6.3906   20.8097   67.9387 H   0  0  0  0  0  0  0  0  0  0  0  0
 12 11  1  0  0  0
 12 13  1  0  0  0
 13 14  1  0  0  0
 14 15  2  0  0  0
 14 17  1  0  0  0
 17 18  1  0  0  0
 18 19  1  0  0  0
 18 20  1  0  0  0
 18 21  1  0  0  0
 12  7  1  0  0  0
  7  8  2  0  0  0
  7  9  1  0  0  0
  9  5  1  0  0  0
  5  6  1  0  0  0
  5  1  1  0  0  0
  1  2  2  0  0  0
  1  3  1  0  0  0
  3 22  1  0  0  0
 22 36  1  0  0  0
 36 37  1  0  0  0
 37 38  2  0  0  0
 37 39  1  0  0  0
 22 23  1  0  0  0
 23 24  2  0  0  0
 23 25  1  0  0  0
 25 27  1  0  0  0
 27 28  2  0  0  0
 28 29  1  0  0  0
 29 30  2  0  0  0
 30 33  1  0  0  0
 33 34  2  0  0  0
 33 35  1  0  0  0
 30 31  1  0  0  0
 31 32  2  0  0  0
 32 27  1  0  0  0
 13 16  1  0  0  0
  9 10  1  0  0  0
  3  4  1  0  0  0
 39 40  1  0  0  0
 25 26  1  0  0  0
M  CHG 1  33   1
M  CHG 1  35  -1
M  END
>  <minimizedAffinity>
-7.72163

>  <minimizedRMSD>
3.55172

$$$$
Molport-039-336-727 MCULE-5267618752 PubChem-71299550 ZINC000077269588 ZINC77269588


 34 35  0  0  0  0  0  0  0  0999 V2000
   -1.4418   21.3238   69.0562 C   0  0  0  0  0  0  0  0  0  0  0  0
   -0.5668   21.1772   70.3066 C   0  0  0  0  0  0  0  0  0  0  0  0
    0.5081   20.1126   70.0893 C   0  0  0  0  0  0  0  0  0  0  0  0
    1.2453   20.4255   68.7810 C   0  0  0  0  0  0  0  0  0  0  0  0
    0.3552   20.3965   67.6847 O   0  0  0  0  0  0  0  0  0  0  0  0
   -0.5600   21.4696   67.8050 C   0  0  0  0  0  0  0  0  0  0  0  0
    0.1003   22.7052   67.7722 O   0  0  0  0  0  0  0  0  0  0  0  0
   -0.0700   18.8396   70.0297 O   0  0  0  0  0  0  0  0  0  0  0  0
   -1.3453   20.8550   71.4201 O   0  0  0  0  0  0  0  0  0  0  0  0
    0.7032   22.7698   68.5293 H   0  0  0  0  0  0  0  0  0  0  0  0
   -0.7013   18.8053   69.2940 H   0  0  0  0  0  0  0  0  0  0  0  0
   -1.7872   20.0046   71.2705 H   0  0  0  0  0  0  0  0  0  0  0  0
   -4.5041   23.5852   69.7947 C   0  0  0  0  0  0  0  0  0  0  0  0
   -3.6757   22.3613   69.6426 C   0  0  0  0  0  0  0  0  0  0  0  0
   -4.1713   21.2355   69.9139 O   0  0  0  0  0  0  0  0  0  0  0  0
   -2.3294   22.4733   69.1790 N   0  0  0  0  0  0  0  0  0  0  0  0
   -1.9872   23.3629   68.9325 H   0  0  0  0  0  0  0  0  0  0  0  0
    2.3868   19.4488   68.5428 C   0  0  0  0  0  0  0  0  0  0  0  0
    3.5898   20.1436   68.3951 O   0  0  0  0  0  0  0  0  0  0  0  0
    4.4606   19.5487   69.3097 C   0  0  0  0  0  0  0  0  0  0  0  0
    5.8296   19.3124   68.6496 C   0  0  0  0  0  0  0  0  0  0  0  0
    6.9955   19.6453   69.5902 C   0  0  0  0  0  0  0  0  0  0  0  0
    6.6811   19.2746   71.0518 C   0  0  0  0  0  0  0  0  0  0  0  0
    5.2032   19.5615   71.4227 C   0  0  0  0  0  0  0  0  0  0  0  0
    4.5778   20.3620   70.4509 O   0  0  0  0  0  0  0  0  0  0  0  0
    7.5862   19.8953   71.9198 O   0  0  0  0  0  0  0  0  0  0  0  0
    7.2901   21.0073   69.4860 O   0  0  0  0  0  0  0  0  0  0  0  0
    5.9216   17.9840   68.2355 O   0  0  0  0  0  0  0  0  0  0  0  0
    7.4978   20.8583   71.8445 H   0  0  0  0  0  0  0  0  0  0  0  0
    6.5163   21.5269   69.7547 H   0  0  0  0  0  0  0  0  0  0  0  0
    5.8543   17.3995   69.0067 H   0  0  0  0  0  0  0  0  0  0  0  0
    5.0237   20.1684   72.8081 C   0  0  0  0  0  0  0  0  0  0  0  0
    3.6660   20.3382   73.0789 O   0  0  0  0  0  0  0  0  0  0  0  0
    3.2765   20.9327   72.4187 H   0  0  0  0  0  0  0  0  0  0  0  0
 13 14  1  0  0  0
 14 15  2  0  0  0
 14 16  1  0  0  0
  1 16  1  0  0  0
  1  2  1  0  0  0
  2  3  1  0  0  0
  2  9  1  0  0  0
  3  4  1  0  0  0
  3  8  1  0  0  0
  4  5  1  0  0  0
  4 18  1  0  0  0
  5  6  1  0  0  0
  6  7  1  0  0  0
  6  1  1  0  0  0
 18 19  1  0  0  0
 20 19  1  0  0  0
 20 21  1  0  0  0
 21 22  1  0  0  0
 21 28  1  0  0  0
 22 23  1  0  0  0
 22 27  1  0  0  0
 23 24  1  0  0  0
 23 26  1  0  0  0
 24 25  1  0  0  0
 24 32  1  0  0  0
 25 20  1  0  0  0
 32 33  1  0  0  0
 16 17  1  0  0  0
  7 10  1  0  0  0
 33 34  1  0  0  0
 26 29  1  0  0  0
 27 30  1  0  0  0
 28 31  1  0  0  0
  8 11  1  0  0  0
  9 12  1  0  0  0
M  END
>  <minimizedAffinity>
-7.70301

>  <minimizedRMSD>
2.11667

$$$$
MolPort-046-156-408 MCULE-4634385898 PubChem-91446


 30 31  0  0  0  0  0  0  0  0999 V2000
    1.2892   20.2111   69.4794 C   0  0  0  0  0  0  0  0  0  0  0  0
    0.7614   19.3806   70.6581 C   0  0  0  0  0  0  0  0  0  0  0  0
    1.9081   18.6377   71.3474 C   0  0  0  0  0  0  0  0  0  0  0  0
    3.0810   19.5742   71.6144 C   0  0  0  0  0  0  0  0  0  0  0  0
    3.4553   20.2745   70.3069 C   0  0  0  0  0  0  0  0  0  0  0  0
    2.3793   21.0493   69.8216 O   0  0  0  0  0  0  0  0  0  0  0  0
    4.1693   18.8340   72.0798 O   0  0  0  0  0  0  0  0  0  0  0  0
    1.4678   18.0554   72.5379 O   0  0  0  0  0  0  0  0  0  0  0  0
    0.1154   20.2260   71.5636 O   0  0  0  0  0  0  0  0  0  0  0  0
    4.4186   18.1729   71.4152 H   0  0  0  0  0  0  0  0  0  0  0  0
    1.1603   18.7487   73.1426 H   0  0  0  0  0  0  0  0  0  0  0  0
    0.7443   20.8861   71.8948 H   0  0  0  0  0  0  0  0  0  0  0  0
    1.4868   19.4307   68.1764 C   0  0  0  0  0  0  0  0  0  0  0  0
    0.3082   19.3721   67.4312 O   0  0  0  0  0  0  0  0  0  0  0  0
    0.0290   20.2709   67.1965 H   0  0  0  0  0  0  0  0  0  0  0  0
    4.5763   21.1229   70.5219 O   0  0  0  0  0  0  0  0  0  0  0  0
    5.8189   20.9885   69.8801 C   0  0  0  0  0  0  0  0  0  0  0  0
    6.9208   20.5718   70.6380 C   0  0  0  0  0  0  0  0  0  0  0  0
    8.1389   20.4313   70.0550 N   0  0  0  0  0  0  0  0  0  0  0  0
    8.3166   20.6870   68.7347 C   0  0  0  0  0  0  0  0  0  0  0  0
    7.2675   21.0880   67.9735 N   0  0  0  0  0  0  0  0  0  0  0  0
    6.0281   21.2440   68.5072 C   0  0  0  0  0  0  0  0  0  0  0  0
    5.0853   21.6109   67.7589 O   0  0  0  0  0  0  0  0  0  0  0  0
    9.6027   20.5327   68.1478 N   0  0  0  0  0  0  0  0  0  0  0  0
    6.7731   20.2946   72.0269 N   0  0  0  0  0  0  0  0  0  0  0  0
    8.9055   20.1392   70.5992 H   0  0  0  0  0  0  0  0  0  0  0  0
   10.3641   20.2418   68.6999 H   0  0  0  0  0  0  0  0  0  0  0  0
    9.7316   20.7168   67.1892 H   0  0  0  0  0  0  0  0  0  0  0  0
    5.8935   20.3938   72.4578 H   0  0  0  0  0  0  0  0  0  0  0  0
    7.5506   20.0038   72.5562 H   0  0  0  0  0  0  0  0  0  0  0  0
 13 14  1  0  0  0
  1 13  1  0  0  0
  1  2  1  0  0  0
  2  3  1  0  0  0
  2  9  1  0  0  0
  3  4  1  0  0  0
  3  8  1  0  0  0
  4  5  1  0  0  0
  4  7  1  0  0  0
  5  6  1  0  0  0
  5 16  1  0  0  0
  6  1  1  0  0  0
 16 17  1  0  0  0
 17 18  2  0  0  0
 18 19  1  0  0  0
 18 25  1  0  0  0
 19 20  1  0  0  0
 20 21  2  0  0  0
 20 24  1  0  0  0
 21 22  1  0  0  0
 22 23  2  0  0  0
 22 17  1  0  0  0
 19 26  1  0  0  0
 24 27  1  0  0  0
 24 28  1  0  0  0
 25 29  1  0  0  0
 25 30  1  0  0  0
  7 10  1  0  0  0
  8 11  1  0  0  0
  9 12  1  0  0  0
 14 15  1  0  0  0
M  END
>  <minimizedAffinity>
-7.69896

>  <minimizedRMSD>
3.24091

$$$$
Molport-047-036-229 643560394 MCULE-3660953589 PubChem-133067197


 32 33  0  0  0  0  0  0  0  0999 V2000
    1.0100   20.5849   69.2017 C   0  0  0  0  0  0  0  0  0  0  0  0
   -0.1266   20.8525   70.1561 C   0  0  0  0  0  0  0  0  0  0  0  0
   -0.4201   22.0563   70.3864 O   0  0  0  0  0  0  0  0  0  0  0  0
   -0.8825   19.8056   70.7959 N   0  0  0  0  0  0  0  0  0  0  0  0
   -0.4620   18.4091   70.7642 C   0  0  0  0  0  0  0  0  0  0  0  0
   -0.1532   17.8972   72.1628 C   0  0  0  0  0  0  0  0  0  0  0  0
    1.0054   18.5410   72.6777 O   0  0  0  0  0  0  0  0  0  0  0  0
    1.0134   19.2483   73.8866 C   0  0  0  0  0  0  0  0  0  0  0  0
   -0.1681   19.3886   74.6348 C   0  0  0  0  0  0  0  0  0  0  0  0
   -0.1624   20.0618   75.8568 C   0  0  0  0  0  0  0  0  0  0  0  0
    1.0257   20.6002   76.3489 C   0  0  0  0  0  0  0  0  0  0  0  0
    2.2059   20.4723   75.6149 C   0  0  0  0  0  0  0  0  0  0  0  0
    2.2169   19.8077   74.3786 C   0  0  0  0  0  0  0  0  0  0  0  0
    3.4933   19.7192   73.6335 C   0  0  0  0  0  0  0  0  0  0  0  0
    4.5838   19.9420   74.2275 O   0  0  0  0  0  0  0  0  0  0  0  0
    3.4951   19.4135   72.2363 N   0  0  0  0  0  0  0  0  0  0  0  0
    4.6956   19.3417   71.4110 C   0  0  0  0  0  0  0  0  0  0  0  0
    4.3620   18.7823   70.0230 C   0  0  0  0  0  0  0  0  0  0  0  0
    3.3463   19.5983   69.2841 C   0  0  0  0  0  0  0  0  0  0  0  0
    3.6852   20.2036   68.2326 O   0  0  0  0  0  0  0  0  0  0  0  0
    2.0072   19.6917   69.7774 N   0  0  0  0  0  0  0  0  0  0  0  0
   -2.1291   20.1339   71.4736 C   0  0  0  0  0  0  0  0  0  0  0  0
    2.6284   19.2401   71.8027 H   0  0  0  0  0  0  0  0  0  0  0  0
    1.7472   19.1268   70.5407 H   0  0  0  0  0  0  0  0  0  0  0  0
    0.5077   18.6541   67.6070 C   0  0  0  0  0  0  0  0  0  0  0  0
    0.5818   20.1591   67.7903 C   0  0  0  0  0  0  0  0  0  0  0  0
   -0.6428   20.7385   67.4568 O   0  0  0  0  0  0  0  0  0  0  0  0
   -1.3293   20.4134   68.0602 H   0  0  0  0  0  0  0  0  0  0  0  0
    5.3832   20.6721   71.3298 C   0  0  0  0  0  0  0  0  0  0  0  0
    4.7254   21.7436   71.4080 O   0  0  0  0  0  0  0  0  0  0  0  0
    6.7623   20.7214   71.1808 O   0  0  0  0  0  0  0  0  0  0  0  0
    7.2559   19.9272   71.1221 H   0  0  0  0  0  0  0  0  0  0  0  0
 26 25  1  0  0  0
 26  1  1  0  0  0
  1  2  1  0  0  0
  2  3  2  0  0  0
  2  4  1  0  0  0
  4  5  1  0  0  0
  5  6  1  0  0  0
  6  7  1  0  0  0
  7  8  1  0  0  0
  8  9  2  0  0  0
  9 10  1  0  0  0
 10 11  2  0  0  0
 11 12  1  0  0  0
 12 13  2  0  0  0
 13 14  1  0  0  0
 14 15  2  0  0  0
 14 16  1  0  0  0
 16 17  1  0  0  0
 17 18  1  0  0  0
 18 19  1  0  0  0
 19 20  2  0  0  0
 19 21  1  0  0  0
 17 29  1  0  0  0
 29 30  2  0  0  0
 29 31  1  0  0  0
  4 22  1  0  0  0
 26 27  1  0  0  0
 21  1  1  0  0  0
 13  8  1  0  0  0
 16 23  1  0  0  0
 21 24  1  0  0  0
 31 32  1  0  0  0
 27 28  1  0  0  0
M  END
>  <minimizedAffinity>
-7.68214

>  <minimizedRMSD>
1.87039

$$$$
MolPort-005-973-230 LN00509624 MCULE-6044836784


 30 32  0  0  0  0  0  0  0  0999 V2000
    0.0067   20.9124   69.4560 C   0  0  0  0  0  0  0  0  0  0  0  0
    0.5193   20.8995   70.6072 O   0  0  0  0  0  0  0  0  0  0  0  0
   -1.2608   21.5392   69.2125 N   0  0  0  0  0  0  0  0  0  0  0  0
   -1.5934   21.5351   68.2859 H   0  0  0  0  0  0  0  0  0  0  0  0
   -2.0707   22.1598   70.1832 N   0  0  0  0  0  0  0  0  0  0  0  0
   -2.9561   21.5266   70.8848 C   0  0  0  0  0  0  0  0  0  0  0  0
   -3.7759   22.2193   71.8849 C   0  0  0  0  0  0  0  0  0  0  0  0
   -3.2966   22.7959   73.0551 C   0  0  0  0  0  0  0  0  0  0  0  0
   -4.3148   23.3543   73.7575 N   0  0  0  0  0  0  0  0  0  0  0  0
   -5.4203   23.1251   73.0263 C   0  0  0  0  0  0  0  0  0  0  0  0
   -6.7209   23.5133   73.3423 C   0  0  0  0  0  0  0  0  0  0  0  0
   -7.7430   23.1736   72.4376 C   0  0  0  0  0  0  0  0  0  0  0  0
   -7.4466   22.4635   71.2541 C   0  0  0  0  0  0  0  0  0  0  0  0
   -6.1246   22.0846   70.9610 C   0  0  0  0  0  0  0  0  0  0  0  0
   -5.1348   22.4367   71.8785 C   0  0  0  0  0  0  0  0  0  0  0  0
   -4.2566   23.8269   74.6192 H   0  0  0  0  0  0  0  0  0  0  0  0
    0.7364   20.2891   68.3137 C   0  0  0  0  0  0  0  0  0  0  0  0
    1.2840   18.9180   68.6890 C   0  0  0  0  0  0  0  0  0  0  0  0
    2.3954   19.0424   69.6230 N   0  0  0  0  0  0  0  0  0  0  0  0
    2.3123   18.6261   70.5113 H   0  0  0  0  0  0  0  0  0  0  0  0
    7.0647   21.7660   68.3705 O   0  0  0  0  0  0  0  0  0  0  0  0
    5.9024   21.0799   68.6944 C   0  0  0  0  0  0  0  0  0  0  0  0
    4.8087   21.1756   67.8950 N   0  0  0  0  0  0  0  0  0  0  0  0
    3.6857   20.5215   68.1951 N   0  0  0  0  0  0  0  0  0  0  0  0
    3.6018   19.7426   69.3065 C   0  0  0  0  0  0  0  0  0  0  0  0
    4.7210   19.6366   70.1343 C   0  0  0  0  0  0  0  0  0  0  0  0
    4.6845   18.8523   71.2807 O   0  0  0  0  0  0  0  0  0  0  0  0
    5.8538   20.3104   69.8110 N   0  0  0  0  0  0  0  0  0  0  0  0
    7.0958   22.2968   67.5990 H   0  0  0  0  0  0  0  0  0  0  0  0
    3.9030   18.3866   71.5051 H   0  0  0  0  0  0  0  0  0  0  0  0
 21 22  1  0  0  0
 22 23  2  0  0  0
 23 24  1  0  0  0
 24 25  2  0  0  0
 25 19  1  0  0  0
 25 26  1  0  0  0
 19 18  1  0  0  0
 18 17  1  0  0  0
 17  1  1  0  0  0
  1  2  2  0  0  0
  1  3  1  0  0  0
  3  5  1  0  0  0
  5  6  2  0  0  0
  6  7  1  0  0  0
  7  8  2  0  0  0
  8  9  1  0  0  0
  9 10  1  0  0  0
 10 11  2  0  0  0
 11 12  1  0  0  0
 12 13  2  0  0  0
 13 14  1  0  0  0
 14 15  2  0  0  0
 15  7  1  0  0  0
 15 10  1  0  0  0
 26 27  1  0  0  0
 26 28  2  0  0  0
 28 22  1  0  0  0
 21 29  1  0  0  0
 19 20  1  0  0  0
  3  4  1  0  0  0
  9 16  1  0  0  0
 27 30  1  0  0  0
M  END
>  <minimizedAffinity>
-7.67725

>  <minimizedRMSD>
1.53133

$$$$
MolPort-019-937-329 MCULE-4741842977 PubChem-45783214


 41 43  0  0  0  0  0  0  0  0999 V2000
    3.7260   19.7510   72.2281 C   0  0  0  0  0  0  0  0  0  0  0  0
    3.5542   19.5484   73.7599 C   0  0  0  0  0  0  0  0  0  0  0  0
    2.0772   19.5679   74.1674 C   0  0  0  0  0  0  0  0  0  0  0  0
    1.2222   18.6663   73.2673 C   0  0  0  0  0  0  0  0  0  0  0  0
    1.8305   18.5251   71.8654 C   0  0  0  0  0  0  0  0  0  0  0  0
    2.5095   19.7032   71.5064 O   0  0  0  0  0  0  0  0  0  0  0  0
    1.0979   17.4058   73.8520 O   0  0  0  0  0  0  0  0  0  0  0  0
    1.5921   20.8752   74.1165 O   0  0  0  0  0  0  0  0  0  0  0  0
    4.1339   18.3479   74.1797 O   0  0  0  0  0  0  0  0  0  0  0  0
    1.9756   17.0025   73.9408 H   0  0  0  0  0  0  0  0  0  0  0  0
    1.6564   21.2088   73.2079 H   0  0  0  0  0  0  0  0  0  0  0  0
    3.6842   17.6039   73.7495 H   0  0  0  0  0  0  0  0  0  0  0  0
    4.6843   18.8628   71.6553 O   0  0  0  0  0  0  0  0  0  0  0  0
    5.0920   18.9538   70.3207 C   0  0  0  0  0  0  0  0  0  0  0  0
    4.5122   18.2561   69.4434 O   0  0  0  0  0  0  0  0  0  0  0  0
    4.9296   20.8492   68.0684 C   0  0  0  0  0  0  0  0  0  0  0  0
    6.1584   20.7063   68.9059 C   0  0  0  0  0  0  0  0  0  0  0  0
    6.2355   19.8457   69.9591 C   0  0  0  0  0  0  0  0  0  0  0  0
    7.4593   19.8552   70.8845 C   0  0  0  0  0  0  0  0  0  0  0  0
    8.6579   20.6129   70.3071 C   0  0  0  0  0  0  0  0  0  0  0  0
    8.2186   21.9079   69.6521 C   0  0  0  0  0  0  0  0  0  0  0  0
    7.3239   21.5537   68.4813 C   0  0  0  0  0  0  0  0  0  0  0  0
    7.0899   20.4974   72.2132 C   0  0  0  0  0  0  0  0  0  0  0  0
    7.9284   18.4342   71.1494 C   0  0  0  0  0  0  0  0  0  0  0  0
    0.7504   18.2274   70.8407 C   0  0  0  0  0  0  0  0  0  0  0  0
    1.0091   18.9336   69.6547 O   0  0  0  0  0  0  0  0  0  0  0  0
    0.0297   19.9385   69.4914 C   0  0  0  0  0  0  0  0  0  0  0  0
    0.1905   20.7539   68.1999 C   0  0  0  0  0  0  0  0  0  0  0  0
   -1.0626   21.6119   68.0346 C   0  0  0  0  0  0  0  0  0  0  0  0
   -1.3903   22.3962   69.3131 C   0  0  0  0  0  0  0  0  0  0  0  0
   -1.3347   21.4800   70.5459 C   0  0  0  0  0  0  0  0  0  0  0  0
   -0.1173   20.7574   70.6389 O   0  0  0  0  0  0  0  0  0  0  0  0
   -0.5010   23.4604   69.4816 O   0  0  0  0  0  0  0  0  0  0  0  0
   -0.9413   22.4680   66.9378 O   0  0  0  0  0  0  0  0  0  0  0  0
    1.3277   21.5649   68.2628 O   0  0  0  0  0  0  0  0  0  0  0  0
    0.4013   23.1163   69.5737 H   0  0  0  0  0  0  0  0  0  0  0  0
   -0.2026   23.0792   67.0849 H   0  0  0  0  0  0  0  0  0  0  0  0
    1.2492   22.1741   69.0136 H   0  0  0  0  0  0  0  0  0  0  0  0
   -2.5658   20.5833   70.6554 C   0  0  0  0  0  0  0  0  0  0  0  0
   -3.6245   21.2994   71.2134 O   0  0  0  0  0  0  0  0  0  0  0  0
   -3.3754   21.6076   72.0987 H   0  0  0  0  0  0  0  0  0  0  0  0
 16 17  1  0  0  0
 17 18  2  0  0  0
 18 19  1  0  0  0
 18 14  1  0  0  0
 19 20  1  0  0  0
 19 23  1  0  0  0
 19 24  1  0  0  0
 20 21  1  0  0  0
 21 22  1  0  0  0
 22 17  1  0  0  0
 14 15  2  0  0  0
 14 13  1  0  0  0
  1 13  1  0  0  0
  1  2  1  0  0  0
  2  3  1  0  0  0
  2  9  1  0  0  0
  3  4  1  0  0  0
  3  8  1  0  0  0
  4  5  1  0  0  0
  4  7  1  0  0  0
  5  6  1  0  0  0
  5 25  1  0  0  0
  6  1  1  0  0  0
 25 26  1  0  0  0
 27 26  1  0  0  0
 27 28  1  0  0  0
 28 29  1  0  0  0
 28 35  1  0  0  0
 29 30  1  0  0  0
 29 34  1  0  0  0
 30 31  1  0  0  0
 30 33  1  0  0  0
 31 32  1  0  0  0
 31 39  1  0  0  0
 32 27  1  0  0  0
 39 40  1  0  0  0
 40 41  1  0  0  0
 33 36  1  0  0  0
 34 37  1  0  0  0
 35 38  1  0  0  0
  7 10  1  0  0  0
  8 11  1  0  0  0
  9 12  1  0  0  0
M  END
>  <minimizedAffinity>
-7.67188

>  <minimizedRMSD>
5.41859

$$$$
Molport-052-063-861


 39 42  0  0  0  0  0  0  0  0999 V2000
    6.8206   21.9034   68.4096 O   0  0  0  0  0  0  0  0  0  0  0  0
    7.0306   21.0084   69.2734 C   0  0  0  0  0  0  0  0  0  0  0  0
    8.4175   20.5973   69.6107 C   0  0  0  0  0  0  0  0  0  0  0  0
    9.5379   21.2043   68.9924 C   0  0  0  0  0  0  0  0  0  0  0  0
    9.3895   22.2466   68.0846 O   0  0  0  0  0  0  0  0  0  0  0  0
   10.8287   20.7602   69.2814 C   0  0  0  0  0  0  0  0  0  0  0  0
   11.0304   19.7135   70.1752 C   0  0  0  0  0  0  0  0  0  0  0  0
    9.9394   19.1126   70.7971 C   0  0  0  0  0  0  0  0  0  0  0  0
    8.6270   19.5556   70.5524 C   0  0  0  0  0  0  0  0  0  0  0  0
    7.4600   18.8336   71.2175 C   0  0  0  0  0  0  0  0  0  0  0  0
    7.1473   17.7009   70.4609 O   0  0  0  0  0  0  0  0  0  0  0  0
    7.8692   18.3806   72.6184 C   0  0  0  0  0  0  0  0  0  0  0  0
    6.2106   19.7473   71.3169 C   0  0  0  0  0  0  0  0  0  0  0  0
    5.8931   20.3661   69.9689 C   0  0  0  0  0  0  0  0  0  0  0  0
    4.6594   20.3195   69.4161 C   0  0  0  0  0  0  0  0  0  0  0  0
    4.4772   20.7592   68.1056 O   0  0  0  0  0  0  0  0  0  0  0  0
    3.4794   19.6916   70.1340 C   0  0  0  0  0  0  0  0  0  0  0  0
    3.3596   18.3683   69.6947 O   0  0  0  0  0  0  0  0  0  0  0  0
    2.1751   20.4070   69.8711 C   0  0  0  0  0  0  0  0  0  0  0  0
    2.1072   21.3854   69.0772 O   0  0  0  0  0  0  0  0  0  0  0  0
    0.9670   19.9662   70.6042 C   0  0  0  0  0  0  0  0  0  0  0  0
    1.1180   19.2986   71.7693 C   0  0  0  0  0  0  0  0  0  0  0  0
    0.0040   18.7630   72.4107 O   0  0  0  0  0  0  0  0  0  0  0  0
    2.4921   19.0698   72.4098 C   0  0  0  0  0  0  0  0  0  0  0  0
    3.6848   19.7141   71.6544 C   0  0  0  0  0  0  0  0  0  0  0  0
    5.0195   19.0490   72.0080 C   0  0  0  0  0  0  0  0  0  0  0  0
    5.2181   19.0762   73.3902 O   0  0  0  0  0  0  0  0  0  0  0  0
    8.5341   22.5646   67.8721 H   0  0  0  0  0  0  0  0  0  0  0  0
    7.9279   17.1286   70.3979 H   0  0  0  0  0  0  0  0  0  0  0  0
    5.1895   21.1506   67.6395 H   0  0  0  0  0  0  0  0  0  0  0  0
    3.2299   18.3573   68.7334 H   0  0  0  0  0  0  0  0  0  0  0  0
   -0.8504   18.8846   72.0456 H   0  0  0  0  0  0  0  0  0  0  0  0
    5.2596   19.9968   73.6929 H   0  0  0  0  0  0  0  0  0  0  0  0
   -0.3822   20.2456   70.0417 C   0  0  0  0  0  0  0  0  0  0  0  0
   -1.3743   20.4119   70.8002 O   0  0  0  0  0  0  0  0  0  0  0  0
   -0.5972   20.3352   68.5689 C   0  0  0  0  0  0  0  0  0  0  0  0
    2.5438   19.4299   73.8387 N   0  0  0  0  0  0  0  0  0  0  0  0
    2.5255   18.2229   74.6497 C   0  0  0  0  0  0  0  0  0  0  0  0
    1.4155   20.2675   74.2310 C   0  0  0  0  0  0  0  0  0  0  0  0
  1  2  2  0  0  0
  2  3  1  0  0  0
  3  4  2  0  0  0
  4  5  1  0  0  0
  4  6  1  0  0  0
  6  7  2  0  0  0
  7  8  1  0  0  0
  8  9  2  0  0  0
  9 10  1  0  0  0
 10 11  1  0  0  0
 10 12  1  0  0  0
 10 13  1  0  0  0
 13 14  1  0  0  0
 14 15  2  0  0  0
 15 16  1  0  0  0
 15 17  1  0  0  0
 17 18  1  0  0  0
 17 19  1  0  0  0
 19 20  2  0  0  0
 19 21  1  0  0  0
 21 34  1  0  0  0
 34 35  2  0  0  0
 34 36  1  0  0  0
 21 22  2  0  0  0
 22 23  1  0  0  0
 22 24  1  0  0  0
 24 37  1  0  0  0
 37 38  1  0  0  0
 37 39  1  0  0  0
 24 25  1  0  0  0
 25 26  1  0  0  0
 26 27  1  0  0  0
 14  2  1  0  0  0
  3  9  1  0  0  0
 26 13  1  0  0  0
 25 17  1  0  0  0
  5 28  1  0  0  0
 11 29  1  0  0  0
 16 30  1  0  0  0
 18 31  1  0  0  0
 23 32  1  0  0  0
 27 33  1  0  0  0
M  END
>  <minimizedAffinity>
-7.65875

>  <minimizedRMSD>
4.05602

$$$$
MolPort-046-612-042 MCULE-2527913081 PubChem-137904427


 30 32  0  0  0  0  0  0  0  0999 V2000
    4.9611   20.6863   70.1173 N   0  0  0  0  0  0  0  0  0  0  0  0
    3.7955   19.8805   69.7804 C   0  0  0  0  0  0  0  0  0  0  0  0
    2.7004   20.1117   70.8063 C   0  0  0  0  0  0  0  0  0  0  0  0
    2.8954   19.2043   71.9899 C   0  0  0  0  0  0  0  0  0  0  0  0
    1.9853   18.4002   72.3260 O   0  0  0  0  0  0  0  0  0  0  0  0
    4.1087   19.2285   72.7527 N   0  0  0  0  0  0  0  0  0  0  0  0
    5.2527   20.1072   72.5159 C   0  0  0  0  0  0  0  0  0  0  0  0
    4.8918   21.5541   72.8475 C   0  0  0  0  0  0  0  0  0  0  0  0
    5.9109   22.0401   73.8550 C   0  0  0  0  0  0  0  0  0  0  0  0
    6.4238   20.7938   74.5323 C   0  0  0  0  0  0  0  0  0  0  0  0
    6.3671   19.7174   73.4713 C   0  0  0  0  0  0  0  0  0  0  0  0
    5.7777   19.9547   71.0832 C   0  0  0  0  0  0  0  0  0  0  0  0
    4.1778   18.5962   73.5042 H   0  0  0  0  0  0  0  0  0  0  0  0
    1.4027   19.8904   70.1839 N   0  0  0  0  0  0  0  0  0  0  0  0
    0.6586   20.9552   69.5929 C   0  0  0  0  0  0  0  0  0  0  0  0
    1.1178   22.1302   69.5972 O   0  0  0  0  0  0  0  0  0  0  0  0
   -0.6119   20.6741   68.9964 N   0  0  0  0  0  0  0  0  0  0  0  0
    1.0278   18.9802   70.1704 H   0  0  0  0  0  0  0  0  0  0  0  0
   -0.9328   19.7435   69.0158 H   0  0  0  0  0  0  0  0  0  0  0  0
   -1.4634   21.6749   68.3614 C   0  0  0  0  0  0  0  0  0  0  0  0
   -2.1819   22.5293   69.4070 C   0  0  0  0  0  0  0  0  0  0  0  0
   -3.1555   23.5173   68.7502 C   0  0  0  0  0  0  0  0  0  0  0  0
   -2.7226   23.9733   67.3496 C   0  0  0  0  0  0  0  0  0  0  0  0
   -1.2047   23.9470   67.1991 C   0  0  0  0  0  0  0  0  0  0  0  0
   -0.6602   22.5228   67.3612 C   0  0  0  0  0  0  0  0  0  0  0  0
    5.9088   20.8941   68.6770 S   0  0  0  0  0  0  0  0  0  0  0  0
    6.8038   22.0885   68.8528 O   0  0  0  0  0  0  0  0  0  0  0  0
    4.9986   21.1426   67.5059 O   0  0  0  0  0  0  0  0  0  0  0  0
    6.0963   18.2021   68.3097 C   0  0  0  0  0  0  0  0  0  0  0  0
    6.9321   19.4663   68.3478 C   0  0  0  0  0  0  0  0  0  0  0  0
 29 30  1  0  0  0
 30 26  1  0  0  0
 26 27  2  0  0  0
 26 28  2  0  0  0
 26  1  1  0  0  0
  1  2  1  0  0  0
  2  3  1  0  0  0
  3 14  1  0  0  0
 14 15  1  0  0  0
 15 16  2  0  0  0
 15 17  1  0  0  0
 17 20  1  0  0  0
 20 21  1  0  0  0
 21 22  1  0  0  0
 22 23  1  0  0  0
 23 24  1  0  0  0
 24 25  1  0  0  0
  3  4  1  0  0  0
  4  5  2  0  0  0
  4  6  1  0  0  0
  6  7  1  0  0  0
  7  8  1  0  0  0
  8  9  1  0  0  0
  9 10  1  0  0  0
 10 11  1  0  0  0
  7 12  1  0  0  0
 12  1  1  0  0  0
 25 20  1  0  0  0
 11  7  1  0  0  0
 14 18  1  0  0  0
 17 19  1  0  0  0
  6 13  1  0  0  0
M  END
>  <minimizedAffinity>
-7.65600

>  <minimizedRMSD>
1.04407

$$$$
Molport-051-918-819 MCULE-9129822346


 32 35  0  0  0  0  0  0  0  0999 V2000
    2.7766   20.4037   68.3827 N   0  0  0  0  0  0  0  0  0  0  0  0
    2.1746   21.3798   69.2980 C   0  0  0  0  0  0  0  0  0  0  0  0
    1.3321   20.7170   70.3926 C   0  0  0  0  0  0  0  0  0  0  0  0
    0.2134   19.8545   69.7835 C   0  0  0  0  0  0  0  0  0  0  0  0
    0.8517   18.8334   68.8241 C   0  0  0  0  0  0  0  0  0  0  0  0
    1.5581   17.8448   69.5172 O   0  0  0  0  0  0  0  0  0  0  0  0
    1.7653   19.5128   67.7891 C   0  0  0  0  0  0  0  0  0  0  0  0
    2.2941   18.2519   70.0004 H   0  0  0  0  0  0  0  0  0  0  0  0
   -0.5763   19.1145   70.8538 C   0  0  0  0  0  0  0  0  0  0  0  0
   -1.7652   18.4486   70.5083 C   0  0  0  0  0  0  0  0  0  0  0  0
   -2.4836   17.7292   71.4673 C   0  0  0  0  0  0  0  0  0  0  0  0
   -2.0160   17.6563   72.7812 C   0  0  0  0  0  0  0  0  0  0  0  0
   -0.8273   18.2982   73.1357 C   0  0  0  0  0  0  0  0  0  0  0  0
   -0.1087   19.0177   72.1771 C   0  0  0  0  0  0  0  0  0  0  0  0
   -0.6933   20.7117   69.0111 N   0  0  0  0  0  0  0  0  0  0  0  0
   -1.4993   21.7621   69.5623 C   0  0  0  0  0  0  0  0  0  0  0  0
   -1.4702   22.0080   70.7984 O   0  0  0  0  0  0  0  0  0  0  0  0
   -0.7529   20.5537   68.0412 H   0  0  0  0  0  0  0  0  0  0  0  0
   -2.3650   22.5558   68.6832 C   0  0  0  0  0  0  0  0  0  0  0  0
   -1.9182   23.4554   67.7384 C   0  0  0  0  0  0  0  0  0  0  0  0
   -3.0607   23.9655   67.1523 C   0  0  0  0  0  0  0  0  0  0  0  0
   -4.1349   23.3507   67.7700 C   0  0  0  0  0  0  0  0  0  0  0  0
   -3.7067   22.4868   68.7082 N   0  0  0  0  0  0  0  0  0  0  0  0
   -4.2616   21.9211   69.2923 H   0  0  0  0  0  0  0  0  0  0  0  0
    3.8067   19.6374   69.0779 C   0  0  0  0  0  0  0  0  0  0  0  0
    6.2708   19.9065   69.5060 N   0  0  0  0  0  0  0  0  0  0  0  0
    7.1909   20.7958   69.0952 C   0  0  0  0  0  0  0  0  0  0  0  0
    6.6268   21.6804   68.2453 N   0  0  0  0  0  0  0  0  0  0  0  0
    5.3448   21.3646   68.1188 N   0  0  0  0  0  0  0  0  0  0  0  0
    5.1397   20.2816   68.8868 C   0  0  0  0  0  0  0  0  0  0  0  0
    6.2977   19.3599   71.8786 C   0  0  0  0  0  0  0  0  0  0  0  0
    6.4599   18.8303   70.4664 C   0  0  0  0  0  0  0  0  0  0  0  0
 31 32  1  0  0  0
 32 26  1  0  0  0
 26 27  1  0  0  0
 27 28  2  0  0  0
 28 29  1  0  0  0
 29 30  2  0  0  0
 30 25  1  0  0  0
 25  1  1  0  0  0
  1  2  1  0  0  0
  2  3  1  0  0  0
  3  4  1  0  0  0
  4 15  1  0  0  0
 15 16  1  0  0  0
 16 17  2  0  0  0
 16 19  1  0  0  0
 19 20  2  0  0  0
 20 21  1  0  0  0
 21 22  2  0  0  0
 22 23  1  0  0  0
  4  5  1  0  0  0
  5  6  1  0  0  0
  5  7  1  0  0  0
  4  9  1  0  0  0
  9 10  2  0  0  0
 10 11  1  0  0  0
 11 12  2  0  0  0
 12 13  1  0  0  0
 13 14  2  0  0  0
 30 26  1  0  0  0
  7  1  1  0  0  0
 14  9  1  0  0  0
 23 19  1  0  0  0
 15 18  1  0  0  0
 23 24  1  0  0  0
  6  8  1  0  0  0
M  END
>  <minimizedAffinity>
-7.65233

>  <minimizedRMSD>
3.39261

$$$$
MolPort-000-491-224 2309620 CHEMBL1380834 CSC026720933 CSSS00026720933 LN00520393 MCULE-1856765713 PubChem-1927137 Z56865953 ZINC000002309620 ZINC02309620


 32 35  0  0  0  0  0  0  0  0999 V2000
    3.3318   19.0991   72.3126 N   0  0  0  0  0  0  0  0  0  0  0  0
    4.6302   19.2940   71.7582 C   0  0  0  0  0  0  0  0  0  0  0  0
    5.8195   19.2915   72.4850 C   0  0  0  0  0  0  0  0  0  0  0  0
    6.8010   19.5428   71.5525 C   0  0  0  0  0  0  0  0  0  0  0  0
    8.1413   19.6708   71.7051 N   0  0  0  0  0  0  0  0  0  0  0  0
    8.8900   19.9443   70.5948 C   0  0  0  0  0  0  0  0  0  0  0  0
   10.2759   20.0836   70.6969 C   0  0  0  0  0  0  0  0  0  0  0  0
   11.0350   20.3656   69.5566 C   0  0  0  0  0  0  0  0  0  0  0  0
   10.4139   20.5100   68.3110 C   0  0  0  0  0  0  0  0  0  0  0  0
    9.0271   20.3739   68.1923 C   0  0  0  0  0  0  0  0  0  0  0  0
    8.2551   20.0919   69.3214 C   0  0  0  0  0  0  0  0  0  0  0  0
    6.8993   19.9586   69.2132 N   0  0  0  0  0  0  0  0  0  0  0  0
    6.1932   19.6822   70.3374 C   0  0  0  0  0  0  0  0  0  0  0  0
    4.8616   19.5264   70.4419 N   0  0  0  0  0  0  0  0  0  0  0  0
    3.2283   18.9340   73.2777 H   0  0  0  0  0  0  0  0  0  0  0  0
    2.5384   19.1297   71.7306 H   0  0  0  0  0  0  0  0  0  0  0  0
    5.9854   19.0958   73.9003 C   0  0  0  0  0  0  0  0  0  0  0  0
    6.1190   18.9384   75.0388 N   0  0  0  0  0  0  0  0  0  0  0  0
    3.8735   19.6589   69.3812 C   0  0  0  0  0  0  0  0  0  0  0  0
    2.8350   20.6935   69.7691 C   0  0  0  0  0  0  0  0  0  0  0  0
    1.9857   20.9787   68.6255 N   0  0  0  0  0  0  0  0  0  0  0  0
    0.7088   21.5998   68.7684 C   0  0  0  0  0  0  0  0  0  0  0  0
    0.2861   21.9187   69.9129 O   0  0  0  0  0  0  0  0  0  0  0  0
   -0.0764   21.8517   67.5961 N   0  0  0  0  0  0  0  0  0  0  0  0
    2.3005   20.7363   67.7247 H   0  0  0  0  0  0  0  0  0  0  0  0
    0.3154   21.5764   66.7359 H   0  0  0  0  0  0  0  0  0  0  0  0
   -1.3730   22.4627   67.5448 C   0  0  0  0  0  0  0  0  0  0  0  0
   -1.5981   23.4867   66.6178 C   0  0  0  0  0  0  0  0  0  0  0  0
   -2.8487   24.1069   66.5374 C   0  0  0  0  0  0  0  0  0  0  0  0
   -3.8838   23.7052   67.3862 C   0  0  0  0  0  0  0  0  0  0  0  0
   -3.6681   22.6836   68.3148 C   0  0  0  0  0  0  0  0  0  0  0  0
   -2.4173   22.0645   68.3941 C   0  0  0  0  0  0  0  0  0  0  0  0
  1  2  1  0  0  0
  2  3  2  0  0  0
  3 17  1  0  0  0
  3  4  1  0  0  0
 17 18  3  0  0  0
  4  5  2  0  0  0
  5  6  1  0  0  0
  6  7  2  0  0  0
  7  8  1  0  0  0
  8  9  2  0  0  0
  9 10  1  0  0  0
 10 11  2  0  0  0
 11 12  1  0  0  0
 11  6  1  0  0  0
 12 13  2  0  0  0
 13 14  1  0  0  0
 13  4  1  0  0  0
 14 19  1  0  0  0
 14  2  1  0  0  0
 19 20  1  0  0  0
 20 21  1  0  0  0
 21 22  1  0  0  0
 22 23  2  0  0  0
 22 24  1  0  0  0
 24 27  1  0  0  0
 27 28  2  0  0  0
 28 29  1  0  0  0
 29 30  2  0  0  0
 30 31  1  0  0  0
 31 32  2  0  0  0
 32 27  1  0  0  0
  1 15  1  0  0  0
  1 16  1  0  0  0
 21 25  1  0  0  0
 24 26  1  0  0  0
M  END
>  <minimizedAffinity>
-7.63928

>  <minimizedRMSD>
2.59587

$$$$
MolPort-002-507-375 MolPort-044-810-434 PubChem-132351778 PubChem-16394581


 44 46  0  0  0  0  0  0  0  0999 V2000
   -0.1236   19.9992   72.3233 C   0  0  0  0  0  0  0  0  0  0  0  0
    1.1624   19.7558   73.1197 C   0  0  0  0  0  0  0  0  0  0  0  0
    2.1120   18.7578   72.4430 C   0  0  0  0  0  0  0  0  0  0  0  0
    1.6073   17.4001   72.5628 N   0  0  0  0  0  0  0  0  0  0  0  0
    2.3867   19.1104   70.9746 C   0  0  0  0  0  0  0  0  0  0  0  0
    1.1004   19.3530   70.1745 C   0  0  0  0  0  0  0  0  0  0  0  0
    0.4272   18.1494   69.9510 O   0  0  0  0  0  0  0  0  0  0  0  0
    0.1941   20.3765   70.8698 C   0  0  0  0  0  0  0  0  0  0  0  0
    0.7145   17.3250   72.0752 H   0  0  0  0  0  0  0  0  0  0  0  0
    1.4768   17.1715   73.5482 H   0  0  0  0  0  0  0  0  0  0  0  0
    0.1703   17.7599   70.8014 H   0  0  0  0  0  0  0  0  0  0  0  0
   -1.0050   18.8410   72.3955 N   0  0  0  0  0  0  0  0  0  0  0  0
   -1.8099   18.9754   71.7835 H   0  0  0  0  0  0  0  0  0  0  0  0
   -1.9918   17.3299   74.0166 C   0  0  0  0  0  0  0  0  0  0  0  0
   -1.4430   18.7216   73.7755 C   0  0  0  0  0  0  0  0  0  0  0  0
    3.2079   20.2408   70.9072 O   0  0  0  0  0  0  0  0  0  0  0  0
    4.0864   19.9945   69.8483 C   0  0  0  0  0  0  0  0  0  0  0  0
    5.0941   21.0151   69.8144 O   0  0  0  0  0  0  0  0  0  0  0  0
    6.4237   20.8094   70.2094 C   0  0  0  0  0  0  0  0  0  0  0  0
    6.8057   19.6514   70.7475 C   0  0  0  0  0  0  0  0  0  0  0  0
    5.8025   18.5712   71.0164 C   0  0  0  0  0  0  0  0  0  0  0  0
    4.6810   18.5874   69.9790 C   0  0  0  0  0  0  0  0  0  0  0  0
    5.1818   18.1392   68.6897 N   0  0  0  0  0  0  0  0  0  0  0  0
    5.9165   18.7714   68.3720 H   0  0  0  0  0  0  0  0  0  0  0  0
    4.4199   18.1354   68.0116 H   0  0  0  0  0  0  0  0  0  0  0  0
    7.4282   21.8848   69.9919 C   0  0  0  0  0  0  0  0  0  0  0  0
    7.5203   22.1884   68.5748 N   0  0  0  0  0  0  0  0  0  0  0  0
    7.8063   21.3520   68.0658 H   0  0  0  0  0  0  0  0  0  0  0  0
    8.2086   22.9270   68.4294 H   0  0  0  0  0  0  0  0  0  0  0  0
   -0.9789   20.5758   70.1357 O   0  0  0  0  0  0  0  0  0  0  0  0
   -1.7253   21.4995   70.8833 C   0  0  0  0  0  0  0  0  0  0  0  0
   -2.9236   20.9206   71.3643 O   0  0  0  0  0  0  0  0  0  0  0  0
   -3.7234   20.5230   70.2679 C   0  0  0  0  0  0  0  0  0  0  0  0
   -4.2122   21.7299   69.4574 C   0  0  0  0  0  0  0  0  0  0  0  0
   -5.0928   22.6127   70.3271 C   0  0  0  0  0  0  0  0  0  0  0  0
   -4.9748   21.2771   68.3795 O   0  0  0  0  0  0  0  0  0  0  0  0
   -3.0043   22.5353   68.9474 C   0  0  0  0  0  0  0  0  0  0  0  0
   -2.0100   22.7856   70.0914 C   0  0  0  0  0  0  0  0  0  0  0  0
   -0.8260   23.3593   69.6212 O   0  0  0  0  0  0  0  0  0  0  0  0
   -5.7333   20.7709   68.7101 H   0  0  0  0  0  0  0  0  0  0  0  0
   -0.3903   22.7457   69.0092 H   0  0  0  0  0  0  0  0  0  0  0  0
   -2.3498   21.8415   67.8427 N   0  0  0  0  0  0  0  0  0  0  0  0
   -2.1103   22.8285   66.8046 C   0  0  0  0  0  0  0  0  0  0  0  0
   -2.9533   21.0995   67.4882 H   0  0  0  0  0  0  0  0  0  0  0  0
 14 15  1  0  0  0
 15 12  1  0  0  0
  1 12  1  0  0  0
  1  2  1  0  0  0
  2  3  1  0  0  0
  3  4  1  0  0  0
  3  5  1  0  0  0
  5 16  1  0  0  0
  5  6  1  0  0  0
 17 16  1  0  0  0
 17 18  1  0  0  0
 18 19  1  0  0  0
 19 26  1  0  0  0
 19 20  2  0  0  0
 26 27  1  0  0  0
 20 21  1  0  0  0
 21 22  1  0  0  0
 22 23  1  0  0  0
 22 17  1  0  0  0
  6  7  1  0  0  0
  6  8  1  0  0  0
  8 30  1  0  0  0
  8  1  1  0  0  0
 31 30  1  0  0  0
 31 32  1  0  0  0
 32 33  1  0  0  0
 33 34  1  0  0  0
 34 35  1  0  0  0
 34 36  1  0  0  0
 34 37  1  0  0  0
 37 42  1  0  0  0
 37 38  1  0  0  0
 42 43  1  0  0  0
 38 39  1  0  0  0
 38 31  1  0  0  0
 12 13  1  0  0  0
  4  9  1  0  0  0
  4 10  1  0  0  0
 27 28  1  0  0  0
 27 29  1  0  0  0
 23 24  1  0  0  0
 23 25  1  0  0  0
  7 11  1  0  0  0
 36 40  1  0  0  0
 42 44  1  0  0  0
 39 41  1  0  0  0
M  END
>  <minimizedAffinity>
-7.59334

>  <minimizedRMSD>
3.29342

$$$$
MolPort-004-949-510 MolPort-009-752-591 MolPort-027-945-608 CSSS00159311652 MCULE-7896770599 PubChem-3406450 PubChem-4014956 PubChem-6100443 PubChem-92022518


 24 25  0  0  0  0  0  0  0  0999 V2000
    2.0855   17.9033   68.8984 O   0  0  0  0  0  0  0  0  0  0  0  0
    1.2269   18.9512   69.2413 C   0  0  0  0  0  0  0  0  0  0  0  0
    1.0395   19.8772   68.0873 C   0  0  0  0  0  0  0  0  0  0  0  0
   -0.1342   19.5623   67.3978 O   0  0  0  0  0  0  0  0  0  0  0  0
    0.9914   21.2582   68.7414 C   0  0  0  0  0  0  0  0  0  0  0  0
    1.3913   21.1774   70.0935 O   0  0  0  0  0  0  0  0  0  0  0  0
    1.7992   19.8495   70.3305 C   0  0  0  0  0  0  0  0  0  0  0  0
    1.6759   17.3637   68.2041 H   0  0  0  0  0  0  0  0  0  0  0  0
   -0.8871   19.5965   68.0085 H   0  0  0  0  0  0  0  0  0  0  0  0
   -0.3072   21.9315   68.6235 N   0  0  0  0  0  0  0  0  0  0  0  0
   -0.4575   22.8112   67.5966 C   0  0  0  0  0  0  0  0  0  0  0  0
   -1.6552   23.5006   67.4217 C   0  0  0  0  0  0  0  0  0  0  0  0
   -2.6882   23.2697   68.3246 C   0  0  0  0  0  0  0  0  0  0  0  0
   -3.7840   23.8741   68.1957 O   0  0  0  0  0  0  0  0  0  0  0  0
   -2.5118   22.3934   69.3456 N   0  0  0  0  0  0  0  0  0  0  0  0
   -1.3380   21.7272   69.5061 C   0  0  0  0  0  0  0  0  0  0  0  0
   -1.2138   20.9260   70.4708 O   0  0  0  0  0  0  0  0  0  0  0  0
   -3.2471   22.2374   69.9814 H   0  0  0  0  0  0  0  0  0  0  0  0
    3.3221   19.7827   70.4780 C   0  0  0  0  0  0  0  0  0  0  0  0
    3.9078   21.0097   70.1504 O   0  0  0  0  0  0  0  0  0  0  0  0
    5.0243   20.6654   68.9220 P   0  0  0  0  0  0  0  0  0  0  0  0
    6.6032   20.8625   69.4987 O   0  0  0  0  0  0  0  0  0  0  0  0
    4.8155   19.0643   68.4204 O   0  0  0  0  0  0  0  0  0  0  0  0
    4.7973   21.5871   67.7445 O   0  0  0  0  0  0  0  0  0  0  0  0
  2  1  1  0  0  0
  2  3  1  0  0  0
  3  4  1  0  0  0
  3  5  1  0  0  0
  5  6  1  0  0  0
  5 10  1  0  0  0
  6  7  1  0  0  0
  7 19  1  0  0  0
  7  2  1  0  0  0
 19 20  1  0  0  0
 20 21  1  0  0  0
 21 22  1  0  0  0
 21 23  1  0  0  0
 21 24  2  0  0  0
 10 11  1  0  0  0
 11 12  2  0  0  0
 12 13  1  0  0  0
 13 14  2  0  0  0
 13 15  1  0  0  0
 15 16  1  0  0  0
 16 17  2  0  0  0
 16 10  1  0  0  0
  1  8  1  0  0  0
  4  9  1  0  0  0
 15 18  1  0  0  0
M  CHG 1  22  -1
M  CHG 1  23  -1
M  END
>  <minimizedAffinity>
-7.58978

>  <minimizedRMSD>
2.60186

$$$$
MolPort-049-667-007 PubChem-68397078


 31 32  0  0  0  0  0  0  0  0999 V2000
    1.9004   20.7452   68.3363 O   0  0  0  0  0  0  0  0  0  0  0  0
    3.7051   18.9249   70.7608 C   0  0  0  0  0  0  0  0  0  0  0  0
    5.1611   19.1643   70.3192 C   0  0  0  0  0  0  0  0  0  0  0  0
    5.2495   19.2833   68.7983 C   0  0  0  0  0  0  0  0  0  0  0  0
    4.2631   20.3352   68.2657 C   0  0  0  0  0  0  0  0  0  0  0  0
    2.9935   20.3806   69.1239 C   0  0  0  0  0  0  0  0  0  0  0  0
    2.7484   19.1322   69.7327 O   0  0  0  0  0  0  0  0  0  0  0  0
    4.8466   21.6043   68.2540 O   0  0  0  0  0  0  0  0  0  0  0  0
    6.5574   19.5714   68.4002 O   0  0  0  0  0  0  0  0  0  0  0  0
    5.9606   18.1108   70.7635 O   0  0  0  0  0  0  0  0  0  0  0  0
    5.0803   21.8611   69.1598 H   0  0  0  0  0  0  0  0  0  0  0  0
    6.8281   20.4251   68.7728 H   0  0  0  0  0  0  0  0  0  0  0  0
    5.6464   17.2799   70.3739 H   0  0  0  0  0  0  0  0  0  0  0  0
    3.3742   19.7241   72.0146 C   0  0  0  0  0  0  0  0  0  0  0  0
    2.0172   19.5995   72.3118 O   0  0  0  0  0  0  0  0  0  0  0  0
    1.8042   18.6656   72.4647 H   0  0  0  0  0  0  0  0  0  0  0  0
    1.0202   21.3868   69.2180 C   0  0  0  0  0  0  0  0  0  0  0  0
   -0.2142   20.5135   69.5671 C   0  0  0  0  0  0  0  0  0  0  0  0
   -1.5084   21.3323   69.5373 C   0  0  0  0  0  0  0  0  0  0  0  0
   -1.6195   22.1847   68.2668 C   0  0  0  0  0  0  0  0  0  0  0  0
   -0.2390   22.5587   67.7066 C   0  0  0  0  0  0  0  0  0  0  0  0
    0.6955   22.6835   68.7511 O   0  0  0  0  0  0  0  0  0  0  0  0
   -2.3437   21.4874   67.2996 O   0  0  0  0  0  0  0  0  0  0  0  0
   -1.5690   22.1573   70.6610 O   0  0  0  0  0  0  0  0  0  0  0  0
   -0.3292   19.4273   68.6951 O   0  0  0  0  0  0  0  0  0  0  0  0
   -1.8768   20.6675   67.0747 H   0  0  0  0  0  0  0  0  0  0  0  0
   -0.8227   22.7768   70.6479 H   0  0  0  0  0  0  0  0  0  0  0  0
   -0.4662   19.7513   67.7912 H   0  0  0  0  0  0  0  0  0  0  0  0
   -0.3120   23.8661   66.9370 C   0  0  0  0  0  0  0  0  0  0  0  0
   -1.0937   23.7060   65.7927 O   0  0  0  0  0  0  0  0  0  0  0  0
   -0.6981   23.0277   65.2232 H   0  0  0  0  0  0  0  0  0  0  0  0
 14 15  1  0  0  0
  2 14  1  0  0  0
  2  3  1  0  0  0
  3  4  1  0  0  0
  3 10  1  0  0  0
  4  5  1  0  0  0
  4  9  1  0  0  0
  5  6  1  0  0  0
  5  8  1  0  0  0
  6  7  1  0  0  0
  6  1  1  0  0  0
  7  2  1  0  0  0
 17  1  1  0  0  0
 17 18  1  0  0  0
 18 19  1  0  0  0
 18 25  1  0  0  0
 19 20  1  0  0  0
 19 24  1  0  0  0
 20 21  1  0  0  0
 20 23  1  0  0  0
 21 22  1  0  0  0
 21 29  1  0  0  0
 22 17  1  0  0  0
 29 30  1  0  0  0
 30 31  1  0  0  0
 23 26  1  0  0  0
 24 27  1  0  0  0
 25 28  1  0  0  0
  8 11  1  0  0  0
  9 12  1  0  0  0
 10 13  1  0  0  0
 15 16  1  0  0  0
M  END
>  <minimizedAffinity>
-7.49789

>  <minimizedRMSD>
2.56194

$$$$
MolPort-005-949-863 8624405 CSSS00159298897 MCULE-8359634524 PubChem-40777903 ZINC000008624405 ZINC08624405


 28 29  0  0  0  0  0  0  0  0999 V2000
    1.7996   20.8087   69.0072 C   0  0  0  0  0  0  0  0  0  0  0  0
    3.0840   21.3527   69.2315 O   0  0  0  0  0  0  0  0  0  0  0  0
    3.7546   20.5005   70.1299 C   0  0  0  0  0  0  0  0  0  0  0  0
    2.7020   19.7461   70.9168 C   0  0  0  0  0  0  0  0  0  0  0  0
    3.1389   18.4908   71.3562 O   0  0  0  0  0  0  0  0  0  0  0  0
    1.5442   19.6580   69.9643 C   0  0  0  0  0  0  0  0  0  0  0  0
    1.5730   18.4591   69.2466 O   0  0  0  0  0  0  0  0  0  0  0  0
    3.3990   17.9532   70.5919 H   0  0  0  0  0  0  0  0  0  0  0  0
    2.4176   18.3845   68.7755 H   0  0  0  0  0  0  0  0  0  0  0  0
    0.7523   21.8996   69.1791 C   0  0  0  0  0  0  0  0  0  0  0  0
   -3.0391   21.4540   69.3353 N   0  0  0  0  0  0  0  0  0  0  0  0
   -1.7642   22.0985   69.3729 C   0  0  0  0  0  0  0  0  0  0  0  0
   -1.6788   23.3267   69.6475 O   0  0  0  0  0  0  0  0  0  0  0  0
   -0.5882   21.3378   69.0924 N   0  0  0  0  0  0  0  0  0  0  0  0
   -3.0729   20.4901   69.1378 H   0  0  0  0  0  0  0  0  0  0  0  0
   -0.6883   20.3944   68.8294 H   0  0  0  0  0  0  0  0  0  0  0  0
   -5.1953   22.0442   68.3635 C   0  0  0  0  0  0  0  0  0  0  0  0
   -4.2903   22.1585   69.5760 C   0  0  0  0  0  0  0  0  0  0  0  0
   -4.9873   21.5465   70.7725 C   0  0  0  0  0  0  0  0  0  0  0  0
    4.6981   19.5750   69.3578 C   0  0  0  0  0  0  0  0  0  0  0  0
    5.9986   19.4148   70.0802 C   0  0  0  0  0  0  0  0  0  0  0  0
    6.0560   18.6395   71.0729 O   0  0  0  0  0  0  0  0  0  0  0  0
    7.1725   20.1159   69.6431 N   0  0  0  0  0  0  0  0  0  0  0  0
    7.0800   21.1240   68.5852 C   0  0  0  0  0  0  0  0  0  0  0  0
    8.4239   21.2367   67.8659 C   0  0  0  0  0  0  0  0  0  0  0  0
    9.4490   21.4563   68.8018 O   0  0  0  0  0  0  0  0  0  0  0  0
    9.6099   20.2476   69.5007 C   0  0  0  0  0  0  0  0  0  0  0  0
    8.4099   20.0150   70.4185 C   0  0  0  0  0  0  0  0  0  0  0  0
 17 18  1  0  0  0
 18 19  1  0  0  0
 18 11  1  0  0  0
 11 12  1  0  0  0
 12 13  2  0  0  0
 12 14  1  0  0  0
 14 10  1  0  0  0
  1 10  1  0  0  0
  1  2  1  0  0  0
  2  3  1  0  0  0
  3 20  1  0  0  0
  3  4  1  0  0  0
 20 21  1  0  0  0
 21 22  2  0  0  0
 21 23  1  0  0  0
 23 24  1  0  0  0
 24 25  1  0  0  0
 25 26  1  0  0  0
 26 27  1  0  0  0
 27 28  1  0  0  0
 28 23  1  0  0  0
  4  5  1  0  0  0
  4  6  1  0  0  0
  6  7  1  0  0  0
  6  1  1  0  0  0
 11 15  1  0  0  0
 14 16  1  0  0  0
  5  8  1  0  0  0
  7  9  1  0  0  0
M  END
>  <minimizedAffinity>
-7.46474

>  <minimizedRMSD>
2.87766

$$$$
MolPort-005-976-266 CHEMBL3208394 CSSS00160659318 LN00504900


 33 35  0  0  0  0  0  0  0  0999 V2000
   -1.4449   21.1524   69.3231 N   0  0  0  0  0  0  0  0  0  0  0  0
   -0.1525   20.8453   69.8668 C   0  0  0  0  0  0  0  0  0  0  0  0
    0.0135   20.6714   71.1032 O   0  0  0  0  0  0  0  0  0  0  0  0
   -1.5108   21.2448   68.3452 H   0  0  0  0  0  0  0  0  0  0  0  0
   -2.9616   22.4585   70.6121 C   0  0  0  0  0  0  0  0  0  0  0  0
   -2.6270   21.3329   70.0670 N   0  0  0  0  0  0  0  0  0  0  0  0
   -3.1600   22.9870   73.6868 C   0  0  0  0  0  0  0  0  0  0  0  0
   -4.2973   22.8417   72.7368 C   0  0  0  0  0  0  0  0  0  0  0  0
   -5.5892   22.9293   73.0998 N   0  0  0  0  0  0  0  0  0  0  0  0
   -6.3341   22.7567   72.0154 N   0  0  0  0  0  0  0  0  0  0  0  0
   -5.5207   22.5582   70.9452 C   0  0  0  0  0  0  0  0  0  0  0  0
   -6.0348   22.2966   69.2790 Cl  0  0  0  0  0  0  0  0  0  0  0  0
   -4.2059   22.6073   71.3811 C   0  0  0  0  0  0  0  0  0  0  0  0
   -7.7758   22.7925   72.0602 C   0  0  0  0  0  0  0  0  0  0  0  0
   -8.4207   23.6058   73.0075 C   0  0  0  0  0  0  0  0  0  0  0  0
   -9.8159   23.6544   73.0758 C   0  0  0  0  0  0  0  0  0  0  0  0
  -10.5845   22.8871   72.1970 C   0  0  0  0  0  0  0  0  0  0  0  0
   -9.9573   22.0720   71.2518 C   0  0  0  0  0  0  0  0  0  0  0  0
   -8.5620   22.0255   71.1856 C   0  0  0  0  0  0  0  0  0  0  0  0
    1.0091   20.6948   68.9455 C   0  0  0  0  0  0  0  0  0  0  0  0
    1.5891   19.2929   69.0346 C   0  0  0  0  0  0  0  0  0  0  0  0
    2.7916   19.3000   69.8538 N   0  0  0  0  0  0  0  0  0  0  0  0
    2.7967   18.7914   70.6967 H   0  0  0  0  0  0  0  0  0  0  0  0
    3.9653   20.0213   69.4745 C   0  0  0  0  0  0  0  0  0  0  0  0
    4.0930   20.5355   68.2215 N   0  0  0  0  0  0  0  0  0  0  0  0
    5.1848   21.2124   67.8628 N   0  0  0  0  0  0  0  0  0  0  0  0
    6.2013   21.4072   68.7430 C   0  0  0  0  0  0  0  0  0  0  0  0
    7.3311   22.1147   68.3572 O   0  0  0  0  0  0  0  0  0  0  0  0
    6.1054   20.9095   70.0025 N   0  0  0  0  0  0  0  0  0  0  0  0
    5.0032   20.2180   70.3877 C   0  0  0  0  0  0  0  0  0  0  0  0
    4.9174   19.7146   71.6804 O   0  0  0  0  0  0  0  0  0  0  0  0
    7.3950   22.4573   67.4874 H   0  0  0  0  0  0  0  0  0  0  0  0
    5.6201   19.8528   72.2846 H   0  0  0  0  0  0  0  0  0  0  0  0
  7  8  1  0  0  0
  8  9  2  0  0  0
  9 10  1  0  0  0
 10 11  1  0  0  0
 10 14  1  0  0  0
 11 12  1  0  0  0
 11 13  2  0  0  0
 13  5  1  0  0  0
 13  8  1  0  0  0
  5  6  2  0  0  0
  6  1  1  0  0  0
  1  2  1  0  0  0
  2  3  2  0  0  0
  2 20  1  0  0  0
 20 21  1  0  0  0
 21 22  1  0  0  0
 22 24  1  0  0  0
 24 25  2  0  0  0
 25 26  1  0  0  0
 26 27  2  0  0  0
 27 28  1  0  0  0
 27 29  1  0  0  0
 29 30  2  0  0  0
 30 31  1  0  0  0
 30 24  1  0  0  0
 14 15  2  0  0  0
 15 16  1  0  0  0
 16 17  2  0  0  0
 17 18  1  0  0  0
 18 19  2  0  0  0
 19 14  1  0  0  0
  1  4  1  0  0  0
 22 23  1  0  0  0
 28 32  1  0  0  0
 31 33  1  0  0  0
M  END
>  <minimizedAffinity>
-7.45461

>  <minimizedRMSD>
3.09265

$$$$
MolPort-005-944-629 CSSS00159278741 MCULE-4604411343 PubChem-45359546


 33 34  0  0  0  0  0  0  0  0999 V2000
   -1.5894   20.3300   70.9091 C   0  0  0  0  0  0  0  0  0  0  0  0
   -1.2363   19.5510   72.1875 C   0  0  0  0  0  0  0  0  0  0  0  0
    0.2471   19.7169   72.5220 C   0  0  0  0  0  0  0  0  0  0  0  0
    1.1089   19.4297   71.2924 C   0  0  0  0  0  0  0  0  0  0  0  0
    0.5774   20.2781   70.1290 C   0  0  0  0  0  0  0  0  0  0  0  0
   -0.7632   19.9499   69.8225 O   0  0  0  0  0  0  0  0  0  0  0  0
    1.0562   18.0682   70.9735 O   0  0  0  0  0  0  0  0  0  0  0  0
    0.6041   18.8699   73.5722 O   0  0  0  0  0  0  0  0  0  0  0  0
   -2.0235   19.9907   73.2535 O   0  0  0  0  0  0  0  0  0  0  0  0
    0.1381   17.8142   70.7909 H   0  0  0  0  0  0  0  0  0  0  0  0
    0.4557   17.9482   73.3090 H   0  0  0  0  0  0  0  0  0  0  0  0
   -1.8526   20.9317   73.4150 H   0  0  0  0  0  0  0  0  0  0  0  0
   -1.5452   21.7157   71.1197 O   0  0  0  0  0  0  0  0  0  0  0  0
   -2.8554   22.1508   70.9086 C   0  0  0  0  0  0  0  0  0  0  0  0
   -3.1651   22.1638   69.4204 C   0  0  0  0  0  0  0  0  0  0  0  0
   -3.1487   23.5846   68.8698 C   0  0  0  0  0  0  0  0  0  0  0  0
   -3.1984   23.5884   67.3495 C   0  0  0  0  0  0  0  0  0  0  0  0
   -1.3487   24.1243   65.7961 C   0  0  0  0  0  0  0  0  0  0  0  0
   -1.8810   23.1011   66.7773 C   0  0  0  0  0  0  0  0  0  0  0  0
    1.4583   20.1871   68.8880 C   0  0  0  0  0  0  0  0  0  0  0  0
    2.3214   19.0898   68.9678 O   0  0  0  0  0  0  0  0  0  0  0  0
    3.5882   19.6477   69.1438 C   0  0  0  0  0  0  0  0  0  0  0  0
    4.5272   18.6127   69.7842 C   0  0  0  0  0  0  0  0  0  0  0  0
    5.9596   18.7303   69.2495 C   0  0  0  0  0  0  0  0  0  0  0  0
    6.3177   20.1898   68.9230 C   0  0  0  0  0  0  0  0  0  0  0  0
    5.1797   20.9283   68.1940 C   0  0  0  0  0  0  0  0  0  0  0  0
    4.0944   20.0785   67.9050 O   0  0  0  0  0  0  0  0  0  0  0  0
    7.4935   20.2569   68.1732 O   0  0  0  0  0  0  0  0  0  0  0  0
    6.0932   17.9295   68.1124 O   0  0  0  0  0  0  0  0  0  0  0  0
    4.5252   18.7791   71.1688 O   0  0  0  0  0  0  0  0  0  0  0  0
    7.3606   19.8097   67.3228 H   0  0  0  0  0  0  0  0  0  0  0  0
    5.4780   18.2352   67.4275 H   0  0  0  0  0  0  0  0  0  0  0  0
    4.8537   19.6649   71.3885 H   0  0  0  0  0  0  0  0  0  0  0  0
 18 19  1  0  0  0
 19 17  1  0  0  0
 17 16  1  0  0  0
 16 15  1  0  0  0
 15 14  1  0  0  0
 14 13  1  0  0  0
  1 13  1  0  0  0
  1  2  1  0  0  0
  2  3  1  0  0  0
  2  9  1  0  0  0
  3  4  1  0  0  0
  3  8  1  0  0  0
  4  5  1  0  0  0
  4  7  1  0  0  0
  5  6  1  0  0  0
  5 20  1  0  0  0
  6  1  1  0  0  0
 20 21  1  0  0  0
 22 21  1  0  0  0
 22 23  1  0  0  0
 23 24  1  0  0  0
 23 30  1  0  0  0
 24 25  1  0  0  0
 24 29  1  0  0  0
 25 26  1  0  0  0
 25 28  1  0  0  0
 26 27  1  0  0  0
 27 22  1  0  0  0
 28 31  1  0  0  0
 29 32  1  0  0  0
 30 33  1  0  0  0
  7 10  1  0  0  0
  8 11  1  0  0  0
  9 12  1  0  0  0
M  END
>  <minimizedAffinity>
-7.45212

>  <minimizedRMSD>
4.82257

$$$$
MolPort-039-344-640 NSC99445


 27 28  0  0  0  0  0  0  0  0999 V2000
    2.6778   18.3376   69.3441 O   0  0  0  0  0  0  0  0  0  0  0  0
    1.8402   19.4334   69.5678 C   0  0  0  0  0  0  0  0  0  0  0  0
    1.1425   19.8281   68.3100 C   0  0  0  0  0  0  0  0  0  0  0  0
   -0.1347   19.2635   68.2657 O   0  0  0  0  0  0  0  0  0  0  0  0
    1.1145   21.3549   68.3807 C   0  0  0  0  0  0  0  0  0  0  0  0
    1.9523   21.8156   69.4200 O   0  0  0  0  0  0  0  0  0  0  0  0
    2.6064   20.6903   69.9602 C   0  0  0  0  0  0  0  0  0  0  0  0
    2.1429   17.5666   69.0982 H   0  0  0  0  0  0  0  0  0  0  0  0
   -0.6353   19.5342   69.0512 H   0  0  0  0  0  0  0  0  0  0  0  0
   -0.2322   21.9237   68.5087 N   0  0  0  0  0  0  0  0  0  0  0  0
   -0.7310   22.5834   67.4284 C   0  0  0  0  0  0  0  0  0  0  0  0
   -1.9972   23.1624   67.4723 C   0  0  0  0  0  0  0  0  0  0  0  0
   -2.7336   23.0522   68.6474 C   0  0  0  0  0  0  0  0  0  0  0  0
   -3.9105   23.5759   68.7238 N   0  0  0  0  0  0  0  0  0  0  0  0
   -2.2115   22.3964   69.7148 N   0  0  0  0  0  0  0  0  0  0  0  0
   -0.9743   21.8362   69.6597 C   0  0  0  0  0  0  0  0  0  0  0  0
   -0.5246   21.2405   70.6751 O   0  0  0  0  0  0  0  0  0  0  0  0
   -4.2889   24.0515   67.9493 H   0  0  0  0  0  0  0  0  0  0  0  0
   -2.7381   22.3252   70.5435 H   0  0  0  0  0  0  0  0  0  0  0  0
    4.0827   20.6910   69.5530 C   0  0  0  0  0  0  0  0  0  0  0  0
    4.3247   19.7378   68.5587 O   0  0  0  0  0  0  0  0  0  0  0  0
    5.7676   18.9699   69.0088 P   0  0  0  0  0  0  0  0  0  0  0  0
    5.6029   18.2746   70.5430 O   0  0  0  0  0  0  0  0  0  0  0  0
    6.1185   17.7547   67.8867 O   0  0  0  0  0  0  0  0  0  0  0  0
    6.9015   19.9706   69.0262 O   0  0  0  0  0  0  0  0  0  0  0  0
    4.8755   17.6330   70.5308 H   0  0  0  0  0  0  0  0  0  0  0  0
    5.3941   17.1098   67.8715 H   0  0  0  0  0  0  0  0  0  0  0  0
  1  2  1  0  0  0
  2  3  1  0  0  0
  3  4  1  0  0  0
  3  5  1  0  0  0
  5  6  1  0  0  0
  6  7  1  0  0  0
  7 20  1  0  0  0
 20 21  1  0  0  0
 21 22  1  0  0  0
 22 23  1  0  0  0
 22 24  1  0  0  0
 22 25  2  0  0  0
  5 10  1  0  0  0
 10 11  1  0  0  0
 11 12  2  0  0  0
 12 13  1  0  0  0
 13 14  2  0  0  0
 13 15  1  0  0  0
 15 16  1  0  0  0
 16 17  2  0  0  0
  7  2  1  0  0  0
 16 10  1  0  0  0
  1  8  1  0  0  0
  4  9  1  0  0  0
 23 26  1  0  0  0
 24 27  1  0  0  0
 14 18  1  0  0  0
 15 19  1  0  0  0
M  END
>  <minimizedAffinity>
-7.39624

>  <minimizedRMSD>
2.11768

$$$$
MolPort-008-312-895 CSSS00160799222 MCULE-7695141885


 24 24  0  0  0  0  0  0  0  0999 V2000
    1.9071   19.2450   69.0568 N   0  0  0  0  0  0  0  0  0  0  0  0
    2.0367   18.5525   69.7445 H   0  0  0  0  0  0  0  0  0  0  0  0
    3.0230   20.0174   68.6164 C   0  0  0  0  0  0  0  0  0  0  0  0
    4.1491   20.1422   69.3287 C   0  0  0  0  0  0  0  0  0  0  0  0
    4.3741   19.5010   70.6484 C   0  0  0  0  0  0  0  0  0  0  0  0
    3.3989   18.7075   71.2410 O   0  0  0  0  0  0  0  0  0  0  0  0
    5.5028   19.6794   71.2709 N   0  0  0  0  0  0  0  0  0  0  0  0
    6.5722   20.4822   70.7409 C   0  0  0  0  0  0  0  0  0  0  0  0
    7.7465   20.6226   71.4673 O   0  0  0  0  0  0  0  0  0  0  0  0
    6.4538   21.0779   69.5911 N   0  0  0  0  0  0  0  0  0  0  0  0
    5.2604   20.9587   68.8113 C   0  0  0  0  0  0  0  0  0  0  0  0
    5.1764   21.5496   67.7012 O   0  0  0  0  0  0  0  0  0  0  0  0
    2.5803   18.5685   70.8067 H   0  0  0  0  0  0  0  0  0  0  0  0
    7.8383   20.1960   72.2965 H   0  0  0  0  0  0  0  0  0  0  0  0
    0.5816   19.4670   68.5034 C   0  0  0  0  0  0  0  0  0  0  0  0
   -0.2663   21.6844   67.6516 N   0  0  0  0  0  0  0  0  0  0  0  0
    0.1482   20.8713   68.7491 C   0  0  0  0  0  0  0  0  0  0  0  0
    0.1836   21.3399   69.9181 O   0  0  0  0  0  0  0  0  0  0  0  0
   -0.2802   21.2950   66.7475 H   0  0  0  0  0  0  0  0  0  0  0  0
   -0.6684   23.0698   67.8285 C   0  0  0  0  0  0  0  0  0  0  0  0
    0.4005   24.1699   65.8663 O   0  0  0  0  0  0  0  0  0  0  0  0
   -0.7550   23.7367   66.5024 C   0  0  0  0  0  0  0  0  0  0  0  0
   -1.8718   23.8765   65.9401 O   0  0  0  0  0  0  0  0  0  0  0  0
    1.2325   24.0660   66.2846 H   0  0  0  0  0  0  0  0  0  0  0  0
 21 22  1  0  0  0
 22 23  2  0  0  0
 22 20  1  0  0  0
 20 16  1  0  0  0
 16 17  1  0  0  0
 17 18  2  0  0  0
 17 15  1  0  0  0
 15  1  1  0  0  0
  1  3  1  0  0  0
  3  4  2  0  0  0
  4  5  1  0  0  0
  5  6  1  0  0  0
  5  7  2  0  0  0
  7  8  1  0  0  0
  8  9  1  0  0  0
  8 10  2  0  0  0
 10 11  1  0  0  0
 11 12  2  0  0  0
 11  4  1  0  0  0
 21 24  1  0  0  0
 16 19  1  0  0  0
  1  2  1  0  0  0
  6 13  1  0  0  0
  9 14  1  0  0  0
M  END
>  <minimizedAffinity>
-7.37925

>  <minimizedRMSD>
1.35057

$$$$
MolPort-005-976-349 CSSS00160773080 MCULE-6487526153 PubChem-42581187


 27 29  0  0  0  0  0  0  0  0999 V2000
    0.1694   18.9538   69.3902 C   0  0  0  0  0  0  0  0  0  0  0  0
   -0.9832   21.1464   68.9066 N   0  0  0  0  0  0  0  0  0  0  0  0
   -0.1050   20.3781   69.7317 C   0  0  0  0  0  0  0  0  0  0  0  0
    0.4646   20.9015   70.7262 O   0  0  0  0  0  0  0  0  0  0  0  0
   -1.3755   20.7191   68.1111 H   0  0  0  0  0  0  0  0  0  0  0  0
   -1.3235   22.5341   69.1908 C   0  0  0  0  0  0  0  0  0  0  0  0
   -6.8767   22.8243   71.5661 Cl  0  0  0  0  0  0  0  0  0  0  0  0
   -5.2726   22.7487   70.8705 C   0  0  0  0  0  0  0  0  0  0  0  0
   -5.0562   23.1951   69.5644 C   0  0  0  0  0  0  0  0  0  0  0  0
   -3.7769   23.1373   69.0022 C   0  0  0  0  0  0  0  0  0  0  0  0
   -3.5546   23.7132   67.3572 Cl  0  0  0  0  0  0  0  0  0  0  0  0
   -2.7037   22.6284   69.7583 C   0  0  0  0  0  0  0  0  0  0  0  0
   -2.9287   22.1814   71.0654 C   0  0  0  0  0  0  0  0  0  0  0  0
   -4.2092   22.2419   71.6211 C   0  0  0  0  0  0  0  0  0  0  0  0
    1.4299   18.8366   68.5503 C   0  0  0  0  0  0  0  0  0  0  0  0
    2.5828   18.6148   69.4089 N   0  0  0  0  0  0  0  0  0  0  0  0
    2.5671   17.8626   70.0439 H   0  0  0  0  0  0  0  0  0  0  0  0
    3.7366   19.4544   69.3590 C   0  0  0  0  0  0  0  0  0  0  0  0
    4.5090   19.6770   70.4903 C   0  0  0  0  0  0  0  0  0  0  0  0
    4.3553   19.2040   71.7341 N   0  0  0  0  0  0  0  0  0  0  0  0
    5.4054   19.7629   72.3978 C   0  0  0  0  0  0  0  0  0  0  0  0
    6.1939   20.5551   71.6194 N   0  0  0  0  0  0  0  0  0  0  0  0
    5.5943   20.4736   70.4259 C   0  0  0  0  0  0  0  0  0  0  0  0
    5.9799   21.0852   69.2801 N   0  0  0  0  0  0  0  0  0  0  0  0
    5.2293   20.8763   68.1558 C   0  0  0  0  0  0  0  0  0  0  0  0
    4.1207   20.0692   68.1991 N   0  0  0  0  0  0  0  0  0  0  0  0
    3.6576   18.6027   72.0817 H   0  0  0  0  0  0  0  0  0  0  0  0
  7  8  1  0  0  0
  8  9  2  0  0  0
  9 10  1  0  0  0
 10 11  1  0  0  0
 10 12  2  0  0  0
 12  6  1  0  0  0
  6  2  1  0  0  0
  2  3  1  0  0  0
  3  4  2  0  0  0
  3  1  1  0  0  0
  1 15  1  0  0  0
 15 16  1  0  0  0
 16 18  1  0  0  0
 18 19  2  0  0  0
 19 20  1  0  0  0
 20 21  1  0  0  0
 21 22  2  0  0  0
 22 23  1  0  0  0
 23 24  2  0  0  0
 24 25  1  0  0  0
 25 26  2  0  0  0
 12 13  1  0  0  0
 13 14  2  0  0  0
 14  8  1  0  0  0
 26 18  1  0  0  0
 23 19  1  0  0  0
  2  5  1  0  0  0
 16 17  1  0  0  0
 20 27  1  0  0  0
M  END
>  <minimizedAffinity>
-7.37151

>  <minimizedRMSD>
1.42833

$$$$
MolPort-047-972-778 CSSS06645077410


 36 38  0  0  0  0  0  0  0  0999 V2000
    1.8174   18.7095   69.2968 C   0  0  0  0  0  0  0  0  0  0  0  0
    3.0830   18.2915   69.7580 O   0  0  0  0  0  0  0  0  0  0  0  0
    3.9667   19.3768   69.6083 C   0  0  0  0  0  0  0  0  0  0  0  0
    3.1723   20.6393   69.3830 C   0  0  0  0  0  0  0  0  0  0  0  0
    3.8479   21.4982   68.5125 O   0  0  0  0  0  0  0  0  0  0  0  0
    1.8802   20.1407   68.7987 C   0  0  0  0  0  0  0  0  0  0  0  0
    1.9299   20.1282   67.4019 O   0  0  0  0  0  0  0  0  0  0  0  0
    4.0227   21.0390   67.6762 H   0  0  0  0  0  0  0  0  0  0  0  0
    2.6783   19.5847   67.1098 H   0  0  0  0  0  0  0  0  0  0  0  0
   -0.2850   17.1661   73.5407 C   0  0  0  0  0  0  0  0  0  0  0  0
   -0.0937   17.8767   72.2882 N   0  0  0  0  0  0  0  0  0  0  0  0
    0.9401   17.7166   71.4232 C   0  0  0  0  0  0  0  0  0  0  0  0
    0.8217   18.5453   70.3537 N   0  0  0  0  0  0  0  0  0  0  0  0
   -0.3032   19.2491   70.5898 C   0  0  0  0  0  0  0  0  0  0  0  0
   -0.8616   18.8425   71.7539 C   0  0  0  0  0  0  0  0  0  0  0  0
   -2.0310   19.4411   72.2109 C   0  0  0  0  0  0  0  0  0  0  0  0
   -2.5714   19.0968   73.2942 O   0  0  0  0  0  0  0  0  0  0  0  0
   -2.5815   20.4268   71.4430 N   0  0  0  0  0  0  0  0  0  0  0  0
   -2.0015   20.8197   70.2630 C   0  0  0  0  0  0  0  0  0  0  0  0
   -2.6057   21.8460   69.4862 N   0  0  0  0  0  0  0  0  0  0  0  0
   -0.8464   20.2306   69.8289 N   0  0  0  0  0  0  0  0  0  0  0  0
   -3.4374   22.2725   69.7955 H   0  0  0  0  0  0  0  0  0  0  0  0
   -2.1924   22.1301   68.6390 H   0  0  0  0  0  0  0  0  0  0  0  0
   -0.4209   20.5116   68.9867 H   0  0  0  0  0  0  0  0  0  0  0  0
    4.8544   19.5075   70.8379 C   0  0  0  0  0  0  0  0  0  0  0  0
    6.0277   20.1983   70.5190 O   0  0  0  0  0  0  0  0  0  0  0  0
    7.0376   19.0691   69.7551 P   0  0  0  0  0  0  0  0  0  0  0  0
    6.2409   18.4309   68.4055 O   0  0  0  0  0  0  0  0  0  0  0  0
    7.3699   17.9400   70.7062 O   0  0  0  0  0  0  0  0  0  0  0  0
    8.4720   19.8161   69.2232 O   0  0  0  0  0  0  0  0  0  0  0  0
    8.2110   21.4987   69.2179 P   0  0  0  0  0  0  0  0  0  0  0  0
    9.5024   22.2400   68.4174 O   0  0  0  0  0  0  0  0  0  0  0  0
    6.9316   21.8312   68.4838 O   0  0  0  0  0  0  0  0  0  0  0  0
    9.5586   21.9003   67.5106 H   0  0  0  0  0  0  0  0  0  0  0  0
    8.1330   22.1064   70.7955 O   0  0  0  0  0  0  0  0  0  0  0  0
    8.8908   23.9898   70.6523 Na  0  0  0  0  0  0  0  0  0  0  0  0
 10 11  1  0  0  0
 11 12  2  0  0  0
 12 13  1  0  0  0
  1 13  1  0  0  0
  1  2  1  0  0  0
  2  3  1  0  0  0
  3 25  1  0  0  0
 25 26  1  0  0  0
 26 27  1  0  0  0
 27 28  1  0  0  0
 27 29  2  0  0  0
 27 30  1  0  0  0
 30 31  1  0  0  0
 31 32  1  0  0  0
 31 33  2  0  0  0
 31 35  1  0  0  0
 35 36  1  0  0  0
  3  4  1  0  0  0
  4  5  1  0  0  0
  4  6  1  0  0  0
  6  7  1  0  0  0
 13 14  1  0  0  0
 14 15  2  0  0  0
 15 16  1  0  0  0
 16 17  2  0  0  0
 16 18  1  0  0  0
 18 19  2  0  0  0
 19 20  1  0  0  0
 19 21  1  0  0  0
 15 11  1  0  0  0
  6  1  1  0  0  0
 21 14  1  0  0  0
 32 34  1  0  0  0
  5  8  1  0  0  0
  7  9  1  0  0  0
 20 22  1  0  0  0
 20 23  1  0  0  0
 21 24  1  0  0  0
M  CHG 1  11   1
M  CHG 1  28  -1
M  END
>  <minimizedAffinity>
-7.35972

>  <minimizedRMSD>
5.64153

$$$$
MolPort-046-627-483 1549161596 CSSS00159289742 MCULE-2208542545 PubChem-137918459 ZINC001549161596


 27 29  0  0  0  0  0  0  0  0999 V2000
    2.7013   19.8915   70.0744 C   0  0  0  0  0  0  0  0  0  0  0  0
    3.4435   19.3811   71.1516 O   0  0  0  0  0  0  0  0  0  0  0  0
    2.5321   19.2575   72.2133 C   0  0  0  0  0  0  0  0  0  0  0  0
    1.1523   18.9950   71.6500 C   0  0  0  0  0  0  0  0  0  0  0  0
    0.8954   17.6248   71.6782 O   0  0  0  0  0  0  0  0  0  0  0  0
    1.2610   19.4462   70.2234 C   0  0  0  0  0  0  0  0  0  0  0  0
    1.5901   17.1554   71.1904 H   0  0  0  0  0  0  0  0  0  0  0  0
    0.3309   20.5355   69.9303 N   0  0  0  0  0  0  0  0  0  0  0  0
   -0.2095   20.8405   68.6392 C   0  0  0  0  0  0  0  0  0  0  0  0
    0.0970   20.1434   67.6338 O   0  0  0  0  0  0  0  0  0  0  0  0
   -1.1045   21.9449   68.5022 N   0  0  0  0  0  0  0  0  0  0  0  0
    0.0530   21.1067   70.6825 H   0  0  0  0  0  0  0  0  0  0  0  0
   -1.3383   22.4678   69.3029 H   0  0  0  0  0  0  0  0  0  0  0  0
   -1.6841   22.3260   67.2219 C   0  0  0  0  0  0  0  0  0  0  0  0
   -3.0963   22.8307   67.4350 C   0  0  0  0  0  0  0  0  0  0  0  0
   -2.6549   24.2326   67.0671 C   0  0  0  0  0  0  0  0  0  0  0  0
   -1.2428   23.7288   66.8509 C   0  0  0  0  0  0  0  0  0  0  0  0
    3.2922   19.4303   68.7439 C   0  0  0  0  0  0  0  0  0  0  0  0
    6.8308   19.9361   69.0325 C   0  0  0  0  0  0  0  0  0  0  0  0
    5.5450   20.4537   69.0692 C   0  0  0  0  0  0  0  0  0  0  0  0
    4.7478   19.4092   68.7863 N   0  0  0  0  0  0  0  0  0  0  0  0
    5.4824   18.3271   68.5975 N   0  0  0  0  0  0  0  0  0  0  0  0
    6.7644   18.6201   68.7393 N   0  0  0  0  0  0  0  0  0  0  0  0
    8.8915   20.7991   67.9824 C   0  0  0  0  0  0  0  0  0  0  0  0
    8.1179   20.6765   69.2809 C   0  0  0  0  0  0  0  0  0  0  0  0
    8.9584   19.9096   70.2835 C   0  0  0  0  0  0  0  0  0  0  0  0
    7.8692   22.0728   69.8280 C   0  0  0  0  0  0  0  0  0  0  0  0
 24 25  1  0  0  0
 25 26  1  0  0  0
 25 27  1  0  0  0
 25 19  1  0  0  0
 19 20  2  0  0  0
 20 21  1  0  0  0
 21 18  1  0  0  0
  1 18  1  0  0  0
  1  2  1  0  0  0
  2  3  1  0  0  0
  3  4  1  0  0  0
  4  5  1  0  0  0
  4  6  1  0  0  0
  6  8  1  0  0  0
  8  9  1  0  0  0
  9 10  2  0  0  0
  9 11  1  0  0  0
 11 14  1  0  0  0
 14 15  1  0  0  0
 15 16  1  0  0  0
 16 17  1  0  0  0
 21 22  1  0  0  0
 22 23  2  0  0  0
 23 19  1  0  0  0
  6  1  1  0  0  0
 17 14  1  0  0  0
  5  7  1  0  0  0
  8 12  1  0  0  0
 11 13  1  0  0  0
M  END
>  <minimizedAffinity>
-7.35792

>  <minimizedRMSD>
2.75681

$$$$
MolPort-005-973-235 CHEMBL3214468 LN00518117


 30 31  0  0  0  0  0  0  0  0999 V2000
   -0.6261   21.0500   69.1659 N   0  0  0  0  0  0  0  0  0  0  0  0
    0.4965   20.2809   69.6224 C   0  0  0  0  0  0  0  0  0  0  0  0
    0.7580   20.1677   70.8493 O   0  0  0  0  0  0  0  0  0  0  0  0
   -0.7753   21.0937   68.1937 H   0  0  0  0  0  0  0  0  0  0  0  0
   -2.5054   21.1754   70.6229 C   0  0  0  0  0  0  0  0  0  0  0  0
   -1.5325   21.7474   69.9874 N   0  0  0  0  0  0  0  0  0  0  0  0
   -5.5914   22.9790   71.9929 C   0  0  0  0  0  0  0  0  0  0  0  0
   -5.0880   23.3297   73.2556 C   0  0  0  0  0  0  0  0  0  0  0  0
   -3.7932   22.9847   73.6293 C   0  0  0  0  0  0  0  0  0  0  0  0
   -2.9810   22.2826   72.7446 C   0  0  0  0  0  0  0  0  0  0  0  0
   -3.4485   21.9170   71.4801 C   0  0  0  0  0  0  0  0  0  0  0  0
   -4.7663   22.2617   71.0850 C   0  0  0  0  0  0  0  0  0  0  0  0
   -7.7154   24.1797   72.4443 C   0  0  0  0  0  0  0  0  0  0  0  0
   -6.8981   23.3382   71.6411 O   0  0  0  0  0  0  0  0  0  0  0  0
   -5.2047   21.8777   69.8049 O   0  0  0  0  0  0  0  0  0  0  0  0
   -5.0479   22.6413   68.6175 C   0  0  0  0  0  0  0  0  0  0  0  0
    1.3534   19.5782   68.6262 C   0  0  0  0  0  0  0  0  0  0  0  0
    2.3871   18.7039   69.3240 C   0  0  0  0  0  0  0  0  0  0  0  0
    3.3446   19.5188   70.0616 N   0  0  0  0  0  0  0  0  0  0  0  0
    3.1573   19.7217   71.0066 H   0  0  0  0  0  0  0  0  0  0  0  0
    4.5435   20.0378   69.4782 C   0  0  0  0  0  0  0  0  0  0  0  0
    4.5139   21.1466   68.6916 N   0  0  0  0  0  0  0  0  0  0  0  0
    5.6286   21.6331   68.1441 N   0  0  0  0  0  0  0  0  0  0  0  0
    6.8268   21.0308   68.3576 C   0  0  0  0  0  0  0  0  0  0  0  0
    7.9792   21.5477   67.7819 O   0  0  0  0  0  0  0  0  0  0  0  0
    6.8924   19.9212   69.1361 N   0  0  0  0  0  0  0  0  0  0  0  0
    5.7702   19.4102   69.7026 C   0  0  0  0  0  0  0  0  0  0  0  0
    5.8513   18.2736   70.4978 O   0  0  0  0  0  0  0  0  0  0  0  0
    7.9314   22.3139   67.2447 H   0  0  0  0  0  0  0  0  0  0  0  0
    6.6800   17.8606   70.6416 H   0  0  0  0  0  0  0  0  0  0  0  0
 13 14  1  0  0  0
 14  7  1  0  0  0
  7  8  2  0  0  0
  8  9  1  0  0  0
  9 10  2  0  0  0
 10 11  1  0  0  0
 11  5  1  0  0  0
 11 12  2  0  0  0
  5  6  2  0  0  0
  6  1  1  0  0  0
  1  2  1  0  0  0
  2  3  2  0  0  0
  2 17  1  0  0  0
 17 18  1  0  0  0
 18 19  1  0  0  0
 19 21  1  0  0  0
 21 22  2  0  0  0
 22 23  1  0  0  0
 23 24  2  0  0  0
 24 25  1  0  0  0
 24 26  1  0  0  0
 26 27  2  0  0  0
 27 28  1  0  0  0
 27 21  1  0  0  0
 12 15  1  0  0  0
 12  7  1  0  0  0
 15 16  1  0  0  0
  1  4  1  0  0  0
 19 20  1  0  0  0
 25 29  1  0  0  0
 28 30  1  0  0  0
M  END
>  <minimizedAffinity>
-7.33933

>  <minimizedRMSD>
1.51647

$$$$
MolPort-003-958-834 MCULE-4598969301 NSC2028 PubChem-155899245 PubChem-219994 PubChem-44134813


 31 31  0  0  0  0  0  0  0  0999 V2000
    4.5898   18.7971   68.9877 O   0  0  0  0  0  0  0  0  0  0  0  0
    7.6231   19.7576   70.5102 C   0  0  0  0  0  0  0  0  0  0  0  0
    7.9001   21.0964   69.7922 C   0  0  0  0  0  0  0  0  0  0  0  0
    7.4541   21.0548   68.3265 C   0  0  0  0  0  0  0  0  0  0  0  0
    6.0060   20.5697   68.2102 C   0  0  0  0  0  0  0  0  0  0  0  0
    5.6164   19.6570   69.3806 C   0  0  0  0  0  0  0  0  0  0  0  0
    6.7280   18.9050   69.8140 O   0  0  0  0  0  0  0  0  0  0  0  0
    5.1459   21.6667   68.1701 O   0  0  0  0  0  0  0  0  0  0  0  0
    8.2865   20.2094   67.5888 O   0  0  0  0  0  0  0  0  0  0  0  0
    9.2534   21.4242   69.8858 O   0  0  0  0  0  0  0  0  0  0  0  0
    5.2295   22.1734   68.9929 H   0  0  0  0  0  0  0  0  0  0  0  0
    8.2279   19.3083   67.9430 H   0  0  0  0  0  0  0  0  0  0  0  0
    9.7828   20.7412   69.4452 H   0  0  0  0  0  0  0  0  0  0  0  0
    7.1690   19.9733   71.9487 C   0  0  0  0  0  0  0  0  0  0  0  0
    7.1743   21.3345   72.2540 O   0  0  0  0  0  0  0  0  0  0  0  0
    6.5672   21.8017   71.6590 H   0  0  0  0  0  0  0  0  0  0  0  0
    3.7176   18.7621   70.0780 C   0  0  0  0  0  0  0  0  0  0  0  0
    2.2857   18.6095   69.5928 C   0  0  0  0  0  0  0  0  0  0  0  0
    1.4112   18.6994   70.6778 O   0  0  0  0  0  0  0  0  0  0  0  0
    1.5051   19.5689   71.0975 H   0  0  0  0  0  0  0  0  0  0  0  0
    1.9493   19.6707   68.5421 C   0  0  0  0  0  0  0  0  0  0  0  0
    2.4526   20.9127   68.9412 O   0  0  0  0  0  0  0  0  0  0  0  0
    2.0376   21.1761   69.7775 H   0  0  0  0  0  0  0  0  0  0  0  0
    0.4383   19.7503   68.2898 C   0  0  0  0  0  0  0  0  0  0  0  0
    0.1451   19.1701   67.0515 O   0  0  0  0  0  0  0  0  0  0  0  0
    0.6032   19.6580   66.3493 H   0  0  0  0  0  0  0  0  0  0  0  0
   -0.0563   21.2028   68.3042 C   0  0  0  0  0  0  0  0  0  0  0  0
   -0.9370   21.4313   67.2437 O   0  0  0  0  0  0  0  0  0  0  0  0
   -1.7153   20.8606   67.3410 H   0  0  0  0  0  0  0  0  0  0  0  0
   -0.7441   21.5384   69.5920 C   0  0  0  0  0  0  0  0  0  0  0  0
   -0.2641   21.2033   70.6635 O   0  0  0  0  0  0  0  0  0  0  0  0
 14 15  1  0  0  0
  2 14  1  0  0  0
  2  3  1  0  0  0
  3  4  1  0  0  0
  3 10  1  0  0  0
  4  5  1  0  0  0
  4  9  1  0  0  0
  5  6  1  0  0  0
  5  8  1  0  0  0
  6  7  1  0  0  0
  6  1  1  0  0  0
  7  2  1  0  0  0
  1 17  1  0  0  0
 18 17  1  0  0  0
 18 21  1  0  0  0
 18 19  1  0  0  0
 21 24  1  0  0  0
 21 22  1  0  0  0
 24 27  1  0  0  0
 24 25  1  0  0  0
 27 30  1  0  0  0
 27 28  1  0  0  0
 30 31  2  0  0  0
 28 29  1  0  0  0
 25 26  1  0  0  0
 22 23  1  0  0  0
 19 20  1  0  0  0
  8 11  1  0  0  0
  9 12  1  0  0  0
 10 13  1  0  0  0
 15 16  1  0  0  0
M  END
>  <minimizedAffinity>
-7.27061

>  <minimizedRMSD>
2.79571

$$$$
MolPort-005-949-803 8624396 CSSS00159296202 MCULE-8789436416 PubChem-40777899 ZINC000008624396 ZINC08624396


 34 36  0  0  0  0  0  0  0  0999 V2000
    4.4564   19.0574   71.3690 C   0  0  0  0  0  0  0  0  0  0  0  0
    4.4686   19.6005   70.0742 O   0  0  0  0  0  0  0  0  0  0  0  0
    3.1562   19.4658   69.5901 C   0  0  0  0  0  0  0  0  0  0  0  0
    2.1954   19.4165   70.7635 C   0  0  0  0  0  0  0  0  0  0  0  0
    1.3706   18.2954   70.6334 O   0  0  0  0  0  0  0  0  0  0  0  0
    3.0987   19.3156   71.9686 C   0  0  0  0  0  0  0  0  0  0  0  0
    2.7389   18.2649   72.8172 O   0  0  0  0  0  0  0  0  0  0  0  0
    1.9178   17.4973   70.5670 H   0  0  0  0  0  0  0  0  0  0  0  0
    2.7613   17.4294   72.3248 H   0  0  0  0  0  0  0  0  0  0  0  0
    5.5307   19.7101   72.2242 C   0  0  0  0  0  0  0  0  0  0  0  0
    9.3673   19.7083   71.5197 C   0  0  0  0  0  0  0  0  0  0  0  0
   10.3213   20.5922   72.3015 C   0  0  0  0  0  0  0  0  0  0  0  0
    9.4773   21.7094   72.8986 C   0  0  0  0  0  0  0  0  0  0  0  0
    8.0463   21.2089   72.8855 C   0  0  0  0  0  0  0  0  0  0  0  0
    8.0429   20.0561   72.0054 N   0  0  0  0  0  0  0  0  0  0  0  0
    6.8846   19.2313   71.8136 C   0  0  0  0  0  0  0  0  0  0  0  0
    6.9936   18.1001   71.2698 O   0  0  0  0  0  0  0  0  0  0  0  0
    9.4919   20.0447   70.0396 C   0  0  0  0  0  0  0  0  0  0  0  0
    8.5679   21.1693   68.3840 C   0  0  0  0  0  0  0  0  0  0  0  0
    8.8160   21.2306   69.7540 O   0  0  0  0  0  0  0  0  0  0  0  0
    2.8259   20.6425   68.6884 C   0  0  0  0  0  0  0  0  0  0  0  0
    1.4638   20.5230   68.1910 N   0  0  0  0  0  0  0  0  0  0  0  0
    0.4103   21.3636   68.6612 C   0  0  0  0  0  0  0  0  0  0  0  0
    0.6407   22.2282   69.5505 O   0  0  0  0  0  0  0  0  0  0  0  0
   -0.9030   21.2028   68.1111 N   0  0  0  0  0  0  0  0  0  0  0  0
    1.2627   19.8417   67.5094 H   0  0  0  0  0  0  0  0  0  0  0  0
   -1.0048   20.5248   67.4046 H   0  0  0  0  0  0  0  0  0  0  0  0
   -2.0845   21.9260   68.4819 C   0  0  0  0  0  0  0  0  0  0  0  0
   -2.8079   22.5885   67.4838 C   0  0  0  0  0  0  0  0  0  0  0  0
   -3.9637   23.3060   67.8053 C   0  0  0  0  0  0  0  0  0  0  0  0
   -4.6554   23.9480   66.8329 F   0  0  0  0  0  0  0  0  0  0  0  0
   -4.4043   23.3632   69.1301 C   0  0  0  0  0  0  0  0  0  0  0  0
   -3.6890   22.7041   70.1329 C   0  0  0  0  0  0  0  0  0  0  0  0
   -2.5330   21.9880   69.8102 C   0  0  0  0  0  0  0  0  0  0  0  0
 19 20  1  0  0  0
 20 18  1  0  0  0
 11 18  1  0  0  0
 11 12  1  0  0  0
 12 13  1  0  0  0
 13 14  1  0  0  0
 14 15  1  0  0  0
 15 16  1  0  0  0
 15 11  1  0  0  0
 16 17  2  0  0  0
 16 10  1  0  0  0
  1 10  1  0  0  0
  1  2  1  0  0  0
  2  3  1  0  0  0
  3 21  1  0  0  0
  3  4  1  0  0  0
 21 22  1  0  0  0
 22 23  1  0  0  0
 23 24  2  0  0  0
 23 25  1  0  0  0
 25 28  1  0  0  0
 28 29  2  0  0  0
 29 30  1  0  0  0
 30 31  1  0  0  0
 30 32  2  0  0  0
 32 33  1  0  0  0
 33 34  2  0  0  0
 34 28  1  0  0  0
  4  5  1  0  0  0
  4  6  1  0  0  0
  6  7  1  0  0  0
  6  1  1  0  0  0
 22 26  1  0  0  0
 25 27  1  0  0  0
  5  8  1  0  0  0
  7  9  1  0  0  0
M  END
>  <minimizedAffinity>
-7.23884

>  <minimizedRMSD>
3.48428

$$$$
MolPort-002-718-929 CSSS00160399958 ChemDiv-8013-6316 MCULE-9981615777 NSC405936 PubChem-347317


 37 39  0  0  0  0  0  0  0  0999 V2000
    2.0571   19.4516   70.4767 C   0  0  0  0  0  0  0  0  0  0  0  0
    3.0019   18.7757   71.4806 C   0  0  0  0  0  0  0  0  0  0  0  0
    2.2704   18.0237   72.4020 O   0  0  0  0  0  0  0  0  0  0  0  0
    1.6743   18.6083   72.8959 H   0  0  0  0  0  0  0  0  0  0  0  0
    5.1462   19.3935   72.3288 O   0  0  0  0  0  0  0  0  0  0  0  0
    3.8205   19.8154   72.2295 C   0  0  0  0  0  0  0  0  0  0  0  0
    5.6628   20.0607   72.8072 H   0  0  0  0  0  0  0  0  0  0  0  0
    2.7836   20.1107   69.2922 C   0  0  0  0  0  0  0  0  0  0  0  0
    2.0436   20.0014   68.1136 O   0  0  0  0  0  0  0  0  0  0  0  0
    1.9596   19.0662   67.8701 H   0  0  0  0  0  0  0  0  0  0  0  0
    4.1814   19.6125   69.0905 C   0  0  0  0  0  0  0  0  0  0  0  0
    5.2747   20.3785   69.2369 N   0  0  0  0  0  0  0  0  0  0  0  0
    6.2990   19.5859   68.9670 N   0  0  0  0  0  0  0  0  0  0  0  0
    5.9120   18.3580   68.6535 N   0  0  0  0  0  0  0  0  0  0  0  0
    4.5661   18.3367   68.7196 C   0  0  0  0  0  0  0  0  0  0  0  0
    7.6691   20.0072   69.0093 C   0  0  0  0  0  0  0  0  0  0  0  0
    8.2197   20.7370   67.9451 C   0  0  0  0  0  0  0  0  0  0  0  0
    9.5553   21.1482   67.9867 C   0  0  0  0  0  0  0  0  0  0  0  0
   10.3495   20.8328   69.0924 C   0  0  0  0  0  0  0  0  0  0  0  0
    9.8087   20.1064   70.1568 C   0  0  0  0  0  0  0  0  0  0  0  0
    8.4734   19.6950   70.1156 C   0  0  0  0  0  0  0  0  0  0  0  0
    1.2608   20.4060   71.1228 O   0  0  0  0  0  0  0  0  0  0  0  0
   -0.0207   19.8505   71.1524 C   0  0  0  0  0  0  0  0  0  0  0  0
   -0.4079   19.6199   72.4855 O   0  0  0  0  0  0  0  0  0  0  0  0
   -1.5276   18.7497   72.4945 C   0  0  0  0  0  0  0  0  0  0  0  0
   -2.6254   19.0887   71.4480 C   0  0  0  0  0  0  0  0  0  0  0  0
   -2.5996   18.1949   70.3728 O   0  0  0  0  0  0  0  0  0  0  0  0
   -2.4561   20.5170   70.9197 C   0  0  0  0  0  0  0  0  0  0  0  0
   -2.8243   21.4316   71.9071 O   0  0  0  0  0  0  0  0  0  0  0  0
   -1.0152   20.7965   70.4716 C   0  0  0  0  0  0  0  0  0  0  0  0
   -0.9186   20.6567   69.0872 O   0  0  0  0  0  0  0  0  0  0  0  0
   -1.7471   18.2642   69.9152 H   0  0  0  0  0  0  0  0  0  0  0  0
   -2.2437   21.3273   72.6771 H   0  0  0  0  0  0  0  0  0  0  0  0
   -1.1427   19.7465   68.8378 H   0  0  0  0  0  0  0  0  0  0  0  0
   -1.1073   17.2828   72.5099 C   0  0  0  0  0  0  0  0  0  0  0  0
   -0.1902   17.0627   73.5374 O   0  0  0  0  0  0  0  0  0  0  0  0
    0.5937   17.6160   73.3952 H   0  0  0  0  0  0  0  0  0  0  0  0
  5  6  1  0  0  0
  2  6  1  0  0  0
  2  3  1  0  0  0
  2  1  1  0  0  0
  1 22  1  0  0  0
  1  8  1  0  0  0
 23 22  1  0  0  0
 23 24  1  0  0  0
 24 25  1  0  0  0
 25 35  1  0  0  0
 25 26  1  0  0  0
 35 36  1  0  0  0
 26 27  1  0  0  0
 26 28  1  0  0  0
 28 29  1  0  0  0
 28 30  1  0  0  0
 30 31  1  0  0  0
 30 23  1  0  0  0
  8  9  1  0  0  0
  8 11  1  0  0  0
 11 12  2  0  0  0
 12 13  1  0  0  0
 13 14  1  0  0  0
 13 16  1  0  0  0
 14 15  2  0  0  0
 15 11  1  0  0  0
 16 17  2  0  0  0
 17 18  1  0  0  0
 18 19  2  0  0  0
 19 20  1  0  0  0
 20 21  2  0  0  0
 21 16  1  0  0  0
  5  7  1  0  0  0
  3  4  1  0  0  0
 36 37  1  0  0  0
 27 32  1  0  0  0
 29 33  1  0  0  0
 31 34  1  0  0  0
  9 10  1  0  0  0
M  END
>  <minimizedAffinity>
-7.23833

>  <minimizedRMSD>
3.73605

$$$$
MolPort-005-952-202 MolPort-047-148-396 20465033 CSSS02125601573 MCULE-2043057974 MCULE-8123958072 PubChem-146118645 PubChem-28961556 ZINC000020465033


 28 30  0  0  0  0  0  0  0  0999 V2000
    4.2239   19.8899   68.6124 C   0  0  0  0  0  0  0  0  0  0  0  0
    3.0508   20.0623   67.8479 O   0  0  0  0  0  0  0  0  0  0  0  0
    1.9658   19.6439   68.6462 C   0  0  0  0  0  0  0  0  0  0  0  0
    2.5268   19.0176   69.9297 C   0  0  0  0  0  0  0  0  0  0  0  0
    3.8556   19.7135   70.0740 C   0  0  0  0  0  0  0  0  0  0  0  0
    3.6871   20.9578   70.6964 O   0  0  0  0  0  0  0  0  0  0  0  0
    3.0337   21.4795   70.2046 H   0  0  0  0  0  0  0  0  0  0  0  0
    1.6476   19.1392   71.1042 N   0  0  0  0  0  0  0  0  0  0  0  0
    0.5796   18.1561   70.9649 C   0  0  0  0  0  0  0  0  0  0  0  0
    0.1984   17.6928   72.3525 C   0  0  0  0  0  0  0  0  0  0  0  0
    1.3828   18.0340   73.2198 C   0  0  0  0  0  0  0  0  0  0  0  0
    2.3743   18.7014   72.2927 C   0  0  0  0  0  0  0  0  0  0  0  0
    6.5122   20.5658   68.5104 O   0  0  0  0  0  0  0  0  0  0  0  0
    5.2041   21.0306   68.3762 C   0  0  0  0  0  0  0  0  0  0  0  0
    7.1321   21.2964   68.3589 H   0  0  0  0  0  0  0  0  0  0  0  0
    1.0656   20.8503   68.9006 C   0  0  0  0  0  0  0  0  0  0  0  0
   -0.2745   20.4061   69.2458 N   0  0  0  0  0  0  0  0  0  0  0  0
   -1.2518   21.2959   69.7828 C   0  0  0  0  0  0  0  0  0  0  0  0
   -0.9668   22.5104   69.9669 O   0  0  0  0  0  0  0  0  0  0  0  0
   -2.5509   20.7859   70.1082 N   0  0  0  0  0  0  0  0  0  0  0  0
   -0.5153   19.4619   69.1048 H   0  0  0  0  0  0  0  0  0  0  0  0
   -2.7051   19.8293   69.9339 H   0  0  0  0  0  0  0  0  0  0  0  0
   -3.6500   21.5227   70.6613 C   0  0  0  0  0  0  0  0  0  0  0  0
   -3.5752   22.1363   71.9216 C   0  0  0  0  0  0  0  0  0  0  0  0
   -4.6679   22.8459   72.4284 C   0  0  0  0  0  0  0  0  0  0  0  0
   -5.8430   22.9469   71.6790 C   0  0  0  0  0  0  0  0  0  0  0  0
   -5.9246   22.3384   70.4237 C   0  0  0  0  0  0  0  0  0  0  0  0
   -4.8310   21.6290   69.9180 C   0  0  0  0  0  0  0  0  0  0  0  0
 13 14  1  0  0  0
  1 14  1  0  0  0
  1  2  1  0  0  0
  2  3  1  0  0  0
  3 16  1  0  0  0
  3  4  1  0  0  0
 16 17  1  0  0  0
 17 18  1  0  0  0
 18 19  2  0  0  0
 18 20  1  0  0  0
 20 23  1  0  0  0
 23 24  2  0  0  0
 24 25  1  0  0  0
 25 26  2  0  0  0
 26 27  1  0  0  0
 27 28  2  0  0  0
 28 23  1  0  0  0
  4  5  1  0  0  0
  4  8  1  0  0  0
  5  6  1  0  0  0
  5  1  1  0  0  0
  8  9  1  0  0  0
  9 10  1  0  0  0
 10 11  1  0  0  0
 11 12  1  0  0  0
 12  8  1  0  0  0
 13 15  1  0  0  0
 17 21  1  0  0  0
 20 22  1  0  0  0
  6  7  1  0  0  0
M  END
>  <minimizedAffinity>
-7.23728

>  <minimizedRMSD>
2.48122

$$$$
MolPort-047-919-302 MCULE-2494187955 MCULE-7050160991 PubChem-54177368


 43 44  0  0  0  0  0  0  0  0999 V2000
    0.4580   20.6901   70.2358 C   0  0  0  0  0  0  0  0  0  0  0  0
   -0.0593   19.8712   71.4346 C   0  0  0  0  0  0  0  0  0  0  0  0
    0.8891   19.8698   72.4602 O   0  0  0  0  0  0  0  0  0  0  0  0
    1.6950   19.4246   72.1547 H   0  0  0  0  0  0  0  0  0  0  0  0
   -0.4867   18.4396   71.0878 C   0  0  0  0  0  0  0  0  0  0  0  0
   -1.7299   18.4385   70.4511 O   0  0  0  0  0  0  0  0  0  0  0  0
   -2.4006   18.8008   71.0509 H   0  0  0  0  0  0  0  0  0  0  0  0
   -0.5512   17.5554   72.3283 C   0  0  0  0  0  0  0  0  0  0  0  0
   -1.3366   18.1511   73.3172 O   0  0  0  0  0  0  0  0  0  0  0  0
   -0.9486   19.0040   73.5682 H   0  0  0  0  0  0  0  0  0  0  0  0
    1.7286   20.1690   69.5397 C   0  0  0  0  0  0  0  0  0  0  0  0
    1.4328   19.2358   68.4067 C   0  0  0  0  0  0  0  0  0  0  0  0
    0.9933   19.6657   67.3531 O   0  0  0  0  0  0  0  0  0  0  0  0
    2.5915   19.5651   70.4591 O   0  0  0  0  0  0  0  0  0  0  0  0
    5.8534   18.4999   68.3055 C   0  0  0  0  0  0  0  0  0  0  0  0
    5.0834   18.8584   69.5623 C   0  0  0  0  0  0  0  0  0  0  0  0
    5.9538   18.6710   70.8093 C   0  0  0  0  0  0  0  0  0  0  0  0
    5.0992   18.9676   72.0424 C   0  0  0  0  0  0  0  0  0  0  0  0
    4.4020   20.3210   71.9010 C   0  0  0  0  0  0  0  0  0  0  0  0
    3.7011   20.4217   70.5364 C   0  0  0  0  0  0  0  0  0  0  0  0
    4.6056   20.1849   69.4725 O   0  0  0  0  0  0  0  0  0  0  0  0
    3.4804   20.4999   72.9338 O   0  0  0  0  0  0  0  0  0  0  0  0
    5.8854   18.9451   73.1958 O   0  0  0  0  0  0  0  0  0  0  0  0
    7.0597   19.5271   70.7648 O   0  0  0  0  0  0  0  0  0  0  0  0
    2.8053   19.8048   72.8888 H   0  0  0  0  0  0  0  0  0  0  0  0
    6.5695   19.6300   73.1343 H   0  0  0  0  0  0  0  0  0  0  0  0
    6.7550   20.4471   70.7257 H   0  0  0  0  0  0  0  0  0  0  0  0
   -0.5602   20.9291   69.3071 O   0  0  0  0  0  0  0  0  0  0  0  0
   -1.1432   22.1395   69.7120 C   0  0  0  0  0  0  0  0  0  0  0  0
   -2.6787   22.0827   69.6412 C   0  0  0  0  0  0  0  0  0  0  0  0
   -3.1505   22.0614   68.1866 C   0  0  0  0  0  0  0  0  0  0  0  0
   -2.4674   23.1678   67.3823 C   0  0  0  0  0  0  0  0  0  0  0  0
   -0.9550   23.0558   67.6085 C   0  0  0  0  0  0  0  0  0  0  0  0
   -0.6253   23.2304   68.9715 O   0  0  0  0  0  0  0  0  0  0  0  0
   -2.9341   24.4221   67.7903 O   0  0  0  0  0  0  0  0  0  0  0  0
   -4.5381   22.2013   68.1253 O   0  0  0  0  0  0  0  0  0  0  0  0
   -3.1520   20.9572   70.3180 O   0  0  0  0  0  0  0  0  0  0  0  0
   -2.7450   24.5464   68.7336 H   0  0  0  0  0  0  0  0  0  0  0  0
   -4.7946   23.0533   68.5117 H   0  0  0  0  0  0  0  0  0  0  0  0
   -2.8011   20.1562   69.8983 H   0  0  0  0  0  0  0  0  0  0  0  0
   -0.1616   24.0146   66.7286 C   0  0  0  0  0  0  0  0  0  0  0  0
   -1.0105   24.7415   65.8915 O   0  0  0  0  0  0  0  0  0  0  0  0
   -1.4952   24.1313   65.3139 H   0  0  0  0  0  0  0  0  0  0  0  0
 16 15  1  0  0  0
 16 17  1  0  0  0
 17 18  1  0  0  0
 17 24  1  0  0  0
 18 19  1  0  0  0
 18 23  1  0  0  0
 19 20  1  0  0  0
 19 22  1  0  0  0
 20 21  1  0  0  0
 20 14  1  0  0  0
 21 16  1  0  0  0
 11 14  1  0  0  0
 11 12  1  0  0  0
 11  1  1  0  0  0
 12 13  2  0  0  0
  1  2  1  0  0  0
  1 28  1  0  0  0
  2  5  1  0  0  0
  2  3  1  0  0  0
  5  8  1  0  0  0
  5  6  1  0  0  0
  8  9  1  0  0  0
 29 28  1  0  0  0
 29 30  1  0  0  0
 30 31  1  0  0  0
 30 37  1  0  0  0
 31 32  1  0  0  0
 31 36  1  0  0  0
 32 33  1  0  0  0
 32 35  1  0  0  0
 33 34  1  0  0  0
 33 41  1  0  0  0
 34 29  1  0  0  0
 41 42  1  0  0  0
  9 10  1  0  0  0
  6  7  1  0  0  0
  3  4  1  0  0  0
 42 43  1  0  0  0
 35 38  1  0  0  0
 36 39  1  0  0  0
 37 40  1  0  0  0
 22 25  1  0  0  0
 23 26  1  0  0  0
 24 27  1  0  0  0
M  END
>  <minimizedAffinity>
-7.23645

>  <minimizedRMSD>
3.89560

$$$$
MolPort-021-804-549 72320090 CSSS00159280900 MCULE-1220186650 PubChem-53494100 ZINC000072320090 ZINC72320090


 32 33  0  0  0  0  0  0  0  0999 V2000
    3.7669   20.5523   69.3985 C   0  0  0  0  0  0  0  0  0  0  0  0
    3.4230   19.2757   70.1824 C   0  0  0  0  0  0  0  0  0  0  0  0
    1.9736   19.2685   70.6885 C   0  0  0  0  0  0  0  0  0  0  0  0
    1.0032   19.9834   69.7374 C   0  0  0  0  0  0  0  0  0  0  0  0
    1.6528   21.1815   69.0211 C   0  0  0  0  0  0  0  0  0  0  0  0
    2.8393   21.5741   69.6625 O   0  0  0  0  0  0  0  0  0  0  0  0
    0.5224   19.0805   68.7895 O   0  0  0  0  0  0  0  0  0  0  0  0
    1.9183   19.8715   71.9451 O   0  0  0  0  0  0  0  0  0  0  0  0
    3.6462   18.1611   69.3747 O   0  0  0  0  0  0  0  0  0  0  0  0
    1.2615   18.7455   68.2581 H   0  0  0  0  0  0  0  0  0  0  0  0
    2.2018   20.7963   71.8727 H   0  0  0  0  0  0  0  0  0  0  0  0
    3.0646   18.2019   68.5995 H   0  0  0  0  0  0  0  0  0  0  0  0
    5.0503   20.9810   69.7393 O   0  0  0  0  0  0  0  0  0  0  0  0
    5.8038   20.8099   68.5760 C   0  0  0  0  0  0  0  0  0  0  0  0
    7.1920   21.4039   68.7565 C   0  0  0  0  0  0  0  0  0  0  0  0
    9.3673   20.3735   69.3255 C   0  0  0  0  0  0  0  0  0  0  0  0
    7.9702   20.6635   69.8322 C   0  0  0  0  0  0  0  0  0  0  0  0
    8.0659   21.5072   71.0890 C   0  0  0  0  0  0  0  0  0  0  0  0
    0.6892   22.3538   68.9728 C   0  0  0  0  0  0  0  0  0  0  0  0
   -0.5369   21.9853   69.5304 O   0  0  0  0  0  0  0  0  0  0  0  0
   -1.3391   23.1290   69.4259 C   0  0  0  0  0  0  0  0  0  0  0  0
   -1.6266   23.4749   67.9553 C   0  0  0  0  0  0  0  0  0  0  0  0
   -2.6314   22.4994   67.3367 C   0  0  0  0  0  0  0  0  0  0  0  0
   -3.8108   22.2684   68.2846 C   0  0  0  0  0  0  0  0  0  0  0  0
   -3.2905   21.9286   69.6775 C   0  0  0  0  0  0  0  0  0  0  0  0
   -2.5278   23.0004   70.1868 O   0  0  0  0  0  0  0  0  0  0  0  0
   -4.6245   21.2379   67.8126 O   0  0  0  0  0  0  0  0  0  0  0  0
   -1.9935   21.2920   67.0382 O   0  0  0  0  0  0  0  0  0  0  0  0
   -2.1197   24.7775   67.8679 O   0  0  0  0  0  0  0  0  0  0  0  0
   -4.1101   20.4171   67.7619 H   0  0  0  0  0  0  0  0  0  0  0  0
   -1.6429   20.9012   67.8539 H   0  0  0  0  0  0  0  0  0  0  0  0
   -2.9505   24.8427   68.3643 H   0  0  0  0  0  0  0  0  0  0  0  0
 16 17  1  0  0  0
 17 18  1  0  0  0
 17 15  1  0  0  0
 15 14  1  0  0  0
 14 13  1  0  0  0
  1 13  1  0  0  0
  1  2  1  0  0  0
  2  3  1  0  0  0
  2  9  1  0  0  0
  3  4  1  0  0  0
  3  8  1  0  0  0
  4  5  1  0  0  0
  4  7  1  0  0  0
  5  6  1  0  0  0
  5 19  1  0  0  0
  6  1  1  0  0  0
 19 20  1  0  0  0
 21 20  1  0  0  0
 21 22  1  0  0  0
 22 23  1  0  0  0
 22 29  1  0  0  0
 23 24  1  0  0  0
 23 28  1  0  0  0
 24 25  1  0  0  0
 24 27  1  0  0  0
 25 26  1  0  0  0
 26 21  1  0  0  0
 27 30  1  0  0  0
 28 31  1  0  0  0
 29 32  1  0  0  0
  7 10  1  0  0  0
  8 11  1  0  0  0
  9 12  1  0  0  0
M  END
>  <minimizedAffinity>
-7.22321

>  <minimizedRMSD>
2.39875

$$$$
MolPort-007-823-816 ChemDiv-G070-0712 MCULE-9208993835 PubChem-20938433 ZINC000020582462 ZINC20582462


 31 32  0  0  0  0  0  0  0  0999 V2000
    4.9329   19.9204   68.9592 S   0  0  0  0  0  0  0  0  0  0  0  0
    5.3441   21.1447   68.1883 O   0  0  0  0  0  0  0  0  0  0  0  0
    5.3950   18.6932   68.2262 O   0  0  0  0  0  0  0  0  0  0  0  0
    7.0104   20.1765   70.8726 C   0  0  0  0  0  0  0  0  0  0  0  0
    7.0907   20.1179   72.2568 C   0  0  0  0  0  0  0  0  0  0  0  0
    8.3256   20.2830   73.0741 C   0  0  0  0  0  0  0  0  0  0  0  0
    5.8931   19.8425   72.8073 N   0  0  0  0  0  0  0  0  0  0  0  0
    5.0344   19.7355   71.7762 C   0  0  0  0  0  0  0  0  0  0  0  0
    3.5981   19.3930   71.9672 C   0  0  0  0  0  0  0  0  0  0  0  0
    5.6755   19.9442   70.5650 C   0  0  0  0  0  0  0  0  0  0  0  0
    5.6881   19.7406   73.7648 H   0  0  0  0  0  0  0  0  0  0  0  0
    8.1375   20.3915   69.9396 C   0  0  0  0  0  0  0  0  0  0  0  0
    7.9825   20.2103   68.7018 O   0  0  0  0  0  0  0  0  0  0  0  0
    9.3846   20.7761   70.4368 O   0  0  0  0  0  0  0  0  0  0  0  0
   11.1636   20.0378   69.0106 C   0  0  0  0  0  0  0  0  0  0  0  0
   10.5160   19.9207   70.3744 C   0  0  0  0  0  0  0  0  0  0  0  0
    3.2045   19.8871   69.0727 N   0  0  0  0  0  0  0  0  0  0  0  0
    2.9213   19.3522   69.8937 H   0  0  0  0  0  0  0  0  0  0  0  0
    2.7380   21.2598   69.1921 C   0  0  0  0  0  0  0  0  0  0  0  0
    1.2549   21.2798   69.3010 C   0  0  0  0  0  0  0  0  0  0  0  0
    0.6906   20.5345   70.1447 O   0  0  0  0  0  0  0  0  0  0  0  0
    0.4961   22.1526   68.4532 N   0  0  0  0  0  0  0  0  0  0  0  0
    1.0078   22.7182   67.8307 H   0  0  0  0  0  0  0  0  0  0  0  0
   -0.9311   22.2866   68.4185 C   0  0  0  0  0  0  0  0  0  0  0  0
   -1.5412   22.6816   67.2241 C   0  0  0  0  0  0  0  0  0  0  0  0
   -2.9295   22.8213   67.1515 C   0  0  0  0  0  0  0  0  0  0  0  0
   -3.7229   22.5666   68.2738 C   0  0  0  0  0  0  0  0  0  0  0  0
   -5.2003   22.7252   68.1617 C   0  0  0  0  0  0  0  0  0  0  0  0
   -3.1183   22.1684   69.4786 C   0  0  0  0  0  0  0  0  0  0  0  0
   -4.0665   21.8348   70.9195 Cl  0  0  0  0  0  0  0  0  0  0  0  0
   -1.7286   22.0308   69.5436 C   0  0  0  0  0  0  0  0  0  0  0  0
 15 16  1  0  0  0
 16 14  1  0  0  0
 14 12  1  0  0  0
 12 13  2  0  0  0
 12  4  1  0  0  0
  4  5  2  0  0  0
  5  6  1  0  0  0
  5  7  1  0  0  0
  7  8  1  0  0  0
  8  9  1  0  0  0
  8 10  2  0  0  0
 10  1  1  0  0  0
 10  4  1  0  0  0
  1  2  2  0  0  0
  1  3  2  0  0  0
  1 17  1  0  0  0
 17 19  1  0  0  0
 19 20  1  0  0  0
 20 21  2  0  0  0
 20 22  1  0  0  0
 22 24  1  0  0  0
 24 25  2  0  0  0
 25 26  1  0  0  0
 26 27  2  0  0  0
 27 28  1  0  0  0
 27 29  1  0  0  0
 29 30  1  0  0  0
 29 31  2  0  0  0
 31 24  1  0  0  0
  7 11  1  0  0  0
 17 18  1  0  0  0
 22 23  1  0  0  0
M  END
>  <minimizedAffinity>
-7.21371

>  <minimizedRMSD>
1.65054

$$$$
MolPort-046-580-118 MolPort-047-521-981 1704345064 CSSS00160588013 MCULE-6775400470 MCULE-6890510004 ZINC001704345064


 30 33  0  0  0  0  0  0  0  0999 V2000
    0.3141   20.1215   67.8514 C   0  0  0  0  0  0  0  0  0  0  0  0
   -0.3858   21.0179   68.8641 C   0  0  0  0  0  0  0  0  0  0  0  0
    0.3845   22.3426   68.9890 C   0  0  0  0  0  0  0  0  0  0  0  0
   -0.5526   23.5180   69.2791 C   0  0  0  0  0  0  0  0  0  0  0  0
   -1.6135   23.0999   70.1071 O   0  0  0  0  0  0  0  0  0  0  0  0
   -2.5407   22.3223   69.3596 C   0  0  0  0  0  0  0  0  0  0  0  0
   -3.3651   21.5250   70.3805 C   0  0  0  0  0  0  0  0  0  0  0  0
   -4.5882   20.8741   69.7332 C   0  0  0  0  0  0  0  0  0  0  0  0
   -5.4442   21.8998   69.1452 N   0  0  0  0  0  0  0  0  0  0  0  0
   -4.7124   22.5351   68.0537 C   0  0  0  0  0  0  0  0  0  0  0  0
   -3.4925   23.2763   68.6033 C   0  0  0  0  0  0  0  0  0  0  0  0
   -1.8338   21.2919   68.4094 C   0  0  0  0  0  0  0  0  0  0  0  0
   -1.8481   21.7308   67.0777 O   0  0  0  0  0  0  0  0  0  0  0  0
   -5.6837   22.5959   69.8513 H   0  0  0  0  0  0  0  0  0  0  0  0
   -1.3511   22.5606   67.0054 H   0  0  0  0  0  0  0  0  0  0  0  0
   -0.4227   20.3393   70.1603 N   0  0  0  0  0  0  0  0  0  0  0  0
    0.3144   19.1567   70.4983 C   0  0  0  0  0  0  0  0  0  0  0  0
    1.0398   18.5961   69.6351 O   0  0  0  0  0  0  0  0  0  0  0  0
   -1.0007   20.7263   70.8570 H   0  0  0  0  0  0  0  0  0  0  0  0
    0.1746   18.5859   71.8488 C   0  0  0  0  0  0  0  0  0  0  0  0
   -0.8825   17.7986   72.2654 C   0  0  0  0  0  0  0  0  0  0  0  0
   -0.6422   17.3989   73.5314 N   0  0  0  0  0  0  0  0  0  0  0  0
    0.5152   17.8959   73.9390 N   0  0  0  0  0  0  0  0  0  0  0  0
    1.0349   18.6249   72.9365 C   0  0  0  0  0  0  0  0  0  0  0  0
   -1.2358   16.8263   74.0689 H   0  0  0  0  0  0  0  0  0  0  0  0
    2.2552   19.3665   73.0686 N   0  0  0  0  0  0  0  0  0  0  0  0
    2.6898   19.9960   74.1739 C   0  0  0  0  0  0  0  0  0  0  0  0
    3.8368   20.6403   73.8787 N   0  0  0  0  0  0  0  0  0  0  0  0
    4.0709   20.4016   72.5959 N   0  0  0  0  0  0  0  0  0  0  0  0
    3.1113   19.6378   72.1019 N   0  0  0  0  0  0  0  0  0  0  0  0
  2  1  1  0  0  0
  2 16  1  0  0  0
 16 17  1  0  0  0
 17 18  2  0  0  0
 17 20  1  0  0  0
 20 21  2  0  0  0
 21 22  1  0  0  0
 22 23  1  0  0  0
 23 24  2  0  0  0
 24 26  1  0  0  0
 26 27  1  0  0  0
 27 28  2  0  0  0
 28 29  1  0  0  0
 29 30  2  0  0  0
  2  3  1  0  0  0
  3  4  1  0  0  0
  4  5  1  0  0  0
  5  6  1  0  0  0
  6  7  1  0  0  0
  7  8  1  0  0  0
  8  9  1  0  0  0
  9 10  1  0  0  0
 10 11  1  0  0  0
  6 12  1  0  0  0
 12 13  1  0  0  0
 12  2  1  0  0  0
 24 20  1  0  0  0
 30 26  1  0  0  0
 11  6  1  0  0  0
 16 19  1  0  0  0
 22 25  1  0  0  0
  9 14  1  0  0  0
 13 15  1  0  0  0
M  END
>  <minimizedAffinity>
-7.18627

>  <minimizedRMSD>
3.86816

$$$$
MolPort-027-823-128 91695671 CSSS00159614822 MCULE-7714111248 ZINC000091695671


 26 27  0  0  0  0  0  0  0  0999 V2000
    3.4677   19.2444   70.4845 C   0  0  0  0  0  0  0  0  0  0  0  0
    3.9067   19.1564   69.1599 C   0  0  0  0  0  0  0  0  0  0  0  0
    5.1942   19.4413   68.8391 N   0  0  0  0  0  0  0  0  0  0  0  0
    6.0871   19.8182   69.7919 C   0  0  0  0  0  0  0  0  0  0  0  0
    5.6859   19.9120   71.0882 N   0  0  0  0  0  0  0  0  0  0  0  0
    4.4076   19.6367   71.4566 C   0  0  0  0  0  0  0  0  0  0  0  0
    4.0543   19.7499   72.7962 O   0  0  0  0  0  0  0  0  0  0  0  0
    4.6938   20.0124   73.4288 H   0  0  0  0  0  0  0  0  0  0  0  0
    7.4785   20.1220   69.4175 C   0  0  0  0  0  0  0  0  0  0  0  0
    7.7460   20.7251   68.2250 N   0  0  0  0  0  0  0  0  0  0  0  0
    9.0160   21.0235   67.8398 C   0  0  0  0  0  0  0  0  0  0  0  0
   10.0918   20.7125   68.6735 C   0  0  0  0  0  0  0  0  0  0  0  0
    9.8458   20.0948   69.9002 C   0  0  0  0  0  0  0  0  0  0  0  0
    8.5357   19.7965   70.2779 C   0  0  0  0  0  0  0  0  0  0  0  0
    1.0229   19.2921   69.8825 N   0  0  0  0  0  0  0  0  0  0  0  0
    2.0569   18.9304   70.8046 C   0  0  0  0  0  0  0  0  0  0  0  0
    1.7570   18.3463   71.8813 O   0  0  0  0  0  0  0  0  0  0  0  0
    1.2812   19.7030   69.0259 H   0  0  0  0  0  0  0  0  0  0  0  0
   -0.3933   19.0808   70.1518 C   0  0  0  0  0  0  0  0  0  0  0  0
   -1.0677   20.3829   70.5612 C   0  0  0  0  0  0  0  0  0  0  0  0
   -0.6304   21.7279   69.4689 S   0  0  0  0  0  0  0  0  0  0  0  0
    0.8123   22.1063   69.6645 O   0  0  0  0  0  0  0  0  0  0  0  0
   -1.4915   22.9109   69.8081 O   0  0  0  0  0  0  0  0  0  0  0  0
   -1.6477   22.3675   67.1748 C   0  0  0  0  0  0  0  0  0  0  0  0
   -0.9187   21.2866   67.8170 N   0  0  0  0  0  0  0  0  0  0  0  0
   -0.0296   21.1391   67.3394 H   0  0  0  0  0  0  0  0  0  0  0  0
 24 25  1  0  0  0
 25 21  1  0  0  0
 21 22  2  0  0  0
 21 23  2  0  0  0
 21 20  1  0  0  0
 20 19  1  0  0  0
 19 15  1  0  0  0
 15 16  1  0  0  0
 16 17  2  0  0  0
 16  1  1  0  0  0
  1  2  2  0  0  0
  2  3  1  0  0  0
  3  4  2  0  0  0
  4  5  1  0  0  0
  4  9  1  0  0  0
  5  6  2  0  0  0
  6  7  1  0  0  0
  6  1  1  0  0  0
  9 10  2  0  0  0
 10 11  1  0  0  0
 11 12  2  0  0  0
 12 13  1  0  0  0
 13 14  2  0  0  0
 14  9  1  0  0  0
 25 26  1  0  0  0
 15 18  1  0  0  0
  7  8  1  0  0  0
M  END
>  <minimizedAffinity>
-7.16106

>  <minimizedRMSD>
1.28291

$$$$
MolPort-007-823-798 ChemDiv-G070-0674 MCULE-1590813545 PubChem-20938419 ZINC000007006771 ZINC07006771


 31 32  0  0  0  0  0  0  0  0999 V2000
    4.0595   20.0976   69.0613 S   0  0  0  0  0  0  0  0  0  0  0  0
    4.6148   21.4487   68.7045 O   0  0  0  0  0  0  0  0  0  0  0  0
    4.7605   19.0429   68.2531 O   0  0  0  0  0  0  0  0  0  0  0  0
    5.5014   19.9479   71.4983 C   0  0  0  0  0  0  0  0  0  0  0  0
    5.2002   19.5834   72.8033 C   0  0  0  0  0  0  0  0  0  0  0  0
    6.1451   19.5775   73.9550 C   0  0  0  0  0  0  0  0  0  0  0  0
    3.9220   19.1760   72.9169 N   0  0  0  0  0  0  0  0  0  0  0  0
    3.3913   19.2934   71.6852 C   0  0  0  0  0  0  0  0  0  0  0  0
    1.9907   18.8943   71.3778 C   0  0  0  0  0  0  0  0  0  0  0  0
    4.3242   19.7754   70.7807 C   0  0  0  0  0  0  0  0  0  0  0  0
    3.4694   18.8584   73.7315 H   0  0  0  0  0  0  0  0  0  0  0  0
    6.8241   20.3743   70.9928 C   0  0  0  0  0  0  0  0  0  0  0  0
    7.5151   19.5952   70.2823 O   0  0  0  0  0  0  0  0  0  0  0  0
    7.3178   21.6384   71.3241 O   0  0  0  0  0  0  0  0  0  0  0  0
    8.1478   23.0269   73.0941 C   0  0  0  0  0  0  0  0  0  0  0  0
    8.4006   21.8113   72.2266 C   0  0  0  0  0  0  0  0  0  0  0  0
    2.3720   20.0715   68.6721 N   0  0  0  0  0  0  0  0  0  0  0  0
    1.9264   19.2683   69.1156 H   0  0  0  0  0  0  0  0  0  0  0  0
    1.7790   21.3028   69.1700 C   0  0  0  0  0  0  0  0  0  0  0  0
    0.4587   21.5231   68.5221 C   0  0  0  0  0  0  0  0  0  0  0  0
    0.1033   20.7769   67.5715 O   0  0  0  0  0  0  0  0  0  0  0  0
   -0.3740   22.6025   68.9597 N   0  0  0  0  0  0  0  0  0  0  0  0
    0.0267   23.2618   69.5714 H   0  0  0  0  0  0  0  0  0  0  0  0
   -1.7421   22.8038   68.5820 C   0  0  0  0  0  0  0  0  0  0  0  0
   -2.8233   22.2343   69.2968 C   0  0  0  0  0  0  0  0  0  0  0  0
   -4.1371   22.4991   68.8891 C   0  0  0  0  0  0  0  0  0  0  0  0
   -4.3858   23.3202   67.7871 C   0  0  0  0  0  0  0  0  0  0  0  0
   -3.3208   23.8973   67.0939 C   0  0  0  0  0  0  0  0  0  0  0  0
   -2.0071   23.6452   67.4958 C   0  0  0  0  0  0  0  0  0  0  0  0
   -2.6236   21.4365   70.5447 C   0  0  0  0  0  0  0  0  0  0  0  0
   -3.2728   22.1346   71.7256 C   0  0  0  0  0  0  0  0  0  0  0  0
 15 16  1  0  0  0
 16 14  1  0  0  0
 14 12  1  0  0  0
 12 13  2  0  0  0
 12  4  1  0  0  0
  4  5  2  0  0  0
  5  6  1  0  0  0
  5  7  1  0  0  0
  7  8  1  0  0  0
  8  9  1  0  0  0
  8 10  2  0  0  0
 10  1  1  0  0  0
 10  4  1  0  0  0
  1  2  2  0  0  0
  1  3  2  0  0  0
  1 17  1  0  0  0
 17 19  1  0  0  0
 19 20  1  0  0  0
 20 21  2  0  0  0
 20 22  1  0  0  0
 22 24  1  0  0  0
 24 25  2  0  0  0
 25 30  1  0  0  0
 25 26  1  0  0  0
 30 31  1  0  0  0
 26 27  2  0  0  0
 27 28  1  0  0  0
 28 29  2  0  0  0
 29 24  1  0  0  0
  7 11  1  0  0  0
 17 18  1  0  0  0
 22 23  1  0  0  0
M  END
>  <minimizedAffinity>
-7.14738

>  <minimizedRMSD>
1.86831

$$$$
MolPort-046-697-427 CSSS00159277875 MCULE-4064576356 PubChem-138990105


 30 32  0  0  0  0  0  0  0  0999 V2000
    3.9602   20.3241   70.2527 C   0  0  0  0  0  0  0  0  0  0  0  0
    3.6303   21.6823   70.1033 O   0  0  0  0  0  0  0  0  0  0  0  0
    3.3143   20.8392   69.0115 C   0  0  0  0  0  0  0  0  0  0  0  0
    1.7853   20.6823   68.8978 C   0  0  0  0  0  0  0  0  0  0  0  0
    1.1540   21.9342   68.7857 O   0  0  0  0  0  0  0  0  0  0  0  0
   -0.1285   21.8046   69.3621 C   0  0  0  0  0  0  0  0  0  0  0  0
   -0.3140   20.3922   69.8973 C   0  0  0  0  0  0  0  0  0  0  0  0
    1.0741   19.8402   69.9434 C   0  0  0  0  0  0  0  0  0  0  0  0
    1.0664   18.4956   69.5654 O   0  0  0  0  0  0  0  0  0  0  0  0
    1.6742   20.0260   71.3409 C   0  0  0  0  0  0  0  0  0  0  0  0
    0.9647   19.2921   72.2963 O   0  0  0  0  0  0  0  0  0  0  0  0
    3.1569   19.6562   71.3771 C   0  0  0  0  0  0  0  0  0  0  0  0
    3.3189   18.2690   71.3222 O   0  0  0  0  0  0  0  0  0  0  0  0
    0.6094   17.9721   70.2422 H   0  0  0  0  0  0  0  0  0  0  0  0
    1.0307   18.3462   72.0919 H   0  0  0  0  0  0  0  0  0  0  0  0
    2.9693   17.9356   70.4811 H   0  0  0  0  0  0  0  0  0  0  0  0
   -1.2252   22.2028   68.3645 C   0  0  0  0  0  0  0  0  0  0  0  0
   -2.5787   22.2452   69.0518 C   0  0  0  0  0  0  0  0  0  0  0  0
   -0.9369   23.5851   67.8090 C   0  0  0  0  0  0  0  0  0  0  0  0
   -1.2730   21.2893   67.3096 O   0  0  0  0  0  0  0  0  0  0  0  0
   -1.4570   20.4028   67.6576 H   0  0  0  0  0  0  0  0  0  0  0  0
    5.4706   20.1410   70.2206 C   0  0  0  0  0  0  0  0  0  0  0  0
    5.8611   18.6861   70.4836 C   0  0  0  0  0  0  0  0  0  0  0  0
    6.1757   18.0519   69.2781 O   0  0  0  0  0  0  0  0  0  0  0  0
    6.9416   18.4884   68.8733 H   0  0  0  0  0  0  0  0  0  0  0  0
    8.2639   19.2766   70.9823 C   0  0  0  0  0  0  0  0  0  0  0  0
    7.0216   18.5548   71.4808 C   0  0  0  0  0  0  0  0  0  0  0  0
    6.6221   19.1309   72.8276 C   0  0  0  0  0  0  0  0  0  0  0  0
    7.3265   17.2044   71.6538 O   0  0  0  0  0  0  0  0  0  0  0  0
    8.0593   17.1164   72.2831 H   0  0  0  0  0  0  0  0  0  0  0  0
 26 27  1  0  0  0
 27 28  1  0  0  0
 27 29  1  0  0  0
 27 23  1  0  0  0
 23 24  1  0  0  0
 23 22  1  0  0  0
 22  1  1  0  0  0
  1  2  1  0  0  0
  2  3  1  0  0  0
  3  4  1  0  0  0
  4  5  1  0  0  0
  5  6  1  0  0  0
  6  7  1  0  0  0
  7  8  1  0  0  0
  8  9  1  0  0  0
  8 10  1  0  0  0
 10 11  1  0  0  0
 10 12  1  0  0  0
 12 13  1  0  0  0
  6 17  1  0  0  0
 17 18  1  0  0  0
 17 19  1  0  0  0
 17 20  1  0  0  0
  3  1  1  0  0  0
  8  4  1  0  0  0
 12  1  1  0  0  0
 29 30  1  0  0  0
 24 25  1  0  0  0
  9 14  1  0  0  0
 11 15  1  0  0  0
 13 16  1  0  0  0
 20 21  1  0  0  0
M  END
>  <minimizedAffinity>
-7.14411

>  <minimizedRMSD>
2.30569

$$$$
MolPort-003-983-443 PubChem-45073405 PubChem-45073406


 48 50  0  0  0  0  0  0  0  0999 V2000
    0.8976   19.2675   69.9767 C   0  0  0  0  0  0  0  0  0  0  0  0
    1.4338   19.0188   68.5627 C   0  0  0  0  0  0  0  0  0  0  0  0
    0.3400   18.8832   67.6164 N   0  0  0  0  0  0  0  0  0  0  0  0
    2.3943   20.1212   68.0974 C   0  0  0  0  0  0  0  0  0  0  0  0
    3.1559   20.7947   69.2457 C   0  0  0  0  0  0  0  0  0  0  0  0
    4.4253   21.2942   68.7469 N   0  0  0  0  0  0  0  0  0  0  0  0
    3.3793   19.8358   70.4219 C   0  0  0  0  0  0  0  0  0  0  0  0
    2.0449   19.3266   70.9974 C   0  0  0  0  0  0  0  0  0  0  0  0
    2.2318   18.0656   71.5633 O   0  0  0  0  0  0  0  0  0  0  0  0
   -0.1885   19.7549   67.5804 H   0  0  0  0  0  0  0  0  0  0  0  0
   -0.2745   18.1251   67.9132 H   0  0  0  0  0  0  0  0  0  0  0  0
    4.9838   20.5151   68.3982 H   0  0  0  0  0  0  0  0  0  0  0  0
    4.9272   21.7613   69.5020 H   0  0  0  0  0  0  0  0  0  0  0  0
    2.4998   17.4382   70.8738 H   0  0  0  0  0  0  0  0  0  0  0  0
    0.1658   20.4606   70.0202 O   0  0  0  0  0  0  0  0  0  0  0  0
   -0.7307   20.3558   73.4358 C   0  0  0  0  0  0  0  0  0  0  0  0
    0.0227   20.7294   72.2937 O   0  0  0  0  0  0  0  0  0  0  0  0
   -0.6730   20.3363   71.1299 C   0  0  0  0  0  0  0  0  0  0  0  0
   -1.9356   21.1807   70.9167 C   0  0  0  0  0  0  0  0  0  0  0  0
   -2.9349   20.3678   70.3755 O   0  0  0  0  0  0  0  0  0  0  0  0
   -2.4068   21.8159   72.2331 C   0  0  0  0  0  0  0  0  0  0  0  0
   -3.7509   22.1903   72.1558 O   0  0  0  0  0  0  0  0  0  0  0  0
   -2.1830   20.8685   73.4102 C   0  0  0  0  0  0  0  0  0  0  0  0
   -2.4656   21.5242   74.6090 O   0  0  0  0  0  0  0  0  0  0  0  0
   -3.1326   19.6450   70.9915 H   0  0  0  0  0  0  0  0  0  0  0  0
   -4.2978   21.4030   72.0077 H   0  0  0  0  0  0  0  0  0  0  0  0
   -1.8691   22.2822   74.7113 H   0  0  0  0  0  0  0  0  0  0  0  0
   -1.6870   18.4585   74.6387 N   0  0  0  0  0  0  0  0  0  0  0  0
   -0.6640   18.8528   73.6857 C   0  0  0  0  0  0  0  0  0  0  0  0
   -1.6334   17.4525   74.7983 H   0  0  0  0  0  0  0  0  0  0  0  0
   -2.6070   18.6953   74.2673 H   0  0  0  0  0  0  0  0  0  0  0  0
    4.1041   20.4738   71.4342 O   0  0  0  0  0  0  0  0  0  0  0  0
    5.1240   19.5726   71.7830 C   0  0  0  0  0  0  0  0  0  0  0  0
    6.2796   19.7713   70.9881 O   0  0  0  0  0  0  0  0  0  0  0  0
    6.7768   21.0731   71.2232 C   0  0  0  0  0  0  0  0  0  0  0  0
    7.3098   21.2145   72.6549 C   0  0  0  0  0  0  0  0  0  0  0  0
    8.3522   20.3079   72.8825 O   0  0  0  0  0  0  0  0  0  0  0  0
    6.1535   20.9547   73.6226 C   0  0  0  0  0  0  0  0  0  0  0  0
    6.6323   20.9355   74.9953 N   0  0  0  0  0  0  0  0  0  0  0  0
    5.4533   19.6372   73.2841 C   0  0  0  0  0  0  0  0  0  0  0  0
    4.2876   19.4990   74.0409 O   0  0  0  0  0  0  0  0  0  0  0  0
    8.0277   19.4030   72.7534 H   0  0  0  0  0  0  0  0  0  0  0  0
    7.3095   20.1812   75.1086 H   0  0  0  0  0  0  0  0  0  0  0  0
    5.8463   20.7845   75.6276 H   0  0  0  0  0  0  0  0  0  0  0  0
    3.6792   20.2254   73.8331 H   0  0  0  0  0  0  0  0  0  0  0  0
    7.8128   21.4611   70.1741 C   0  0  0  0  0  0  0  0  0  0  0  0
    8.6938   20.4055   69.9294 O   0  0  0  0  0  0  0  0  0  0  0  0
    9.1620   20.1786   70.7481 H   0  0  0  0  0  0  0  0  0  0  0  0
 28 29  1  0  0  0
 16 29  1  0  0  0
 16 17  1  0  0  0
 17 18  1  0  0  0
 18 15  1  0  0  0
 18 19  1  0  0  0
  1 15  1  0  0  0
  1  2  1  0  0  0
  2  3  1  0  0  0
  2  4  1  0  0  0
  4  5  1  0  0  0
  5  6  1  0  0  0
  5  7  1  0  0  0
  7 32  1  0  0  0
  7  8  1  0  0  0
 33 32  1  0  0  0
 33 34  1  0  0  0
 34 35  1  0  0  0
 35 46  1  0  0  0
 35 36  1  0  0  0
 46 47  1  0  0  0
 36 37  1  0  0  0
 36 38  1  0  0  0
 38 39  1  0  0  0
 38 40  1  0  0  0
 40 41  1  0  0  0
 40 33  1  0  0  0
  8  9  1  0  0  0
  8  1  1  0  0  0
 19 20  1  0  0  0
 19 21  1  0  0  0
 21 22  1  0  0  0
 21 23  1  0  0  0
 23 24  1  0  0  0
 23 16  1  0  0  0
 28 30  1  0  0  0
 28 31  1  0  0  0
  3 10  1  0  0  0
  3 11  1  0  0  0
  6 12  1  0  0  0
  6 13  1  0  0  0
 47 48  1  0  0  0
 37 42  1  0  0  0
 39 43  1  0  0  0
 39 44  1  0  0  0
 41 45  1  0  0  0
  9 14  1  0  0  0
 20 25  1  0  0  0
 22 26  1  0  0  0
 24 27  1  0  0  0
M  END
>  <minimizedAffinity>
-7.14400

>  <minimizedRMSD>
2.69433

$$$$
MolPort-047-145-608 CSSS00161148745 MCULE-2432798859 PubChem-75009172


 41 43  0  0  0  0  0  0  0  0999 V2000
    0.5757   20.7066   68.7048 C   0  0  0  0  0  0  0  0  0  0  0  0
   -0.3525   20.0870   69.7657 C   0  0  0  0  0  0  0  0  0  0  0  0
    0.3395   20.0782   71.1382 C   0  0  0  0  0  0  0  0  0  0  0  0
    1.8529   19.9039   71.0042 C   0  0  0  0  0  0  0  0  0  0  0  0
    2.4204   21.0028   70.0645 C   0  0  0  0  0  0  0  0  0  0  0  0
    1.4556   21.6636   69.2611 O   0  0  0  0  0  0  0  0  0  0  0  0
    2.1425   18.6226   70.5209 O   0  0  0  0  0  0  0  0  0  0  0  0
   -0.2066   19.1108   71.9844 O   0  0  0  0  0  0  0  0  0  0  0  0
   -0.6980   18.7924   69.3711 O   0  0  0  0  0  0  0  0  0  0  0  0
    1.7311   18.5048   69.6504 H   0  0  0  0  0  0  0  0  0  0  0  0
   -0.0614   18.2300   71.6047 H   0  0  0  0  0  0  0  0  0  0  0  0
    0.1048   18.2540   69.2900 H   0  0  0  0  0  0  0  0  0  0  0  0
   -0.1319   21.2187   67.5953 O   0  0  0  0  0  0  0  0  0  0  0  0
   -0.5767   22.5180   67.9030 C   0  0  0  0  0  0  0  0  0  0  0  0
   -4.5177   22.4546   69.6181 C   0  0  0  0  0  0  0  0  0  0  0  0
   -3.4199   22.8575   70.3840 C   0  0  0  0  0  0  0  0  0  0  0  0
   -2.1412   22.8742   69.8190 C   0  0  0  0  0  0  0  0  0  0  0  0
   -1.9551   22.4864   68.4876 C   0  0  0  0  0  0  0  0  0  0  0  0
   -3.0593   22.0840   67.7216 C   0  0  0  0  0  0  0  0  0  0  0  0
   -4.3376   22.0678   68.2869 C   0  0  0  0  0  0  0  0  0  0  0  0
   -0.5218   23.3854   66.6884 C   0  0  0  0  0  0  0  0  0  0  0  0
    0.4187   24.2083   66.5517 O   0  0  0  0  0  0  0  0  0  0  0  0
   -1.4988   23.2847   65.7059 O   0  0  0  0  0  0  0  0  0  0  0  0
   -2.2012   22.6724   65.8047 H   0  0  0  0  0  0  0  0  0  0  0  0
    3.6366   20.5812   69.2469 C   0  0  0  0  0  0  0  0  0  0  0  0
    4.5310   19.8768   70.0559 O   0  0  0  0  0  0  0  0  0  0  0  0
    5.7408   20.5625   69.9340 C   0  0  0  0  0  0  0  0  0  0  0  0
    6.6055   19.9016   68.8518 C   0  0  0  0  0  0  0  0  0  0  0  0
    7.9482   20.6366   68.7285 C   0  0  0  0  0  0  0  0  0  0  0  0
    8.5665   20.8688   70.1089 C   0  0  0  0  0  0  0  0  0  0  0  0
    7.4964   21.4327   71.0570 C   0  0  0  0  0  0  0  0  0  0  0  0
    6.4198   20.5333   71.1674 O   0  0  0  0  0  0  0  0  0  0  0  0
    9.0762   19.6646   70.6032 O   0  0  0  0  0  0  0  0  0  0  0  0
    7.7772   21.8642   68.0830 O   0  0  0  0  0  0  0  0  0  0  0  0
    5.9384   19.8966   67.6248 O   0  0  0  0  0  0  0  0  0  0  0  0
    8.3590   19.0156   70.6761 H   0  0  0  0  0  0  0  0  0  0  0  0
    7.1803   22.4234   68.6046 H   0  0  0  0  0  0  0  0  0  0  0  0
    5.7601   20.8097   67.3501 H   0  0  0  0  0  0  0  0  0  0  0  0
    8.0845   21.7197   72.4279 C   0  0  0  0  0  0  0  0  0  0  0  0
    7.9034   23.0656   72.7471 O   0  0  0  0  0  0  0  0  0  0  0  0
    8.3504   23.6176   72.0865 H   0  0  0  0  0  0  0  0  0  0  0  0
 15 16  2  0  0  0
 16 17  1  0  0  0
 17 18  2  0  0  0
 18 19  1  0  0  0
 19 20  2  0  0  0
 20 15  1  0  0  0
 14 18  1  0  0  0
 14 21  1  0  0  0
 14 13  1  0  0  0
 21 22  2  0  0  0
 21 23  1  0  0  0
  1 13  1  0  0  0
  1  2  1  0  0  0
  2  3  1  0  0  0
  2  9  1  0  0  0
  3  4  1  0  0  0
  3  8  1  0  0  0
  4  5  1  0  0  0
  4  7  1  0  0  0
  5  6  1  0  0  0
  5 25  1  0  0  0
  6  1  1  0  0  0
 25 26  1  0  0  0
 27 26  1  0  0  0
 27 28  1  0  0  0
 28 29  1  0  0  0
 28 35  1  0  0  0
 29 30  1  0  0  0
 29 34  1  0  0  0
 30 31  1  0  0  0
 30 33  1  0  0  0
 31 32  1  0  0  0
 31 39  1  0  0  0
 32 27  1  0  0  0
 39 40  1  0  0  0
 23 24  1  0  0  0
 40 41  1  0  0  0
 33 36  1  0  0  0
 34 37  1  0  0  0
 35 38  1  0  0  0
  7 10  1  0  0  0
  8 11  1  0  0  0
  9 12  1  0  0  0
M  END
>  <minimizedAffinity>
-7.12769

>  <minimizedRMSD>
3.84286

$$$$
Molport-051-989-756 PubChem-117065239


 39 41  0  0  0  0  0  0  0  0999 V2000
    4.5038   20.4914   70.0645 C   0  0  0  0  0  0  0  0  0  0  0  0
    4.2244   19.2296   70.9017 C   0  0  0  0  0  0  0  0  0  0  0  0
    2.7259   19.0115   71.1538 C   0  0  0  0  0  0  0  0  0  0  0  0
    1.8542   19.4625   69.9743 C   0  0  0  0  0  0  0  0  0  0  0  0
    2.4177   20.7107   69.2729 C   0  0  0  0  0  0  0  0  0  0  0  0
    3.3925   21.3506   70.0588 O   0  0  0  0  0  0  0  0  0  0  0  0
    1.7339   18.4244   69.0507 O   0  0  0  0  0  0  0  0  0  0  0  0
    2.3431   19.7030   72.3038 O   0  0  0  0  0  0  0  0  0  0  0  0
    4.7581   18.1143   70.2566 O   0  0  0  0  0  0  0  0  0  0  0  0
    2.6101   18.2008   68.6997 H   0  0  0  0  0  0  0  0  0  0  0  0
    2.4874   20.6532   72.1728 H   0  0  0  0  0  0  0  0  0  0  0  0
    4.3264   18.0015   69.3953 H   0  0  0  0  0  0  0  0  0  0  0  0
    5.6320   21.1823   70.5892 O   0  0  0  0  0  0  0  0  0  0  0  0
    9.5509   20.7297   69.0959 C   0  0  0  0  0  0  0  0  0  0  0  0
    9.1898   20.1528   70.3218 C   0  0  0  0  0  0  0  0  0  0  0  0
    7.8918   20.2898   70.8347 C   0  0  0  0  0  0  0  0  0  0  0  0
    6.9342   21.0235   70.0962 C   0  0  0  0  0  0  0  0  0  0  0  0
    7.3053   21.6000   68.8701 C   0  0  0  0  0  0  0  0  0  0  0  0
    8.6012   21.4533   68.3750 C   0  0  0  0  0  0  0  0  0  0  0  0
   11.6673   19.4746   68.8437 C   0  0  0  0  0  0  0  0  0  0  0  0
   10.8415   20.5997   68.5757 O   0  0  0  0  0  0  0  0  0  0  0  0
    7.5819   19.6522   72.1346 C   0  0  0  0  0  0  0  0  0  0  0  0
    7.5754   20.3285   73.1998 O   0  0  0  0  0  0  0  0  0  0  0  0
    7.2920   18.2856   72.1765 O   0  0  0  0  0  0  0  0  0  0  0  0
    7.7770   17.4455   73.2131 C   0  0  0  0  0  0  0  0  0  0  0  0
    1.2984   21.6818   68.9264 C   0  0  0  0  0  0  0  0  0  0  0  0
    0.0742   21.2112   69.4109 O   0  0  0  0  0  0  0  0  0  0  0  0
   -0.8609   22.1657   69.0090 C   0  0  0  0  0  0  0  0  0  0  0  0
   -1.8777   21.5222   68.0513 C   0  0  0  0  0  0  0  0  0  0  0  0
   -3.3194   21.9696   68.3331 C   0  0  0  0  0  0  0  0  0  0  0  0
   -3.4137   23.4188   68.8335 C   0  0  0  0  0  0  0  0  0  0  0  0
   -2.1946   23.8351   69.6692 C   0  0  0  0  0  0  0  0  0  0  0  0
   -1.4968   22.7102   70.1377 O   0  0  0  0  0  0  0  0  0  0  0  0
   -3.5497   24.2855   67.7496 O   0  0  0  0  0  0  0  0  0  0  0  0
   -3.8925   21.1161   69.2763 O   0  0  0  0  0  0  0  0  0  0  0  0
   -1.5360   21.8321   66.7353 O   0  0  0  0  0  0  0  0  0  0  0  0
   -2.7638   24.2223   67.1845 H   0  0  0  0  0  0  0  0  0  0  0  0
   -3.3970   21.1741   70.1081 H   0  0  0  0  0  0  0  0  0  0  0  0
   -1.5740   22.7931   66.6092 H   0  0  0  0  0  0  0  0  0  0  0  0
 20 21  1  0  0  0
 21 14  1  0  0  0
 14 15  2  0  0  0
 15 16  1  0  0  0
 16 17  2  0  0  0
 17 18  1  0  0  0
 18 19  2  0  0  0
 17 13  1  0  0  0
  1 13  1  0  0  0
  1  2  1  0  0  0
  2  3  1  0  0  0
  3  4  1  0  0  0
  4  5  1  0  0  0
  5  6  1  0  0  0
  5 26  1  0  0  0
 26 27  1  0  0  0
 28 27  1  0  0  0
 28 29  1  0  0  0
 29 30  1  0  0  0
 30 31  1  0  0  0
 31 32  1  0  0  0
 32 33  1  0  0  0
 31 34  1  0  0  0
 30 35  1  0  0  0
 29 36  1  0  0  0
  4  7  1  0  0  0
  3  8  1  0  0  0
  2  9  1  0  0  0
 16 22  1  0  0  0
 22 23  2  0  0  0
 22 24  1  0  0  0
 24 25  1  0  0  0
 19 14  1  0  0  0
  6  1  1  0  0  0
 33 28  1  0  0  0
 34 37  1  0  0  0
 35 38  1  0  0  0
 36 39  1  0  0  0
  7 10  1  0  0  0
  8 11  1  0  0  0
  9 12  1  0  0  0
M  END
>  <minimizedAffinity>
-7.09544

>  <minimizedRMSD>
3.58849

$$$$
MolPort-039-041-323 CSSS00160141290 MCULE-9590847618 PubChem-136663772


 27 28  0  0  0  0  0  0  0  0999 V2000
    3.9394   20.6280   69.1787 C   0  0  0  0  0  0  0  0  0  0  0  0
    4.0385   21.4666   70.1146 O   0  0  0  0  0  0  0  0  0  0  0  0
    2.6594   20.2711   68.6590 N   0  0  0  0  0  0  0  0  0  0  0  0
    2.6077   19.6300   67.9137 H   0  0  0  0  0  0  0  0  0  0  0  0
    5.1697   20.0119   68.5876 C   0  0  0  0  0  0  0  0  0  0  0  0
    7.0329   20.2125   71.5655 N   0  0  0  0  0  0  0  0  0  0  0  0
    5.8782   19.4697   71.9085 C   0  0  0  0  0  0  0  0  0  0  0  0
    5.4611   19.3366   73.0889 O   0  0  0  0  0  0  0  0  0  0  0  0
    5.2345   18.8783   70.7850 N   0  0  0  0  0  0  0  0  0  0  0  0
    6.0213   19.2391   69.6018 C   0  0  0  0  0  0  0  0  0  0  0  0
    7.1430   20.0634   70.1612 C   0  0  0  0  0  0  0  0  0  0  0  0
    8.0854   20.5499   69.4817 O   0  0  0  0  0  0  0  0  0  0  0  0
    4.4162   18.3310   70.7997 H   0  0  0  0  0  0  0  0  0  0  0  0
    7.9849   20.8547   72.4619 C   0  0  0  0  0  0  0  0  0  0  0  0
    8.4685   23.2487   72.9598 C   0  0  0  0  0  0  0  0  0  0  0  0
    7.4163   22.1572   73.0012 C   0  0  0  0  0  0  0  0  0  0  0  0
    1.4304   20.8267   69.1985 C   0  0  0  0  0  0  0  0  0  0  0  0
    0.2738   20.4792   68.2818 C   0  0  0  0  0  0  0  0  0  0  0  0
   -0.5897   21.6735   68.0673 C   0  0  0  0  0  0  0  0  0  0  0  0
   -1.6489   21.9100   68.8878 N   0  0  0  0  0  0  0  0  0  0  0  0
   -2.4500   22.9906   68.6973 C   0  0  0  0  0  0  0  0  0  0  0  0
   -3.5999   23.2324   69.6069 C   0  0  0  0  0  0  0  0  0  0  0  0
   -2.1938   23.8719   67.6478 C   0  0  0  0  0  0  0  0  0  0  0  0
   -1.1069   23.6105   66.8147 C   0  0  0  0  0  0  0  0  0  0  0  0
   -0.8480   24.3843   65.8571 O   0  0  0  0  0  0  0  0  0  0  0  0
   -0.3277   22.5197   67.0364 N   0  0  0  0  0  0  0  0  0  0  0  0
    0.4367   22.3399   66.4426 H   0  0  0  0  0  0  0  0  0  0  0  0
 15 16  1  0  0  0
 16 14  1  0  0  0
 14  6  1  0  0  0
  6  7  1  0  0  0
  7  8  2  0  0  0
  7  9  1  0  0  0
  9 10  1  0  0  0
 10  5  1  0  0  0
  5  1  1  0  0  0
  1  2  2  0  0  0
  1  3  1  0  0  0
  3 17  1  0  0  0
 17 18  1  0  0  0
 18 19  1  0  0  0
 19 20  2  0  0  0
 20 21  1  0  0  0
 21 22  1  0  0  0
 21 23  2  0  0  0
 23 24  1  0  0  0
 24 25  2  0  0  0
 24 26  1  0  0  0
 10 11  1  0  0  0
 11 12  2  0  0  0
 11  6  1  0  0  0
 26 19  1  0  0  0
  9 13  1  0  0  0
  3  4  1  0  0  0
 26 27  1  0  0  0
M  END
>  <minimizedAffinity>
-7.08570

>  <minimizedRMSD>
1.65137

$$$$
MolPort-001-748-361 CSSS00159300743 MCULE-2464351648 PubChem-7050188 ZINC000003840174 ZINC03840174


 36 37  0  0  0  0  0  0  0  0999 V2000
    3.6544   19.9362   68.7441 C   0  0  0  0  0  0  0  0  0  0  0  0
    3.8815   20.0611   67.3711 O   0  0  0  0  0  0  0  0  0  0  0  0
    4.1403   21.2255   69.4306 C   0  0  0  0  0  0  0  0  0  0  0  0
    5.6516   21.2221   69.6736 C   0  0  0  0  0  0  0  0  0  0  0  0
    6.3356   21.2271   68.4536 O   0  0  0  0  0  0  0  0  0  0  0  0
    6.0882   20.0418   70.5697 C   0  0  0  0  0  0  0  0  0  0  0  0
    7.3732   19.5986   70.2402 O   0  0  0  0  0  0  0  0  0  0  0  0
    5.1100   18.8605   70.5888 C   0  0  0  0  0  0  0  0  0  0  0  0
    4.3996   18.6805   69.2393 C   0  0  0  0  0  0  0  0  0  0  0  0
    3.4208   20.8467   67.0373 H   0  0  0  0  0  0  0  0  0  0  0  0
    6.1170   20.4230   67.9571 H   0  0  0  0  0  0  0  0  0  0  0  0
    7.3697   19.2371   69.3401 H   0  0  0  0  0  0  0  0  0  0  0  0
    1.5177   20.5203   70.0027 N   0  0  0  0  0  0  0  0  0  0  0  0
    2.1804   19.7545   68.9858 C   0  0  0  0  0  0  0  0  0  0  0  0
    1.5404   18.8830   68.3354 O   0  0  0  0  0  0  0  0  0  0  0  0
    2.0568   21.1634   70.5176 H   0  0  0  0  0  0  0  0  0  0  0  0
    0.0963   20.4102   70.3257 C   0  0  0  0  0  0  0  0  0  0  0  0
   -0.7233   21.3049   69.4381 C   0  0  0  0  0  0  0  0  0  0  0  0
   -0.7781   21.0935   68.0300 N   0  0  0  0  0  0  0  0  0  0  0  0
   -1.3717   22.2556   69.9470 O   0  0  0  0  0  0  0  0  0  0  0  0
   -0.2738   20.3521   67.6235 H   0  0  0  0  0  0  0  0  0  0  0  0
   -1.3201   21.6890   67.4635 H   0  0  0  0  0  0  0  0  0  0  0  0
   -0.3626   18.9535   70.2828 C   0  0  0  0  0  0  0  0  0  0  0  0
   -0.2873   17.4183   72.2214 C   0  0  0  0  0  0  0  0  0  0  0  0
   -1.0478   18.5578   71.5775 C   0  0  0  0  0  0  0  0  0  0  0  0
   -2.4672   18.1069   71.2883 C   0  0  0  0  0  0  0  0  0  0  0  0
    4.1361   19.0492   71.6542 N   0  0  0  0  0  0  0  0  0  0  0  0
    4.5074   19.4589   72.9717 C   0  0  0  0  0  0  0  0  0  0  0  0
    5.7206   19.6374   73.2592 O   0  0  0  0  0  0  0  0  0  0  0  0
    3.1846   18.8883   71.4593 H   0  0  0  0  0  0  0  0  0  0  0  0
    3.4717   19.6606   73.9945 C   0  0  0  0  0  0  0  0  0  0  0  0
    2.4777   18.6965   74.2089 C   0  0  0  0  0  0  0  0  0  0  0  0
    1.4938   18.9051   75.1764 C   0  0  0  0  0  0  0  0  0  0  0  0
    1.5130   20.0836   75.9246 C   0  0  0  0  0  0  0  0  0  0  0  0
    2.4849   21.0124   75.7092 N   0  0  0  0  0  0  0  0  0  0  0  0
    3.4539   20.8268   74.7710 C   0  0  0  0  0  0  0  0  0  0  0  0
 24 25  1  0  0  0
 25 26  1  0  0  0
 25 23  1  0  0  0
 17 23  1  0  0  0
 17 13  1  0  0  0
 17 18  1  0  0  0
 13 14  1  0  0  0
 14 15  2  0  0  0
  1 14  1  0  0  0
  1  2  1  0  0  0
  1  3  1  0  0  0
  3  4  1  0  0  0
  4  5  1  0  0  0
  4  6  1  0  0  0
  6  7  1  0  0  0
  6  8  1  0  0  0
  8  9  1  0  0  0
  8 27  1  0  0  0
  9  1  1  0  0  0
 27 28  1  0  0  0
 28 29  2  0  0  0
 28 31  1  0  0  0
 31 32  2  0  0  0
 32 33  1  0  0  0
 33 34  2  0  0  0
 34 35  1  0  0  0
 35 36  2  0  0  0
 36 31  1  0  0  0
 18 19  1  0  0  0
 18 20  2  0  0  0
 13 16  1  0  0  0
  2 10  1  0  0  0
  5 11  1  0  0  0
  7 12  1  0  0  0
 27 30  1  0  0  0
 19 21  1  0  0  0
 19 22  1  0  0  0
M  END
>  <minimizedAffinity>
-7.08486

>  <minimizedRMSD>
2.12337

$$$$
MolPort-046-612-152 MCULE-4391088702 PubChem-137904537


 32 34  0  0  0  0  0  0  0  0999 V2000
    6.1539   19.8095   70.4632 N   0  0  0  0  0  0  0  0  0  0  0  0
    4.7546   19.8320   70.8644 C   0  0  0  0  0  0  0  0  0  0  0  0
    4.6320   19.4342   72.3285 C   0  0  0  0  0  0  0  0  0  0  0  0
    4.8624   20.6141   73.2376 C   0  0  0  0  0  0  0  0  0  0  0  0
    3.9969   20.9284   74.0974 O   0  0  0  0  0  0  0  0  0  0  0  0
    6.0608   21.3963   73.1542 N   0  0  0  0  0  0  0  0  0  0  0  0
    7.2088   21.1399   72.2824 C   0  0  0  0  0  0  0  0  0  0  0  0
    7.9027   19.8241   72.6966 C   0  0  0  0  0  0  0  0  0  0  0  0
    8.8503   19.9974   73.8943 C   0  0  0  0  0  0  0  0  0  0  0  0
    8.6476   21.2321   74.5330 O   0  0  0  0  0  0  0  0  0  0  0  0
    9.1068   22.2076   73.6326 C   0  0  0  0  0  0  0  0  0  0  0  0
    8.1750   22.3258   72.4158 C   0  0  0  0  0  0  0  0  0  0  0  0
    6.7610   21.0908   70.8165 C   0  0  0  0  0  0  0  0  0  0  0  0
    6.1175   22.1843   73.7416 H   0  0  0  0  0  0  0  0  0  0  0  0
    3.3479   18.7789   72.5806 N   0  0  0  0  0  0  0  0  0  0  0  0
    2.1009   19.1671   71.9923 C   0  0  0  0  0  0  0  0  0  0  0  0
    2.0481   20.1343   71.1841 O   0  0  0  0  0  0  0  0  0  0  0  0
    0.9155   18.4446   72.3295 N   0  0  0  0  0  0  0  0  0  0  0  0
    3.3406   18.0144   73.2008 H   0  0  0  0  0  0  0  0  0  0  0  0
    0.9873   17.6799   72.9453 H   0  0  0  0  0  0  0  0  0  0  0  0
   -0.3939   18.7937   71.7993 C   0  0  0  0  0  0  0  0  0  0  0  0
   -1.1586   19.6328   72.8104 C   0  0  0  0  0  0  0  0  0  0  0  0
   -2.2319   20.4171   72.1363 C   0  0  0  0  0  0  0  0  0  0  0  0
   -2.6292   21.6469   72.6720 C   0  0  0  0  0  0  0  0  0  0  0  0
   -3.6462   22.3838   72.0570 C   0  0  0  0  0  0  0  0  0  0  0  0
   -4.2710   21.8897   70.9077 C   0  0  0  0  0  0  0  0  0  0  0  0
   -3.8806   20.6577   70.3741 C   0  0  0  0  0  0  0  0  0  0  0  0
   -2.8638   19.9204   70.9887 C   0  0  0  0  0  0  0  0  0  0  0  0
    4.9639   20.7046   67.9784 C   0  0  0  0  0  0  0  0  0  0  0  0
    6.2001   19.6683   68.7347 S   0  0  0  0  0  0  0  0  0  0  0  0
    5.9484   18.2393   68.3427 O   0  0  0  0  0  0  0  0  0  0  0  0
    7.5568   20.0797   68.2356 O   0  0  0  0  0  0  0  0  0  0  0  0
 29 30  1  0  0  0
 30 31  2  0  0  0
 30 32  2  0  0  0
 30  1  1  0  0  0
  1  2  1  0  0  0
  2  3  1  0  0  0
  3 15  1  0  0  0
 15 16  1  0  0  0
 16 17  2  0  0  0
 16 18  1  0  0  0
 18 21  1  0  0  0
 21 22  1  0  0  0
 22 23  1  0  0  0
 23 24  2  0  0  0
 24 25  1  0  0  0
 25 26  2  0  0  0
 26 27  1  0  0  0
 27 28  2  0  0  0
  3  4  1  0  0  0
  4  5  2  0  0  0
  4  6  1  0  0  0
  6  7  1  0  0  0
  7  8  1  0  0  0
  8  9  1  0  0  0
  9 10  1  0  0  0
 10 11  1  0  0  0
 11 12  1  0  0  0
  7 13  1  0  0  0
 13  1  1  0  0  0
 28 23  1  0  0  0
 12  7  1  0  0  0
 15 19  1  0  0  0
 18 20  1  0  0  0
  6 14  1  0  0  0
M  END
>  <minimizedAffinity>
-7.07579

>  <minimizedRMSD>
4.02331

$$$$
Molport-052-063-741 PubChem-162860682


 47 49  0  0  0  0  0  0  0  0999 V2000
    1.3813   20.0108   72.7809 C   0  0  0  0  0  0  0  0  0  0  0  0
    1.5347   20.1257   74.3028 C   0  0  0  0  0  0  0  0  0  0  0  0
    2.9971   20.4086   74.6686 C   0  0  0  0  0  0  0  0  0  0  0  0
    3.9860   19.4010   74.0591 C   0  0  0  0  0  0  0  0  0  0  0  0
    3.7900   19.2524   72.5434 C   0  0  0  0  0  0  0  0  0  0  0  0
    2.3295   18.9739   72.1621 C   0  0  0  0  0  0  0  0  0  0  0  0
    1.9656   17.6740   72.5213 O   0  0  0  0  0  0  0  0  0  0  0  0
    3.8975   18.1046   74.7146 N   0  0  0  0  0  0  0  0  0  0  0  0
    3.1591   20.4948   76.0532 O   0  0  0  0  0  0  0  0  0  0  0  0
    1.0403   18.9320   74.9762 N   0  0  0  0  0  0  0  0  0  0  0  0
    2.0362   17.5727   73.4834 H   0  0  0  0  0  0  0  0  0  0  0  0
    2.9673   17.7125   74.5684 H   0  0  0  0  0  0  0  0  0  0  0  0
    4.0658   18.2169   75.7143 H   0  0  0  0  0  0  0  0  0  0  0  0
    2.9465   19.6390   76.4574 H   0  0  0  0  0  0  0  0  0  0  0  0
    1.5858   18.1232   74.6785 H   0  0  0  0  0  0  0  0  0  0  0  0
    0.0595   18.7877   74.7359 H   0  0  0  0  0  0  0  0  0  0  0  0
    0.0469   19.7489   72.4220 O   0  0  0  0  0  0  0  0  0  0  0  0
   -1.8564   20.8736   69.3497 C   0  0  0  0  0  0  0  0  0  0  0  0
   -1.4929   19.9143   70.4882 C   0  0  0  0  0  0  0  0  0  0  0  0
   -0.2711   20.4703   71.2479 C   0  0  0  0  0  0  0  0  0  0  0  0
    0.8399   20.6598   70.3985 O   0  0  0  0  0  0  0  0  0  0  0  0
    0.5082   21.7234   69.5382 C   0  0  0  0  0  0  0  0  0  0  0  0
   -0.5964   21.3056   68.5587 C   0  0  0  0  0  0  0  0  0  0  0  0
   -0.8947   22.4648   67.6232 C   0  0  0  0  0  0  0  0  0  0  0  0
   -0.1443   20.2323   67.7885 O   0  0  0  0  0  0  0  0  0  0  0  0
   -1.2256   18.6482   69.9635 O   0  0  0  0  0  0  0  0  0  0  0  0
    0.6448   20.5003   67.2921 H   0  0  0  0  0  0  0  0  0  0  0  0
   -0.4861   18.7068   69.3385 H   0  0  0  0  0  0  0  0  0  0  0  0
   -4.6316   23.3834   70.3687 C   0  0  0  0  0  0  0  0  0  0  0  0
   -3.9783   22.1742   69.8045 C   0  0  0  0  0  0  0  0  0  0  0  0
   -4.6792   21.2907   69.2435 O   0  0  0  0  0  0  0  0  0  0  0  0
   -2.5622   22.0232   69.9084 N   0  0  0  0  0  0  0  0  0  0  0  0
   -2.0433   22.7190   70.3730 H   0  0  0  0  0  0  0  0  0  0  0  0
    4.2357   20.4086   71.8948 O   0  0  0  0  0  0  0  0  0  0  0  0
    4.4261   20.0314   70.5628 C   0  0  0  0  0  0  0  0  0  0  0  0
    5.0270   18.6247   70.4965 C   0  0  0  0  0  0  0  0  0  0  0  0
    6.5167   18.6447   70.8445 C   0  0  0  0  0  0  0  0  0  0  0  0
    7.2515   19.7289   70.1128 C   0  0  0  0  0  0  0  0  0  0  0  0
    6.6223   20.8220   69.6803 C   0  0  0  0  0  0  0  0  0  0  0  0
    5.2495   20.9992   69.9015 O   0  0  0  0  0  0  0  0  0  0  0  0
    4.8344   18.0689   69.1675 N   0  0  0  0  0  0  0  0  0  0  0  0
    5.3120   18.6538   68.4818 H   0  0  0  0  0  0  0  0  0  0  0  0
    3.8377   18.0384   68.9530 H   0  0  0  0  0  0  0  0  0  0  0  0
    7.3925   21.8775   68.9686 C   0  0  0  0  0  0  0  0  0  0  0  0
    8.4266   22.4051   69.8411 N   0  0  0  0  0  0  0  0  0  0  0  0
    7.9963   22.8082   70.6734 H   0  0  0  0  0  0  0  0  0  0  0  0
    8.9528   23.1261   69.3474 H   0  0  0  0  0  0  0  0  0  0  0  0
 29 30  1  0  0  0
 30 31  2  0  0  0
 30 32  1  0  0  0
 32 18  1  0  0  0
 18 19  1  0  0  0
 19 20  1  0  0  0
 20 21  1  0  0  0
 21 22  1  0  0  0
 22 23  1  0  0  0
 23 24  1  0  0  0
 23 25  1  0  0  0
 20 17  1  0  0  0
 17  1  1  0  0  0
  1  2  1  0  0  0
  2  3  1  0  0  0
  3  4  1  0  0  0
  4  5  1  0  0  0
  5  6  1  0  0  0
  6  7  1  0  0  0
  5 34  1  0  0  0
 34 35  1  0  0  0
 35 36  1  0  0  0
 36 37  1  0  0  0
 37 38  1  0  0  0
 38 39  2  0  0  0
 39 40  1  0  0  0
 39 44  1  0  0  0
 44 45  1  0  0  0
 36 41  1  0  0  0
  4  8  1  0  0  0
  3  9  1  0  0  0
  2 10  1  0  0  0
 19 26  1  0  0  0
 23 18  1  0  0  0
  6  1  1  0  0  0
 40 35  1  0  0  0
 32 33  1  0  0  0
 25 27  1  0  0  0
  7 11  1  0  0  0
 45 46  1  0  0  0
 45 47  1  0  0  0
 41 42  1  0  0  0
 41 43  1  0  0  0
  8 12  1  0  0  0
  8 13  1  0  0  0
  9 14  1  0  0  0
 10 15  1  0  0  0
 10 16  1  0  0  0
 26 28  1  0  0  0
M  END
>  <minimizedAffinity>
-7.07267

>  <minimizedRMSD>
3.73749

$$$$
MolPort-051-523-730 LN01114724 MCULE-4095097102 PubChem-12358713 PubChem-140294185


 38 40  0  0  0  0  0  0  0  0999 V2000
   -2.0256   22.2820   68.9896 C   0  0  0  0  0  0  0  0  0  0  0  0
   -2.9671   22.7049   68.0286 C   0  0  0  0  0  0  0  0  0  0  0  0
   -2.5685   23.5055   66.9569 C   0  0  0  0  0  0  0  0  0  0  0  0
   -1.2366   23.8929   66.8270 C   0  0  0  0  0  0  0  0  0  0  0  0
   -0.2893   23.4547   67.7494 C   0  0  0  0  0  0  0  0  0  0  0  0
   -0.6585   22.6321   68.8179 C   0  0  0  0  0  0  0  0  0  0  0  0
   -0.8496   24.7001   65.7662 O   0  0  0  0  0  0  0  0  0  0  0  0
   -4.3093   22.3599   68.1445 O   0  0  0  0  0  0  0  0  0  0  0  0
   -1.4865   24.9952   65.1454 H   0  0  0  0  0  0  0  0  0  0  0  0
   -4.5952   21.8232   68.8573 H   0  0  0  0  0  0  0  0  0  0  0  0
   -2.5036   21.5711   70.1934 C   0  0  0  0  0  0  0  0  0  0  0  0
   -3.3933   20.6849   70.0896 O   0  0  0  0  0  0  0  0  0  0  0  0
   -1.9678   21.9163   71.5478 C   0  0  0  0  0  0  0  0  0  0  0  0
   -2.4209   20.8994   72.5879 C   0  0  0  0  0  0  0  0  0  0  0  0
   -0.3192   20.1313   73.7079 C   0  0  0  0  0  0  0  0  0  0  0  0
    0.6722   19.1697   73.9257 C   0  0  0  0  0  0  0  0  0  0  0  0
    0.6166   17.9432   73.2556 C   0  0  0  0  0  0  0  0  0  0  0  0
   -0.4321   17.6766   72.3692 C   0  0  0  0  0  0  0  0  0  0  0  0
   -1.4246   18.6371   72.1524 C   0  0  0  0  0  0  0  0  0  0  0  0
   -1.3710   19.8657   72.8229 C   0  0  0  0  0  0  0  0  0  0  0  0
    1.6030   16.9907   73.4709 O   0  0  0  0  0  0  0  0  0  0  0  0
    2.3054   17.1696   74.0648 H   0  0  0  0  0  0  0  0  0  0  0  0
    0.3650   22.1885   69.6674 O   0  0  0  0  0  0  0  0  0  0  0  0
    0.8959   20.8683   69.6447 C   0  0  0  0  0  0  0  0  0  0  0  0
    1.1155   20.4007   68.1985 C   0  0  0  0  0  0  0  0  0  0  0  0
    2.3227   19.4579   68.0756 C   0  0  0  0  0  0  0  0  0  0  0  0
    2.5844   18.6468   69.3525 C   0  0  0  0  0  0  0  0  0  0  0  0
    2.3372   19.4692   70.6340 C   0  0  0  0  0  0  0  0  0  0  0  0
    2.1022   20.8294   70.3586 O   0  0  0  0  0  0  0  0  0  0  0  0
    1.7692   17.5154   69.3640 O   0  0  0  0  0  0  0  0  0  0  0  0
    3.4610   20.1972   67.7481 O   0  0  0  0  0  0  0  0  0  0  0  0
   -0.0323   19.7565   67.7375 O   0  0  0  0  0  0  0  0  0  0  0  0
    0.8382   17.7877   69.3712 H   0  0  0  0  0  0  0  0  0  0  0  0
    3.6527   20.8278   68.4598 H   0  0  0  0  0  0  0  0  0  0  0  0
   -0.2060   18.9745   68.2845 H   0  0  0  0  0  0  0  0  0  0  0  0
    3.5078   19.3291   71.5970 C   0  0  0  0  0  0  0  0  0  0  0  0
    4.6060   18.7548   70.9511 O   0  0  0  0  0  0  0  0  0  0  0  0
    4.3654   17.8730   70.6264 H   0  0  0  0  0  0  0  0  0  0  0  0
 15 16  2  0  0  0
 16 17  1  0  0  0
 17 18  2  0  0  0
 18 19  1  0  0  0
 19 20  2  0  0  0
 20 14  1  0  0  0
 14 13  1  0  0  0
 13 11  1  0  0  0
 11 12  2  0  0  0
 11  1  1  0  0  0
  1  2  2  0  0  0
  2  3  1  0  0  0
  3  4  2  0  0  0
  4  5  1  0  0  0
  5  6  2  0  0  0
  6 23  1  0  0  0
 23 24  1  0  0  0
 24 25  1  0  0  0
 25 26  1  0  0  0
 26 27  1  0  0  0
 27 28  1  0  0  0
 28 29  1  0  0  0
 28 36  1  0  0  0
 36 37  1  0  0  0
 27 30  1  0  0  0
 26 31  1  0  0  0
 25 32  1  0  0  0
  4  7  1  0  0  0
  2  8  1  0  0  0
 17 21  1  0  0  0
 20 15  1  0  0  0
  6  1  1  0  0  0
 29 24  1  0  0  0
 37 38  1  0  0  0
 30 33  1  0  0  0
 31 34  1  0  0  0
 32 35  1  0  0  0
  7  9  1  0  0  0
  8 10  1  0  0  0
 21 22  1  0  0  0
M  END
>  <minimizedAffinity>
-7.06990

>  <minimizedRMSD>
5.31937

$$$$
MolPort-007-823-775 ChemDiv-G070-0636 MCULE-4344304117 PubChem-20938401 ZINC000020582458 ZINC20582458


 34 35  0  0  0  0  0  0  0  0999 V2000
    2.7990   20.1328   68.8115 N   0  0  0  0  0  0  0  0  0  0  0  0
    2.1766   19.4451   69.2357 H   0  0  0  0  0  0  0  0  0  0  0  0
    4.4395   19.7944   69.2541 S   0  0  0  0  0  0  0  0  0  0  0  0
    5.3134   20.9168   68.7658 O   0  0  0  0  0  0  0  0  0  0  0  0
    4.8651   18.5118   68.5982 O   0  0  0  0  0  0  0  0  0  0  0  0
    5.7251   19.8969   71.7797 C   0  0  0  0  0  0  0  0  0  0  0  0
    5.3495   19.6370   73.0901 C   0  0  0  0  0  0  0  0  0  0  0  0
    6.2192   19.7570   74.2942 C   0  0  0  0  0  0  0  0  0  0  0  0
    4.0766   19.2032   73.1597 N   0  0  0  0  0  0  0  0  0  0  0  0
    3.6249   19.1954   71.8916 C   0  0  0  0  0  0  0  0  0  0  0  0
    2.2549   18.7338   71.5356 C   0  0  0  0  0  0  0  0  0  0  0  0
    4.6026   19.6249   71.0078 C   0  0  0  0  0  0  0  0  0  0  0  0
    3.5796   18.9454   73.9695 H   0  0  0  0  0  0  0  0  0  0  0  0
    7.0650   20.3230   71.3226 C   0  0  0  0  0  0  0  0  0  0  0  0
    7.8521   19.4909   70.7960 O   0  0  0  0  0  0  0  0  0  0  0  0
    7.4673   21.6489   71.4975 O   0  0  0  0  0  0  0  0  0  0  0  0
    7.8102   23.0696   73.3970 C   0  0  0  0  0  0  0  0  0  0  0  0
    8.4161   22.0233   72.4851 C   0  0  0  0  0  0  0  0  0  0  0  0
    2.4708   21.4635   69.2985 C   0  0  0  0  0  0  0  0  0  0  0  0
    1.0015   21.6796   69.2219 C   0  0  0  0  0  0  0  0  0  0  0  0
    0.2661   21.2363   70.1430 O   0  0  0  0  0  0  0  0  0  0  0  0
    0.4502   22.3954   68.1082 N   0  0  0  0  0  0  0  0  0  0  0  0
    1.0887   22.7239   67.4347 H   0  0  0  0  0  0  0  0  0  0  0  0
   -0.9353   22.6819   67.8743 C   0  0  0  0  0  0  0  0  0  0  0  0
   -1.2780   23.5268   66.8171 C   0  0  0  0  0  0  0  0  0  0  0  0
   -2.6164   23.8275   66.5593 C   0  0  0  0  0  0  0  0  0  0  0  0
   -3.6302   23.2869   67.3555 C   0  0  0  0  0  0  0  0  0  0  0  0
   -5.2930   23.7109   66.9719 Cl  0  0  0  0  0  0  0  0  0  0  0  0
   -3.3010   22.4302   68.4287 C   0  0  0  0  0  0  0  0  0  0  0  0
   -1.9503   22.1386   68.6735 C   0  0  0  0  0  0  0  0  0  0  0  0
   -4.3635   21.8258   69.3119 C   0  0  0  0  0  0  0  0  0  0  0  0
   -3.7991   21.0505   70.3116 F   0  0  0  0  0  0  0  0  0  0  0  0
   -5.1061   22.8317   69.9034 F   0  0  0  0  0  0  0  0  0  0  0  0
   -5.1994   21.0250   68.5549 F   0  0  0  0  0  0  0  0  0  0  0  0
 17 18  1  0  0  0
 18 16  1  0  0  0
 16 14  1  0  0  0
 14 15  2  0  0  0
 14  6  1  0  0  0
  6  7  2  0  0  0
  7  8  1  0  0  0
  7  9  1  0  0  0
  9 10  1  0  0  0
 10 11  1  0  0  0
 10 12  2  0  0  0
 12  3  1  0  0  0
 12  6  1  0  0  0
  3  4  2  0  0  0
  3  5  2  0  0  0
  3  1  1  0  0  0
  1 19  1  0  0  0
 19 20  1  0  0  0
 20 21  2  0  0  0
 20 22  1  0  0  0
 22 24  1  0  0  0
 24 25  2  0  0  0
 25 26  1  0  0  0
 26 27  2  0  0  0
 27 28  1  0  0  0
 27 29  1  0  0  0
 29 30  2  0  0  0
 29 31  1  0  0  0
 30 24  1  0  0  0
 31 32  1  0  0  0
 31 33  1  0  0  0
 31 34  1  0  0  0
  9 13  1  0  0  0
  1  2  1  0  0  0
 22 23  1  0  0  0
M  END
>  <minimizedAffinity>
-7.06710

>  <minimizedRMSD>
1.59979

$$$$
MolPort-003-927-839 MolPort-039-062-960


 37 36  0  0  0  0  0  0  0  0999 V2000
    0.1951   28.2677   71.5212 Ca  0  0  0  0  0  0  0  0  0  0  0  0
    0.7644   21.6795   68.0535 O   0  0  0  0  0  0  0  0  0  0  0  0
   -0.1598   22.5235   68.6557 C   0  0  0  0  0  0  0  0  0  0  0  0
   -0.2510   22.5546   69.9101 O   0  0  0  0  0  0  0  0  0  0  0  0
   -1.0630   23.3811   67.8259 C   0  0  0  0  0  0  0  0  0  0  0  0
   -1.3909   24.5512   68.5120 O   0  0  0  0  0  0  0  0  0  0  0  0
   -1.8888   24.3272   69.3137 H   0  0  0  0  0  0  0  0  0  0  0  0
   -2.3210   22.6519   67.3336 C   0  0  0  0  0  0  0  0  0  0  0  0
   -1.9945   21.3326   67.0102 O   0  0  0  0  0  0  0  0  0  0  0  0
   -1.6865   20.8713   67.8060 H   0  0  0  0  0  0  0  0  0  0  0  0
   -3.4906   22.6834   68.3286 C   0  0  0  0  0  0  0  0  0  0  0  0
   -3.8341   24.0018   68.6456 O   0  0  0  0  0  0  0  0  0  0  0  0
   -3.0856   24.4340   69.0858 H   0  0  0  0  0  0  0  0  0  0  0  0
   -3.2040   21.8866   69.6055 C   0  0  0  0  0  0  0  0  0  0  0  0
   -3.8341   20.6451   69.5281 O   0  0  0  0  0  0  0  0  0  0  0  0
   -4.7936   20.7729   69.4660 H   0  0  0  0  0  0  0  0  0  0  0  0
   -2.5891   22.8153   71.7272 O   0  0  0  0  0  0  0  0  0  0  0  0
   -3.6668   22.6072   70.8665 C   0  0  0  0  0  0  0  0  0  0  0  0
   -2.8963   23.2740   72.5248 H   0  0  0  0  0  0  0  0  0  0  0  0
    3.7531   20.6449   68.1222 O   0  0  0  0  0  0  0  0  0  0  0  0
    3.7354   20.5361   69.5070 C   0  0  0  0  0  0  0  0  0  0  0  0
    4.0564   21.5241   70.2167 O   0  0  0  0  0  0  0  0  0  0  0  0
    3.3405   19.2518   70.1585 C   0  0  0  0  0  0  0  0  0  0  0  0
    3.6733   18.1886   69.3170 O   0  0  0  0  0  0  0  0  0  0  0  0
    3.1916   18.2761   68.4796 H   0  0  0  0  0  0  0  0  0  0  0  0
    1.8442   19.2258   70.4724 C   0  0  0  0  0  0  0  0  0  0  0  0
    1.2265   18.1944   69.7588 O   0  0  0  0  0  0  0  0  0  0  0  0
    1.6065   17.3431   70.0268 H   0  0  0  0  0  0  0  0  0  0  0  0
    1.5947   19.0565   71.9783 C   0  0  0  0  0  0  0  0  0  0  0  0
    2.4814   18.1277   72.5290 O   0  0  0  0  0  0  0  0  0  0  0  0
    2.3241   17.2563   72.1331 H   0  0  0  0  0  0  0  0  0  0  0  0
    0.1505   18.6736   72.3158 C   0  0  0  0  0  0  0  0  0  0  0  0
   -0.1053   17.3407   71.9879 O   0  0  0  0  0  0  0  0  0  0  0  0
   -0.0017   17.2175   71.0314 H   0  0  0  0  0  0  0  0  0  0  0  0
   -0.8509   19.5783   71.6158 C   0  0  0  0  0  0  0  0  0  0  0  0
   -0.7151   20.8863   72.0801 O   0  0  0  0  0  0  0  0  0  0  0  0
   -0.8811   20.9091   73.0355 H   0  0  0  0  0  0  0  0  0  0  0  0
 17 18  1  0  0  0
 14 18  1  0  0  0
 14 15  1  0  0  0
 14 11  1  0  0  0
 11 12  1  0  0  0
 11  8  1  0  0  0
  8  9  1  0  0  0
  8  5  1  0  0  0
  5  6  1  0  0  0
  5  3  1  0  0  0
  3  4  2  0  0  0
  3  2  1  0  0  0
  2  1  1  0  0  0
  1 20  1  0  0  0
 20 21  1  0  0  0
 21 22  2  0  0  0
 23 21  1  0  0  0
 23 24  1  0  0  0
 23 26  1  0  0  0
 26 27  1  0  0  0
 26 29  1  0  0  0
 29 30  1  0  0  0
 29 32  1  0  0  0
 32 33  1  0  0  0
 32 35  1  0  0  0
 35 36  1  0  0  0
 17 19  1  0  0  0
 15 16  1  0  0  0
 12 13  1  0  0  0
  9 10  1  0  0  0
  6  7  1  0  0  0
 24 25  1  0  0  0
 27 28  1  0  0  0
 30 31  1  0  0  0
 33 34  1  0  0  0
 36 37  1  0  0  0
M  END
>  <minimizedAffinity>
-7.03818

>  <minimizedRMSD>
4.74961

$$$$
MolPort-006-123-388 MolPort-023-220-328 MolPort-028-959-496 CHEMBL3187473 CSSS00161190219 MCULE-7059383305 MCULE-8373143595 PubChem-11614543 PubChem-18454344 PubChem-73417105 PubChem-88735 PubChem-9874785 ZINC000031319586 ZINC31319586


 32 32  0  0  0  0  0  0  0  0999 V2000
    1.6579   20.9775   69.1361 C   0  0  0  0  0  0  0  0  0  0  0  0
    3.1069   20.5720   69.3778 C   0  0  0  0  0  0  0  0  0  0  0  0
    3.7045   21.4801   70.2546 O   0  0  0  0  0  0  0  0  0  0  0  0
    3.2359   21.4659   71.1038 H   0  0  0  0  0  0  0  0  0  0  0  0
    3.2064   19.1416   69.9270 C   0  0  0  0  0  0  0  0  0  0  0  0
    2.4408   18.2664   69.1528 O   0  0  0  0  0  0  0  0  0  0  0  0
    2.7966   18.2368   68.2509 H   0  0  0  0  0  0  0  0  0  0  0  0
    4.6474   18.6199   70.0278 C   0  0  0  0  0  0  0  0  0  0  0  0
    5.2199   19.0490   71.2279 O   0  0  0  0  0  0  0  0  0  0  0  0
    5.2651   20.0179   71.2364 H   0  0  0  0  0  0  0  0  0  0  0  0
    5.5298   19.0191   68.8391 C   0  0  0  0  0  0  0  0  0  0  0  0
    5.9559   17.8816   68.1501 O   0  0  0  0  0  0  0  0  0  0  0  0
    6.4812   17.3221   68.7434 H   0  0  0  0  0  0  0  0  0  0  0  0
    6.4483   21.1567   69.3731 O   0  0  0  0  0  0  0  0  0  0  0  0
    6.7459   19.7951   69.3184 C   0  0  0  0  0  0  0  0  0  0  0  0
    7.2279   21.6460   69.6795 H   0  0  0  0  0  0  0  0  0  0  0  0
    0.8386   20.5359   70.1900 O   0  0  0  0  0  0  0  0  0  0  0  0
   -0.3948   21.2227   70.1396 C   0  0  0  0  0  0  0  0  0  0  0  0
   -0.8037   21.5284   68.8235 O   0  0  0  0  0  0  0  0  0  0  0  0
   -1.7683   22.5499   68.9251 C   0  0  0  0  0  0  0  0  0  0  0  0
   -3.0496   22.0183   69.5941 C   0  0  0  0  0  0  0  0  0  0  0  0
   -4.0143   23.0253   69.6846 O   0  0  0  0  0  0  0  0  0  0  0  0
   -2.7307   21.4644   70.9917 C   0  0  0  0  0  0  0  0  0  0  0  0
   -2.4887   22.5082   71.8894 O   0  0  0  0  0  0  0  0  0  0  0  0
   -1.5148   20.5383   70.9472 C   0  0  0  0  0  0  0  0  0  0  0  0
   -1.8798   19.3228   70.3637 O   0  0  0  0  0  0  0  0  0  0  0  0
   -3.6740   23.7508   70.2310 H   0  0  0  0  0  0  0  0  0  0  0  0
   -1.7189   23.0181   71.5924 H   0  0  0  0  0  0  0  0  0  0  0  0
   -2.2069   19.4812   69.4644 H   0  0  0  0  0  0  0  0  0  0  0  0
   -2.0584   23.1178   67.5407 C   0  0  0  0  0  0  0  0  0  0  0  0
   -1.0927   22.6966   66.6239 O   0  0  0  0  0  0  0  0  0  0  0  0
   -0.2195   23.0097   66.9074 H   0  0  0  0  0  0  0  0  0  0  0  0
 14 15  1  0  0  0
 11 15  1  0  0  0
 11 12  1  0  0  0
 11  8  1  0  0  0
  8  9  1  0  0  0
  8  5  1  0  0  0
  5  6  1  0  0  0
  5  2  1  0  0  0
  2  3  1  0  0  0
  2  1  1  0  0  0
  1 17  1  0  0  0
 18 17  1  0  0  0
 18 19  1  0  0  0
 19 20  1  0  0  0
 20 30  1  0  0  0
 20 21  1  0  0  0
 30 31  1  0  0  0
 21 22  1  0  0  0
 21 23  1  0  0  0
 23 24  1  0  0  0
 23 25  1  0  0  0
 25 26  1  0  0  0
 25 18  1  0  0  0
 14 16  1  0  0  0
 12 13  1  0  0  0
  9 10  1  0  0  0
  6  7  1  0  0  0
  3  4  1  0  0  0
 31 32  1  0  0  0
 22 27  1  0  0  0
 24 28  1  0  0  0
 26 29  1  0  0  0
M  END
>  <minimizedAffinity>
-7.02988

>  <minimizedRMSD>
2.33771

$$$$
MolPort-047-085-431 MCULE-2541658250 PubChem-156000817


 34 36  0  0  0  0  0  0  0  0999 V2000
    1.2143   21.0106   69.0429 C   0  0  0  0  0  0  0  0  0  0  0  0
    2.5623   21.3341   69.2828 O   0  0  0  0  0  0  0  0  0  0  0  0
    3.3110   20.2086   68.8878 C   0  0  0  0  0  0  0  0  0  0  0  0
    3.0641   19.0131   69.8271 C   0  0  0  0  0  0  0  0  0  0  0  0
    1.8731   19.2586   70.7625 C   0  0  0  0  0  0  0  0  0  0  0  0
    1.4612   18.0643   71.3579 O   0  0  0  0  0  0  0  0  0  0  0  0
    0.7072   19.9437   70.0310 C   0  0  0  0  0  0  0  0  0  0  0  0
   -0.0577   19.0050   69.3350 O   0  0  0  0  0  0  0  0  0  0  0  0
    1.1632   17.4468   70.6717 H   0  0  0  0  0  0  0  0  0  0  0  0
    0.4923   18.5751   68.6615 H   0  0  0  0  0  0  0  0  0  0  0  0
    4.2689   18.6860   70.5840 N   0  0  0  0  0  0  0  0  0  0  0  0
    4.8764   19.5399   71.5624 C   0  0  0  0  0  0  0  0  0  0  0  0
    4.3678   20.6627   71.8276 O   0  0  0  0  0  0  0  0  0  0  0  0
    4.6953   17.8159   70.4098 H   0  0  0  0  0  0  0  0  0  0  0  0
    6.1005   19.1071   72.2559 C   0  0  0  0  0  0  0  0  0  0  0  0
    6.2620   19.3107   73.6295 C   0  0  0  0  0  0  0  0  0  0  0  0
    7.3997   18.9052   74.2508 N   0  0  0  0  0  0  0  0  0  0  0  0
    8.3959   18.2954   73.5560 C   0  0  0  0  0  0  0  0  0  0  0  0
    8.2602   18.0881   72.2168 N   0  0  0  0  0  0  0  0  0  0  0  0
    7.1374   18.4788   71.5604 C   0  0  0  0  0  0  0  0  0  0  0  0
    9.6381   17.8719   74.2700 C   0  0  0  0  0  0  0  0  0  0  0  0
   10.8652   18.1944   73.4394 C   0  0  0  0  0  0  0  0  0  0  0  0
    9.6004   16.3878   74.5817 C   0  0  0  0  0  0  0  0  0  0  0  0
    0.3598   22.2678   69.1299 C   0  0  0  0  0  0  0  0  0  0  0  0
   -2.5719   21.0408   71.0396 N   0  0  0  0  0  0  0  0  0  0  0  0
   -3.5940   21.2805   70.1780 C   0  0  0  0  0  0  0  0  0  0  0  0
   -4.7711   20.9708   70.5056 O   0  0  0  0  0  0  0  0  0  0  0  0
   -3.3291   21.8692   68.9370 C   0  0  0  0  0  0  0  0  0  0  0  0
   -4.4131   22.1563   67.9551 C   0  0  0  0  0  0  0  0  0  0  0  0
   -2.0097   22.1888   68.6239 C   0  0  0  0  0  0  0  0  0  0  0  0
   -1.0088   21.9321   69.5093 N   0  0  0  0  0  0  0  0  0  0  0  0
   -1.2894   21.3596   70.7197 C   0  0  0  0  0  0  0  0  0  0  0  0
   -0.3688   21.1232   71.5485 O   0  0  0  0  0  0  0  0  0  0  0  0
   -2.7634   20.6283   71.9128 H   0  0  0  0  0  0  0  0  0  0  0  0
 25 26  1  0  0  0
 26 27  2  0  0  0
 26 28  1  0  0  0
 28 29  1  0  0  0
 28 30  2  0  0  0
 30 31  1  0  0  0
 31 24  1  0  0  0
  1 24  1  0  0  0
  1  2  1  0  0  0
  2  3  1  0  0  0
  3  4  1  0  0  0
  4  5  1  0  0  0
  5  6  1  0  0  0
  5  7  1  0  0  0
  7  8  1  0  0  0
  4 11  1  0  0  0
 11 12  1  0  0  0
 12 13  2  0  0  0
 12 15  1  0  0  0
 15 16  2  0  0  0
 16 17  1  0  0  0
 17 18  2  0  0  0
 18 19  1  0  0  0
 19 20  2  0  0  0
 18 21  1  0  0  0
 21 22  1  0  0  0
 21 23  1  0  0  0
 31 32  1  0  0  0
 32 33  2  0  0  0
 32 25  1  0  0  0
  7  1  1  0  0  0
 20 15  1  0  0  0
 25 34  1  0  0  0
  6  9  1  0  0  0
  8 10  1  0  0  0
 11 14  1  0  0  0
M  END
>  <minimizedAffinity>
-7.01155

>  <minimizedRMSD>
3.63625

$$$$
MolPort-047-967-501 MCULE-1289228381 MCULE-4680810664


 36 38  0  0  0  0  0  0  0  0999 V2000
    0.6631   19.0816   70.9696 C   0  0  0  0  0  0  0  0  0  0  0  0
    0.2443   18.9393   69.6694 N   0  0  0  0  0  0  0  0  0  0  0  0
    1.0507   19.2765   68.6193 C   0  0  0  0  0  0  0  0  0  0  0  0
    0.6534   19.1381   67.4325 O   0  0  0  0  0  0  0  0  0  0  0  0
    2.3125   19.7746   68.9065 C   0  0  0  0  0  0  0  0  0  0  0  0
    2.7036   19.9099   70.1903 C   0  0  0  0  0  0  0  0  0  0  0  0
    1.9128   19.5754   71.2376 N   0  0  0  0  0  0  0  0  0  0  0  0
    3.9414   20.4091   70.2259 N   0  0  0  0  0  0  0  0  0  0  0  0
    4.2853   20.5613   68.9197 C   0  0  0  0  0  0  0  0  0  0  0  0
    3.2885   20.1782   68.0711 N   0  0  0  0  0  0  0  0  0  0  0  0
    2.2268   19.6837   72.1644 H   0  0  0  0  0  0  0  0  0  0  0  0
    4.7517   20.6819   71.4056 C   0  0  0  0  0  0  0  0  0  0  0  0
    5.7281   21.6459   71.1132 O   0  0  0  0  0  0  0  0  0  0  0  0
    6.7844   21.3999   72.0086 C   0  0  0  0  0  0  0  0  0  0  0  0
    6.7471   19.9474   72.4466 C   0  0  0  0  0  0  0  0  0  0  0  0
    5.4511   19.4289   71.8671 C   0  0  0  0  0  0  0  0  0  0  0  0
    4.6703   18.7639   72.8166 O   0  0  0  0  0  0  0  0  0  0  0  0
    4.4786   19.3634   73.5547 H   0  0  0  0  0  0  0  0  0  0  0  0
    8.1121   21.6998   71.3380 C   0  0  0  0  0  0  0  0  0  0  0  0
    8.4778   23.0232   71.5833 O   0  0  0  0  0  0  0  0  0  0  0  0
    7.7994   23.6176   71.2263 H   0  0  0  0  0  0  0  0  0  0  0  0
    6.7516   19.8909   73.8462 O   0  0  0  0  0  0  0  0  0  0  0  0
    8.2432   19.1472   74.2939 Si  0  0  0  0  0  0  0  0  0  0  0  0
    9.3399   18.9437   72.7901 C   0  0  0  0  0  0  0  0  0  0  0  0
    9.1330   20.1935   75.5667 C   0  0  0  0  0  0  0  0  0  0  0  0
    7.8774   17.4620   75.0267 C   0  0  0  0  0  0  0  0  0  0  0  0
    9.0361   17.0164   75.8953 C   0  0  0  0  0  0  0  0  0  0  0  0
    6.6207   17.5378   75.8688 C   0  0  0  0  0  0  0  0  0  0  0  0
    7.6711   16.4568   73.9124 C   0  0  0  0  0  0  0  0  0  0  0  0
    0.0823   17.8417   73.1211 C   0  0  0  0  0  0  0  0  0  0  0  0
    1.1885   17.2409   73.1741 O   0  0  0  0  0  0  0  0  0  0  0  0
   -0.2277   18.7222   72.0317 N   0  0  0  0  0  0  0  0  0  0  0  0
   -1.1310   19.1132   72.0126 H   0  0  0  0  0  0  0  0  0  0  0  0
   -0.2502   17.7423   75.5707 C   0  0  0  0  0  0  0  0  0  0  0  0
   -0.9137   17.6230   74.2119 C   0  0  0  0  0  0  0  0  0  0  0  0
   -1.5605   16.2584   74.0723 C   0  0  0  0  0  0  0  0  0  0  0  0
 34 35  1  0  0  0
 35 36  1  0  0  0
 35 30  1  0  0  0
 30 31  2  0  0  0
 30 32  1  0  0  0
 32  1  1  0  0  0
  1  2  2  0  0  0
  2  3  1  0  0  0
  3  4  2  0  0  0
  3  5  1  0  0  0
  5  6  2  0  0  0
  6  7  1  0  0  0
  6  8  1  0  0  0
  8  9  1  0  0  0
  9 10  2  0  0  0
 12  8  1  0  0  0
 12 13  1  0  0  0
 13 14  1  0  0  0
 14 19  1  0  0  0
 19 20  1  0  0  0
 14 15  1  0  0  0
 15 22  1  0  0  0
 22 23  1  0  0  0
 23 24  1  0  0  0
 23 25  1  0  0  0
 23 26  1  0  0  0
 26 27  1  0  0  0
 26 28  1  0  0  0
 26 29  1  0  0  0
 15 16  1  0  0  0
 16 17  1  0  0  0
  7  1  1  0  0  0
 16 12  1  0  0  0
 10  5  1  0  0  0
 32 33  1  0  0  0
  7 11  1  0  0  0
 20 21  1  0  0  0
 17 18  1  0  0  0
M  END
>  <minimizedAffinity>
-7.00502

>  <minimizedRMSD>
4.11265

$$$$
MolPort-009-764-519 101701056 CSSS00132596908 LN00437281 MCULE-9831069360 PubChem-53367671 ZINC000101701056


 33 36  0  0  0  0  0  0  0  0999 V2000
    4.0544   18.8788   70.1989 N   0  0  0  0  0  0  0  0  0  0  0  0
    4.3706   18.1562   70.7881 H   0  0  0  0  0  0  0  0  0  0  0  0
    6.1883   20.3428   70.1054 C   0  0  0  0  0  0  0  0  0  0  0  0
    6.3085   21.0525   68.9243 C   0  0  0  0  0  0  0  0  0  0  0  0
    7.1446   21.8680   68.4548 O   0  0  0  0  0  0  0  0  0  0  0  0
    5.1284   20.5001   68.4716 C   0  0  0  0  0  0  0  0  0  0  0  0
    5.0031   19.7961   69.6550 C   0  0  0  0  0  0  0  0  0  0  0  0
    4.4471   20.5996   67.4178 O   0  0  0  0  0  0  0  0  0  0  0  0
    6.9513   20.2198   71.3052 N   0  0  0  0  0  0  0  0  0  0  0  0
    6.6005   19.6644   72.0384 H   0  0  0  0  0  0  0  0  0  0  0  0
    8.2315   20.8895   71.4788 C   0  0  0  0  0  0  0  0  0  0  0  0
    9.2070   19.9795   72.1459 C   0  0  0  0  0  0  0  0  0  0  0  0
    8.7547   18.9596   72.9877 C   0  0  0  0  0  0  0  0  0  0  0  0
    9.6850   18.1130   73.5949 C   0  0  0  0  0  0  0  0  0  0  0  0
   11.0149   18.2840   73.3646 N   0  0  0  0  0  0  0  0  0  0  0  0
   11.4750   19.2701   72.5479 C   0  0  0  0  0  0  0  0  0  0  0  0
   10.5765   20.1373   71.9224 C   0  0  0  0  0  0  0  0  0  0  0  0
    2.6339   18.9821   69.9066 C   0  0  0  0  0  0  0  0  0  0  0  0
    2.2678   20.4232   69.6085 C   0  0  0  0  0  0  0  0  0  0  0  0
    0.8495   20.6220   69.8520 N   0  0  0  0  0  0  0  0  0  0  0  0
    0.0629   21.5118   69.0573 C   0  0  0  0  0  0  0  0  0  0  0  0
    0.5930   22.1554   68.1117 O   0  0  0  0  0  0  0  0  0  0  0  0
    0.4173   20.1290   70.5864 H   0  0  0  0  0  0  0  0  0  0  0  0
   -1.3677   21.6784   69.3405 C   0  0  0  0  0  0  0  0  0  0  0  0
   -1.9641   21.3876   70.5697 C   0  0  0  0  0  0  0  0  0  0  0  0
   -3.2870   21.6958   70.3553 C   0  0  0  0  0  0  0  0  0  0  0  0
   -3.4247   22.1380   69.0677 C   0  0  0  0  0  0  0  0  0  0  0  0
   -4.6597   22.5275   68.5533 C   0  0  0  0  0  0  0  0  0  0  0  0
   -5.7753   22.4522   69.4065 C   0  0  0  0  0  0  0  0  0  0  0  0
   -5.6322   21.9959   70.7346 C   0  0  0  0  0  0  0  0  0  0  0  0
   -4.3718   21.6096   71.2248 C   0  0  0  0  0  0  0  0  0  0  0  0
   -2.2512   22.1365   68.4191 N   0  0  0  0  0  0  0  0  0  0  0  0
   -2.0723   22.4057   67.4892 H   0  0  0  0  0  0  0  0  0  0  0  0
  3  9  1  0  0  0
  9 11  1  0  0  0
 11 12  1  0  0  0
 12 13  2  0  0  0
 13 14  1  0  0  0
 14 15  2  0  0  0
 15 16  1  0  0  0
 16 17  2  0  0  0
  3  4  1  0  0  0
  4  5  2  0  0  0
  4  6  1  0  0  0
  6  7  1  0  0  0
  7  1  1  0  0  0
  1 18  1  0  0  0
 18 19  1  0  0  0
 19 20  1  0  0  0
 20 21  1  0  0  0
 21 22  2  0  0  0
 21 24  1  0  0  0
 24 25  2  0  0  0
 25 26  1  0  0  0
 26 27  2  0  0  0
 27 28  1  0  0  0
 28 29  2  0  0  0
 29 30  1  0  0  0
 30 31  2  0  0  0
 27 32  1  0  0  0
  6  8  2  0  0  0
  7  3  2  0  0  0
 32 24  1  0  0  0
 17 12  1  0  0  0
 31 26  1  0  0  0
  9 10  1  0  0  0
  1  2  1  0  0  0
 20 23  1  0  0  0
 32 33  1  0  0  0
M  END
>  <minimizedAffinity>
-6.97506

>  <minimizedRMSD>
2.50821

$$$$
MolPort-001-747-856 8643404 CSSS00159282065 MCULE-9576930162 PubChem-40781523 ZINC000008643404 ZINC08643404


 27 28  0  0  0  0  0  0  0  0999 V2000
    3.0936   19.8134   69.7259 C   0  0  0  0  0  0  0  0  0  0  0  0
    4.3313   20.4022   69.4175 O   0  0  0  0  0  0  0  0  0  0  0  0
    5.1930   20.0414   70.4650 C   0  0  0  0  0  0  0  0  0  0  0  0
    4.3766   19.9557   71.7291 C   0  0  0  0  0  0  0  0  0  0  0  0
    4.8718   18.9404   72.5525 O   0  0  0  0  0  0  0  0  0  0  0  0
    2.9817   19.6629   71.2308 C   0  0  0  0  0  0  0  0  0  0  0  0
    2.5805   18.3589   71.5351 O   0  0  0  0  0  0  0  0  0  0  0  0
    4.8718   18.1010   72.0664 H   0  0  0  0  0  0  0  0  0  0  0  0
    3.2066   17.7287   71.1455 H   0  0  0  0  0  0  0  0  0  0  0  0
    1.9686   20.6805   69.1804 C   0  0  0  0  0  0  0  0  0  0  0  0
   -1.6273   20.6194   70.4688 N   0  0  0  0  0  0  0  0  0  0  0  0
   -0.4234   21.1185   69.8828 C   0  0  0  0  0  0  0  0  0  0  0  0
   -0.3427   22.3243   69.5212 O   0  0  0  0  0  0  0  0  0  0  0  0
    0.6829   20.2342   69.6983 N   0  0  0  0  0  0  0  0  0  0  0  0
   -1.6750   19.6648   70.7047 H   0  0  0  0  0  0  0  0  0  0  0  0
    0.5717   19.2840   69.9309 H   0  0  0  0  0  0  0  0  0  0  0  0
   -2.8494   21.8140   72.2067 C   0  0  0  0  0  0  0  0  0  0  0  0
   -2.7865   21.4598   70.7325 C   0  0  0  0  0  0  0  0  0  0  0  0
   -4.0454   20.7108   70.3501 C   0  0  0  0  0  0  0  0  0  0  0  0
    6.2879   21.0834   70.6302 C   0  0  0  0  0  0  0  0  0  0  0  0
    7.1446   21.1593   69.4063 C   0  0  0  0  0  0  0  0  0  0  0  0
    6.6524   21.5970   68.3314 O   0  0  0  0  0  0  0  0  0  0  0  0
    8.5183   20.7560   69.4537 N   0  0  0  0  0  0  0  0  0  0  0  0
    9.3988   20.8127   68.3058 C   0  0  0  0  0  0  0  0  0  0  0  0
   10.7672   20.4098   68.8211 C   0  0  0  0  0  0  0  0  0  0  0  0
   10.5501   19.8155   70.2064 C   0  0  0  0  0  0  0  0  0  0  0  0
    9.1614   20.2401   70.6443 C   0  0  0  0  0  0  0  0  0  0  0  0
 17 18  1  0  0  0
 18 19  1  0  0  0
 18 11  1  0  0  0
 11 12  1  0  0  0
 12 13  2  0  0  0
 12 14  1  0  0  0
 14 10  1  0  0  0
  1 10  1  0  0  0
  1  2  1  0  0  0
  2  3  1  0  0  0
  3 20  1  0  0  0
  3  4  1  0  0  0
 20 21  1  0  0  0
 21 22  2  0  0  0
 21 23  1  0  0  0
 23 24  1  0  0  0
 24 25  1  0  0  0
 25 26  1  0  0  0
 26 27  1  0  0  0
 27 23  1  0  0  0
  4  5  1  0  0  0
  4  6  1  0  0  0
  6  7  1  0  0  0
  6  1  1  0  0  0
 11 15  1  0  0  0
 14 16  1  0  0  0
  5  8  1  0  0  0
  7  9  1  0  0  0
M  END
>  <minimizedAffinity>
-6.96181

>  <minimizedRMSD>
2.00518

$$$$
Molport-035-896-029 MCULE-7898173550 PubChem-136199783


 34 33  0  0  0  0  0  0  0  0999 V2000
    6.2835   20.1288   68.7902 C   0  0  0  0  0  0  0  0  0  0  0  0
    6.0615   21.5447   68.5364 N   0  0  0  0  0  0  0  0  0  0  0  0
    7.3157   22.1205   68.2951 N   0  0  0  0  0  0  0  0  0  0  0  0
    5.6259   21.9818   69.3485 H   0  0  0  0  0  0  0  0  0  0  0  0
    7.7427   21.6771   67.4818 H   0  0  0  0  0  0  0  0  0  0  0  0
    7.9144   21.9851   69.1097 H   0  0  0  0  0  0  0  0  0  0  0  0
    3.7583   20.0614   68.5764 N   0  0  0  0  0  0  0  0  0  0  0  0
    5.0043   19.3684   68.6572 C   0  0  0  0  0  0  0  0  0  0  0  0
    5.0326   18.1094   68.6355 O   0  0  0  0  0  0  0  0  0  0  0  0
    3.7494   21.0456   68.5986 H   0  0  0  0  0  0  0  0  0  0  0  0
    2.5483   19.3638   68.4660 N   0  0  0  0  0  0  0  0  0  0  0  0
    2.5430   18.3857   68.5786 H   0  0  0  0  0  0  0  0  0  0  0  0
    1.1474   21.2584   68.6308 N   0  0  0  0  0  0  0  0  0  0  0  0
    1.3236   20.0434   68.1936 C   0  0  0  0  0  0  0  0  0  0  0  0
    0.3173   19.3671   67.4445 N   0  0  0  0  0  0  0  0  0  0  0  0
   -0.5349   19.8181   67.2456 H   0  0  0  0  0  0  0  0  0  0  0  0
    0.4744   18.4489   67.1260 H   0  0  0  0  0  0  0  0  0  0  0  0
   -0.0072   22.0418   68.4360 N   0  0  0  0  0  0  0  0  0  0  0  0
   -0.6294   22.5955   69.5289 O   0  0  0  0  0  0  0  0  0  0  0  0
   -0.4809   22.2465   67.2990 O   0  0  0  0  0  0  0  0  0  0  0  0
    6.8912   19.9257   70.1416 C   0  0  0  0  0  0  0  0  0  0  0  0
    7.2890   18.7764   70.4682 O   0  0  0  0  0  0  0  0  0  0  0  0
    6.9879   21.0242   71.0587 N   0  0  0  0  0  0  0  0  0  0  0  0
    6.5127   21.8558   70.8309 H   0  0  0  0  0  0  0  0  0  0  0  0
    7.7165   20.9930   72.2625 N   0  0  0  0  0  0  0  0  0  0  0  0
    7.2106   21.0267   73.1064 H   0  0  0  0  0  0  0  0  0  0  0  0
    9.1460   20.9155   72.3424 C   0  0  0  0  0  0  0  0  0  0  0  0
    9.7919   19.7259   71.9067 N   0  0  0  0  0  0  0  0  0  0  0  0
    9.8710   21.8890   72.8143 N   0  0  0  0  0  0  0  0  0  0  0  0
    9.2594   18.9800   71.5473 H   0  0  0  0  0  0  0  0  0  0  0  0
   10.7717   19.6483   71.9646 H   0  0  0  0  0  0  0  0  0  0  0  0
    9.3651   23.0594   73.4083 N   0  0  0  0  0  0  0  0  0  0  0  0
   10.1236   24.2044   73.3676 O   0  0  0  0  0  0  0  0  0  0  0  0
    8.3863   23.0122   74.1823 O   0  0  0  0  0  0  0  0  0  0  0  0
 18 19  1  0  0  0
 18 20  2  0  0  0
 18 13  1  0  0  0
 13 14  2  0  0  0
 14 15  1  0  0  0
 14 11  1  0  0  0
 11  7  1  0  0  0
  7  8  1  0  0  0
  8  9  2  0  0  0
  8  1  1  0  0  0
  1  2  1  0  0  0
  2  3  1  0  0  0
  1 21  1  0  0  0
 21 22  2  0  0  0
 21 23  1  0  0  0
 23 25  1  0  0  0
 25 27  1  0  0  0
 27 28  1  0  0  0
 27 29  2  0  0  0
 29 32  1  0  0  0
 32 33  1  0  0  0
 32 34  2  0  0  0
 15 16  1  0  0  0
 15 17  1  0  0  0
 11 12  1  0  0  0
  7 10  1  0  0  0
  2  4  1  0  0  0
  3  5  1  0  0  0
  3  6  1  0  0  0
 23 24  1  0  0  0
 25 26  1  0  0  0
 28 30  1  0  0  0
 28 31  1  0  0  0
M  CHG 1  18   1
M  CHG 1  19  -1
M  CHG 1  32   1
M  CHG 1  33  -1
M  END
>  <minimizedAffinity>
-6.95784

>  <minimizedRMSD>
2.65334

$$$$
MolPort-005-970-733 CHEMBL3193764 LN00501813


 30 31  0  0  0  0  0  0  0  0999 V2000
   -1.7759   21.5857   68.7522 N   0  0  0  0  0  0  0  0  0  0  0  0
   -0.4286   21.2240   69.0905 C   0  0  0  0  0  0  0  0  0  0  0  0
    0.0354   21.4293   70.2433 O   0  0  0  0  0  0  0  0  0  0  0  0
   -2.0746   21.3976   67.8332 H   0  0  0  0  0  0  0  0  0  0  0  0
   -3.4419   21.5164   70.4523 C   0  0  0  0  0  0  0  0  0  0  0  0
   -2.7076   22.1863   69.6209 N   0  0  0  0  0  0  0  0  0  0  0  0
   -6.2433   23.4588   73.0458 C   0  0  0  0  0  0  0  0  0  0  0  0
   -4.9078   23.3143   73.4304 C   0  0  0  0  0  0  0  0  0  0  0  0
   -3.9796   22.6790   72.5883 C   0  0  0  0  0  0  0  0  0  0  0  0
   -4.4037   22.1834   71.3426 C   0  0  0  0  0  0  0  0  0  0  0  0
   -5.7442   22.3289   70.9576 C   0  0  0  0  0  0  0  0  0  0  0  0
   -6.6582   22.9617   71.8020 C   0  0  0  0  0  0  0  0  0  0  0  0
   -8.3103   24.7517   73.4631 C   0  0  0  0  0  0  0  0  0  0  0  0
   -7.1326   24.0973   73.9145 O   0  0  0  0  0  0  0  0  0  0  0  0
   -2.6406   22.5331   72.9723 O   0  0  0  0  0  0  0  0  0  0  0  0
   -2.2515   21.9084   74.1880 C   0  0  0  0  0  0  0  0  0  0  0  0
    0.4298   20.5664   68.0654 C   0  0  0  0  0  0  0  0  0  0  0  0
    0.7998   19.1531   68.4962 C   0  0  0  0  0  0  0  0  0  0  0  0
    1.8239   19.1770   69.5334 N   0  0  0  0  0  0  0  0  0  0  0  0
    1.5915   18.8410   70.4291 H   0  0  0  0  0  0  0  0  0  0  0  0
    3.1504   19.6652   69.3120 C   0  0  0  0  0  0  0  0  0  0  0  0
    3.4709   20.3199   68.1641 N   0  0  0  0  0  0  0  0  0  0  0  0
    4.7066   20.7752   67.9527 N   0  0  0  0  0  0  0  0  0  0  0  0
    5.6811   20.5955   68.8811 C   0  0  0  0  0  0  0  0  0  0  0  0
    6.9628   21.0746   68.6483 O   0  0  0  0  0  0  0  0  0  0  0  0
    5.3962   19.9447   70.0374 N   0  0  0  0  0  0  0  0  0  0  0  0
    4.1455   19.4736   70.2722 C   0  0  0  0  0  0  0  0  0  0  0  0
    3.8671   18.8093   71.4605 O   0  0  0  0  0  0  0  0  0  0  0  0
    7.1572   21.5236   67.8492 H   0  0  0  0  0  0  0  0  0  0  0  0
    4.5427   18.6864   72.0980 H   0  0  0  0  0  0  0  0  0  0  0  0
 13 14  1  0  0  0
 14  7  1  0  0  0
  7  8  2  0  0  0
  8  9  1  0  0  0
  9 15  1  0  0  0
  9 10  2  0  0  0
 15 16  1  0  0  0
 10  5  1  0  0  0
 10 11  1  0  0  0
  5  6  2  0  0  0
  6  1  1  0  0  0
  1  2  1  0  0  0
  2  3  2  0  0  0
  2 17  1  0  0  0
 17 18  1  0  0  0
 18 19  1  0  0  0
 19 21  1  0  0  0
 21 22  2  0  0  0
 22 23  1  0  0  0
 23 24  2  0  0  0
 24 25  1  0  0  0
 24 26  1  0  0  0
 26 27  2  0  0  0
 27 28  1  0  0  0
 27 21  1  0  0  0
 11 12  2  0  0  0
 12  7  1  0  0  0
  1  4  1  0  0  0
 19 20  1  0  0  0
 25 29  1  0  0  0
 28 30  1  0  0  0
M  END
>  <minimizedAffinity>
-6.93575

>  <minimizedRMSD>
1.22932

$$$$
MolPort-019-994-759 MCULE-1235901527 MCULE-5661173936 PubChem-53384892 PubChem-53384893


 48 50  0  0  0  0  0  0  0  0999 V2000
   -0.1310   20.5316   69.1833 C   0  0  0  0  0  0  0  0  0  0  0  0
   -0.5070   19.9953   70.5721 C   0  0  0  0  0  0  0  0  0  0  0  0
    0.7104   19.8475   71.5080 C   0  0  0  0  0  0  0  0  0  0  0  0
    1.9811   19.4262   70.7623 C   0  0  0  0  0  0  0  0  0  0  0  0
    2.3520   20.4243   69.6528 C   0  0  0  0  0  0  0  0  0  0  0  0
    1.1809   21.3129   69.2033 C   0  0  0  0  0  0  0  0  0  0  0  0
    1.4487   21.8452   67.8793 N   0  0  0  0  0  0  0  0  0  0  0  0
    1.8311   18.1506   70.2166 O   0  0  0  0  0  0  0  0  0  0  0  0
   -1.2047   18.7294   70.4177 N   0  0  0  0  0  0  0  0  0  0  0  0
    1.5396   21.0760   67.2156 H   0  0  0  0  0  0  0  0  0  0  0  0
    2.3154   22.3826   67.8978 H   0  0  0  0  0  0  0  0  0  0  0  0
    1.1103   18.1594   69.5675 H   0  0  0  0  0  0  0  0  0  0  0  0
   -0.5862   18.0526   69.9708 H   0  0  0  0  0  0  0  0  0  0  0  0
   -2.0336   18.8664   69.8393 H   0  0  0  0  0  0  0  0  0  0  0  0
    3.4139   21.2278   70.0807 O   0  0  0  0  0  0  0  0  0  0  0  0
    4.5689   20.5318   69.7108 C   0  0  0  0  0  0  0  0  0  0  0  0
    5.4753   21.4294   68.8563 C   0  0  0  0  0  0  0  0  0  0  0  0
    6.7341   20.6457   68.4725 C   0  0  0  0  0  0  0  0  0  0  0  0
    7.3632   19.9686   69.6948 C   0  0  0  0  0  0  0  0  0  0  0  0
    6.2533   19.2170   70.4438 C   0  0  0  0  0  0  0  0  0  0  0  0
    5.2513   20.1104   70.8688 O   0  0  0  0  0  0  0  0  0  0  0  0
    7.9551   20.9244   70.5272 O   0  0  0  0  0  0  0  0  0  0  0  0
    7.6965   21.5147   67.8137 N   0  0  0  0  0  0  0  0  0  0  0  0
    4.7987   21.8198   67.6995 O   0  0  0  0  0  0  0  0  0  0  0  0
    7.2824   21.5586   70.8206 H   0  0  0  0  0  0  0  0  0  0  0  0
    7.9819   22.2542   68.4556 H   0  0  0  0  0  0  0  0  0  0  0  0
    7.2690   21.9294   66.9857 H   0  0  0  0  0  0  0  0  0  0  0  0
    4.5509   21.0333   67.1889 H   0  0  0  0  0  0  0  0  0  0  0  0
    6.7871   18.3962   71.6126 C   0  0  0  0  0  0  0  0  0  0  0  0
    6.8402   19.1634   72.7777 O   0  0  0  0  0  0  0  0  0  0  0  0
    7.4344   19.9178   72.6412 H   0  0  0  0  0  0  0  0  0  0  0  0
    0.4498   18.9854   72.5808 O   0  0  0  0  0  0  0  0  0  0  0  0
    0.2521   19.8220   73.6880 C   0  0  0  0  0  0  0  0  0  0  0  0
   -1.1850   19.6748   74.2207 C   0  0  0  0  0  0  0  0  0  0  0  0
   -1.1854   19.5275   75.7420 C   0  0  0  0  0  0  0  0  0  0  0  0
   -0.2259   18.4131   76.1912 C   0  0  0  0  0  0  0  0  0  0  0  0
    1.0091   18.3552   75.2848 C   0  0  0  0  0  0  0  0  0  0  0  0
    1.2459   19.6052   74.6773 O   0  0  0  0  0  0  0  0  0  0  0  0
   -0.8642   17.1708   76.1675 O   0  0  0  0  0  0  0  0  0  0  0  0
   -2.4790   19.3009   76.2186 O   0  0  0  0  0  0  0  0  0  0  0  0
   -1.9358   20.7879   73.8444 O   0  0  0  0  0  0  0  0  0  0  0  0
   -1.1415   16.9670   75.2606 H   0  0  0  0  0  0  0  0  0  0  0  0
   -2.8188   18.4707   75.8494 H   0  0  0  0  0  0  0  0  0  0  0  0
   -1.5406   21.5880   74.2246 H   0  0  0  0  0  0  0  0  0  0  0  0
    2.2226   17.9275   76.0874 C   0  0  0  0  0  0  0  0  0  0  0  0
    3.2802   17.4955   75.1909 N   0  0  0  0  0  0  0  0  0  0  0  0
    2.9527   16.7060   74.6342 H   0  0  0  0  0  0  0  0  0  0  0  0
    4.0941   17.2123   75.7366 H   0  0  0  0  0  0  0  0  0  0  0  0
  1  2  1  0  0  0
  2  3  1  0  0  0
  2  9  1  0  0  0
  3  4  1  0  0  0
  3 32  1  0  0  0
  4  5  1  0  0  0
  4  8  1  0  0  0
  5  6  1  0  0  0
  5 15  1  0  0  0
  6  7  1  0  0  0
  6  1  1  0  0  0
 16 15  1  0  0  0
 16 17  1  0  0  0
 17 18  1  0  0  0
 17 24  1  0  0  0
 18 19  1  0  0  0
 18 23  1  0  0  0
 19 20  1  0  0  0
 19 22  1  0  0  0
 20 21  1  0  0  0
 20 29  1  0  0  0
 21 16  1  0  0  0
 29 30  1  0  0  0
 33 32  1  0  0  0
 33 34  1  0  0  0
 34 35  1  0  0  0
 34 41  1  0  0  0
 35 36  1  0  0  0
 35 40  1  0  0  0
 36 37  1  0  0  0
 36 39  1  0  0  0
 37 38  1  0  0  0
 37 45  1  0  0  0
 38 33  1  0  0  0
 45 46  1  0  0  0
  7 10  1  0  0  0
  7 11  1  0  0  0
 30 31  1  0  0  0
 22 25  1  0  0  0
 23 26  1  0  0  0
 23 27  1  0  0  0
 24 28  1  0  0  0
  8 12  1  0  0  0
 46 47  1  0  0  0
 46 48  1  0  0  0
 39 42  1  0  0  0
 40 43  1  0  0  0
 41 44  1  0  0  0
  9 13  1  0  0  0
  9 14  1  0  0  0
M  END
>  <minimizedAffinity>
-6.93232

>  <minimizedRMSD>
3.20723

$$$$
MolPort-051-718-175 4217552 CHEMBL2105488 CSSS14855339649 MCULE-3423790598 MCULE-7991380087 MCULE-9554616862 ZINC000004217552


 41 40  0  0  0  0  0  0  0  0999 V2000
    1.6481   19.4273   70.7147 C   0  0  0  0  0  0  0  0  0  0  0  0
    2.8468   18.8463   70.0442 C   0  0  0  0  0  0  0  0  0  0  0  0
    2.7139   18.1020   69.0342 O   0  0  0  0  0  0  0  0  0  0  0  0
    4.1459   19.1539   70.5520 N   0  0  0  0  0  0  0  0  0  0  0  0
    4.2162   19.7026   71.3664 H   0  0  0  0  0  0  0  0  0  0  0  0
    5.3724   18.6892   69.9146 C   0  0  0  0  0  0  0  0  0  0  0  0
    6.5434   18.8789   70.8256 C   0  0  0  0  0  0  0  0  0  0  0  0
    6.7293   19.9760   71.4162 O   0  0  0  0  0  0  0  0  0  0  0  0
    7.4260   17.8279   71.0337 O   0  0  0  0  0  0  0  0  0  0  0  0
    7.2918   17.0100   70.5967 H   0  0  0  0  0  0  0  0  0  0  0  0
    5.5869   19.3427   68.5425 C   0  0  0  0  0  0  0  0  0  0  0  0
    5.4452   20.8328   68.5550 C   0  0  0  0  0  0  0  0  0  0  0  0
    4.3069   21.3666   68.4897 O   0  0  0  0  0  0  0  0  0  0  0  0
    6.5792   21.6312   68.6101 O   0  0  0  0  0  0  0  0  0  0  0  0
    7.4279   21.2370   68.6587 H   0  0  0  0  0  0  0  0  0  0  0  0
   -0.2348   21.0175   70.1423 C   0  0  0  0  0  0  0  0  0  0  0  0
   -0.6204   21.0454   71.3432 O   0  0  0  0  0  0  0  0  0  0  0  0
    0.9097   20.2507   69.7663 N   0  0  0  0  0  0  0  0  0  0  0  0
    1.2116   20.2797   68.8297 H   0  0  0  0  0  0  0  0  0  0  0  0
   -0.9669   21.7921   69.0988 C   0  0  0  0  0  0  0  0  0  0  0  0
   -0.8051   21.1486   67.8051 N   0  0  0  0  0  0  0  0  0  0  0  0
   -1.1900   20.2048   67.8444 H   0  0  0  0  0  0  0  0  0  0  0  0
    0.1864   21.1019   67.5703 H   0  0  0  0  0  0  0  0  0  0  0  0
   -2.4433   21.8972   69.4588 C   0  0  0  0  0  0  0  0  0  0  0  0
   -2.9462   23.3227   69.3003 C   0  0  0  0  0  0  0  0  0  0  0  0
   -3.5015   23.5401   67.9030 C   0  0  0  0  0  0  0  0  0  0  0  0
   -2.6883   24.5133   67.1882 N   0  0  0  0  0  0  0  0  0  0  0  0
   -2.9198   25.4669   67.2676 H   0  0  0  0  0  0  0  0  0  0  0  0
   -0.5147   24.8954   66.3300 N   0  0  0  0  0  0  0  0  0  0  0  0
   -1.5689   24.1490   66.3762 C   0  0  0  0  0  0  0  0  0  0  0  0
   -1.6067   22.9384   65.6308 N   0  0  0  0  0  0  0  0  0  0  0  0
    0.2495   24.6337   65.7671 H   0  0  0  0  0  0  0  0  0  0  0  0
   -0.8395   22.6817   65.0698 H   0  0  0  0  0  0  0  0  0  0  0  0
   -2.4000   22.3572   65.6758 H   0  0  0  0  0  0  0  0  0  0  0  0
    0.7622   18.3138   71.2558 C   0  0  0  0  0  0  0  0  0  0  0  0
    1.1769   17.9359   72.6675 C   0  0  0  0  0  0  0  0  0  0  0  0
   -0.0360   17.5141   73.4815 C   0  0  0  0  0  0  0  0  0  0  0  0
   -0.5534   16.1554   73.0353 C   0  0  0  0  0  0  0  0  0  0  0  0
   -1.6467   15.7327   73.8933 N   0  0  0  0  0  0  0  0  0  0  0  0
   -1.3158   15.6617   74.8555 H   0  0  0  0  0  0  0  0  0  0  0  0
   -1.9897   14.8233   73.5838 H   0  0  0  0  0  0  0  0  0  0  0  0
 29 30  2  0  0  0
 30 31  1  0  0  0
 30 27  1  0  0  0
 27 26  1  0  0  0
 26 25  1  0  0  0
 25 24  1  0  0  0
 20 24  1  0  0  0
 20 21  1  0  0  0
 20 16  1  0  0  0
 16 17  2  0  0  0
 16 18  1  0  0  0
  1 18  1  0  0  0
  1 35  1  0  0  0
  1  2  1  0  0  0
 35 36  1  0  0  0
 36 37  1  0  0  0
 37 38  1  0  0  0
 38 39  1  0  0  0
  2  3  2  0  0  0
  2  4  1  0  0  0
  6  4  1  0  0  0
  6 11  1  0  0  0
  6  7  1  0  0  0
 11 12  1  0  0  0
 12 13  2  0  0  0
 12 14  1  0  0  0
  7  8  2  0  0  0
  7  9  1  0  0  0
 29 32  1  0  0  0
 31 33  1  0  0  0
 31 34  1  0  0  0
 27 28  1  0  0  0
 21 22  1  0  0  0
 21 23  1  0  0  0
 18 19  1  0  0  0
 39 40  1  0  0  0
 39 41  1  0  0  0
  4  5  1  0  0  0
 14 15  1  0  0  0
  9 10  1  0  0  0
M  END
>  <minimizedAffinity>
-6.92605

>  <minimizedRMSD>
2.60400

$$$$
MolPort-046-519-690 CSSS00159692502 MCULE-7792084989 PubChem-134703925


 29 32  0  0  0  0  0  0  0  0999 V2000
    0.4686   20.2737   68.1935 C   0  0  0  0  0  0  0  0  0  0  0  0
    1.3656   19.4193   68.9649 N   0  0  0  0  0  0  0  0  0  0  0  0
    1.0507   18.5181   69.2059 H   0  0  0  0  0  0  0  0  0  0  0  0
    2.6743   19.8094   69.3930 C   0  0  0  0  0  0  0  0  0  0  0  0
    3.6146   20.3210   68.4735 C   0  0  0  0  0  0  0  0  0  0  0  0
    4.8573   20.6720   68.9858 C   0  0  0  0  0  0  0  0  0  0  0  0
    5.8998   21.1765   68.3085 N   0  0  0  0  0  0  0  0  0  0  0  0
    6.8640   21.3535   69.2086 N   0  0  0  0  0  0  0  0  0  0  0  0
    6.4004   20.9566   70.4189 C   0  0  0  0  0  0  0  0  0  0  0  0
    5.1362   20.5268   70.2813 N   0  0  0  0  0  0  0  0  0  0  0  0
    4.2418   20.0346   71.1703 C   0  0  0  0  0  0  0  0  0  0  0  0
    4.5740   19.8917   72.5477 N   0  0  0  0  0  0  0  0  0  0  0  0
    3.0085   19.6764   70.7146 N   0  0  0  0  0  0  0  0  0  0  0  0
    5.4674   20.1529   72.8683 H   0  0  0  0  0  0  0  0  0  0  0  0
    3.9102   19.5316   73.1793 H   0  0  0  0  0  0  0  0  0  0  0  0
    0.3012   21.6336   68.8604 C   0  0  0  0  0  0  0  0  0  0  0  0
   -6.2134   22.7798   72.6747 C   0  0  0  0  0  0  0  0  0  0  0  0
   -5.0308   22.5666   71.7950 C   0  0  0  0  0  0  0  0  0  0  0  0
   -5.0536   22.4808   70.4001 C   0  0  0  0  0  0  0  0  0  0  0  0
   -6.3045   22.5952   69.5930 C   0  0  0  0  0  0  0  0  0  0  0  0
   -3.7719   22.2750   69.8603 C   0  0  0  0  0  0  0  0  0  0  0  0
   -2.7879   22.2058   70.8278 C   0  0  0  0  0  0  0  0  0  0  0  0
   -3.4457   22.3903   72.3595 S   0  0  0  0  0  0  0  0  0  0  0  0
   -1.4836   22.0094   70.5238 N   0  0  0  0  0  0  0  0  0  0  0  0
   -1.1252   21.8800   69.2151 C   0  0  0  0  0  0  0  0  0  0  0  0
   -2.0725   21.9369   68.2314 N   0  0  0  0  0  0  0  0  0  0  0  0
   -3.3900   22.1343   68.5208 C   0  0  0  0  0  0  0  0  0  0  0  0
   -4.2354   22.1847   67.5891 O   0  0  0  0  0  0  0  0  0  0  0  0
   -1.7970   21.8330   67.2919 H   0  0  0  0  0  0  0  0  0  0  0  0
 17 18  1  0  0  0
 18 19  2  0  0  0
 19 20  1  0  0  0
 19 21  1  0  0  0
 21 22  2  0  0  0
 22 23  1  0  0  0
 22 24  1  0  0  0
 24 25  2  0  0  0
 25 16  1  0  0  0
 16  1  1  0  0  0
  1  2  1  0  0  0
  2  4  1  0  0  0
  4  5  2  0  0  0
  5  6  1  0  0  0
  6  7  2  0  0  0
  7  8  1  0  0  0
  8  9  2  0  0  0
  9 10  1  0  0  0
 10 11  1  0  0  0
 11 12  1  0  0  0
 11 13  2  0  0  0
 25 26  1  0  0  0
 26 27  1  0  0  0
 27 28  2  0  0  0
 23 18  1  0  0  0
 13  4  1  0  0  0
 27 21  1  0  0  0
 10  6  1  0  0  0
  2  3  1  0  0  0
 12 14  1  0  0  0
 12 15  1  0  0  0
 26 29  1  0  0  0
M  END
>  <minimizedAffinity>
-6.92455

>  <minimizedRMSD>
1.56019

$$$$
Molport-051-924-951 MCULE-7264336460 MCULE-8282242893


 43 44  0  0  0  0  0  0  0  0999 V2000
    3.4528   19.4476   72.1632 C   0  0  0  0  0  0  0  0  0  0  0  0
    2.7235   20.6125   74.1674 O   0  0  0  0  0  0  0  0  0  0  0  0
    3.7654   19.8472   73.6242 C   0  0  0  0  0  0  0  0  0  0  0  0
    2.7810   21.5101   73.7466 H   0  0  0  0  0  0  0  0  0  0  0  0
    4.6518   18.9024   71.4928 N   0  0  0  0  0  0  0  0  0  0  0  0
    5.2959   18.5112   72.2207 H   0  0  0  0  0  0  0  0  0  0  0  0
    5.3350   19.8945   70.6291 C   0  0  0  0  0  0  0  0  0  0  0  0
    6.8459   19.9939   70.9823 C   0  0  0  0  0  0  0  0  0  0  0  0
    7.7461   20.5211   69.8194 C   0  0  0  0  0  0  0  0  0  0  0  0
    8.2469   19.4008   69.1223 O   0  0  0  0  0  0  0  0  0  0  0  0
    6.9096   21.4106   68.8525 C   0  0  0  0  0  0  0  0  0  0  0  0
    7.7348   21.9391   67.8434 O   0  0  0  0  0  0  0  0  0  0  0  0
    5.7331   20.6181   68.2122 C   0  0  0  0  0  0  0  0  0  0  0  0
    4.7078   21.5170   67.8661 O   0  0  0  0  0  0  0  0  0  0  0  0
    5.1658   19.5106   69.1452 C   0  0  0  0  0  0  0  0  0  0  0  0
    3.8112   19.2742   68.8551 O   0  0  0  0  0  0  0  0  0  0  0  0
    8.8248   19.7228   68.3822 H   0  0  0  0  0  0  0  0  0  0  0  0
    7.2338   22.6811   67.4167 H   0  0  0  0  0  0  0  0  0  0  0  0
    4.9628   21.9336   67.0013 H   0  0  0  0  0  0  0  0  0  0  0  0
    3.7837   18.7927   67.9868 H   0  0  0  0  0  0  0  0  0  0  0  0
    8.9427   21.3119   70.4095 C   0  0  0  0  0  0  0  0  0  0  0  0
    8.4959   22.3358   71.2588 O   0  0  0  0  0  0  0  0  0  0  0  0
    9.3099   22.7853   71.6020 H   0  0  0  0  0  0  0  0  0  0  0  0
    2.3259   18.4007   72.1150 C   0  0  0  0  0  0  0  0  0  0  0  0
    1.5134   18.5872   70.9002 N   0  0  0  0  0  0  0  0  0  0  0  0
    1.8790   19.4184   70.3768 H   0  0  0  0  0  0  0  0  0  0  0  0
    0.0637   18.7810   71.1283 C   0  0  0  0  0  0  0  0  0  0  0  0
   -0.4879   17.8000   72.1852 C   0  0  0  0  0  0  0  0  0  0  0  0
   -2.0364   17.8904   72.2945 C   0  0  0  0  0  0  0  0  0  0  0  0
   -2.6308   17.4876   71.0784 O   0  0  0  0  0  0  0  0  0  0  0  0
   -2.4786   19.3649   72.5750 C   0  0  0  0  0  0  0  0  0  0  0  0
   -2.2390   19.7590   73.9069 O   0  0  0  0  0  0  0  0  0  0  0  0
   -1.8635   20.3831   71.5801 C   0  0  0  0  0  0  0  0  0  0  0  0
   -2.4587   20.2136   70.3169 O   0  0  0  0  0  0  0  0  0  0  0  0
   -0.3265   20.2416   71.4715 C   0  0  0  0  0  0  0  0  0  0  0  0
    0.1428   21.1151   70.4741 O   0  0  0  0  0  0  0  0  0  0  0  0
   -2.2945   16.5810   70.8465 H   0  0  0  0  0  0  0  0  0  0  0  0
   -1.2647   19.7139   74.0770 H   0  0  0  0  0  0  0  0  0  0  0  0
   -2.3829   21.0806   69.8383 H   0  0  0  0  0  0  0  0  0  0  0  0
    1.0193   21.4696   70.7758 H   0  0  0  0  0  0  0  0  0  0  0  0
   -2.5500   16.9683   73.4310 C   0  0  0  0  0  0  0  0  0  0  0  0
   -1.7555   15.8159   73.5349 O   0  0  0  0  0  0  0  0  0  0  0  0
   -2.1633   15.2619   74.2497 H   0  0  0  0  0  0  0  0  0  0  0  0
  2  3  1  0  0  0
  3  1  1  0  0  0
  1 24  1  0  0  0
 24 25  1  0  0  0
 25 27  1  0  0  0
 27 28  1  0  0  0
 28 29  1  0  0  0
 29 30  1  0  0  0
 29 41  1  0  0  0
 41 42  1  0  0  0
 29 31  1  0  0  0
 31 32  1  0  0  0
 31 33  1  0  0  0
 33 34  1  0  0  0
 33 35  1  0  0  0
 35 36  1  0  0  0
  1  5  1  0  0  0
  5  7  1  0  0  0
  7  8  1  0  0  0
  8  9  1  0  0  0
  9 10  1  0  0  0
  9 21  1  0  0  0
 21 22  1  0  0  0
  9 11  1  0  0  0
 11 12  1  0  0  0
 11 13  1  0  0  0
 13 14  1  0  0  0
 13 15  1  0  0  0
 15 16  1  0  0  0
 35 27  1  0  0  0
 15  7  1  0  0  0
  2  4  1  0  0  0
 25 26  1  0  0  0
 30 37  1  0  0  0
 42 43  1  0  0  0
 32 38  1  0  0  0
 34 39  1  0  0  0
 36 40  1  0  0  0
  5  6  1  0  0  0
 10 17  1  0  0  0
 22 23  1  0  0  0
 12 18  1  0  0  0
 14 19  1  0  0  0
 16 20  1  0  0  0
M  END
>  <minimizedAffinity>
-6.91202

>  <minimizedRMSD>
2.87959

$$$$
MolPort-003-927-841 MolPort-009-752-931 Molport-039-140-440


 43 42  0  0  0  0  0  0  0  0999 V2000
    8.5056   18.9605   65.2861 Ca  0  0  0  0  0  0  0  0  0  0  0  0
    4.8269   18.5292   70.0838 O   0  0  0  0  0  0  0  0  0  0  0  0
    3.9543   19.2035   69.2402 C   0  0  0  0  0  0  0  0  0  0  0  0
    4.3978   19.7824   68.2122 O   0  0  0  0  0  0  0  0  0  0  0  0
    2.4937   19.2334   69.5569 C   0  0  0  0  0  0  0  0  0  0  0  0
    1.8660   18.1443   68.9471 O   0  0  0  0  0  0  0  0  0  0  0  0
    1.9783   18.2032   67.9854 H   0  0  0  0  0  0  0  0  0  0  0  0
    1.8553   20.5433   69.0932 C   0  0  0  0  0  0  0  0  0  0  0  0
    2.5385   21.6302   69.6479 O   0  0  0  0  0  0  0  0  0  0  0  0
    2.4796   21.5895   70.6153 H   0  0  0  0  0  0  0  0  0  0  0  0
    0.3710   20.5952   69.4779 C   0  0  0  0  0  0  0  0  0  0  0  0
    0.1960   21.0629   70.7835 O   0  0  0  0  0  0  0  0  0  0  0  0
    0.5044   21.9807   70.8422 H   0  0  0  0  0  0  0  0  0  0  0  0
   -0.4969   21.3768   68.4826 C   0  0  0  0  0  0  0  0  0  0  0  0
    0.0463   21.2516   67.2017 O   0  0  0  0  0  0  0  0  0  0  0  0
    0.9332   21.6441   67.1868 H   0  0  0  0  0  0  0  0  0  0  0  0
   -0.6731   22.8571   68.8433 C   0  0  0  0  0  0  0  0  0  0  0  0
   -1.6553   23.0023   69.8250 O   0  0  0  0  0  0  0  0  0  0  0  0
   -2.5021   22.6718   69.4865 H   0  0  0  0  0  0  0  0  0  0  0  0
   -2.2043   24.4283   67.9048 O   0  0  0  0  0  0  0  0  0  0  0  0
   -1.0758   23.6614   67.6178 C   0  0  0  0  0  0  0  0  0  0  0  0
   -2.4564   24.9390   67.1196 H   0  0  0  0  0  0  0  0  0  0  0  0
    8.0912   21.4835   67.0653 O   0  0  0  0  0  0  0  0  0  0  0  0
    8.6304   20.7567   68.1199 C   0  0  0  0  0  0  0  0  0  0  0  0
    9.7607   20.2188   67.9955 O   0  0  0  0  0  0  0  0  0  0  0  0
    7.8829   20.6243   69.4064 C   0  0  0  0  0  0  0  0  0  0  0  0
    6.7463   21.4338   69.3601 O   0  0  0  0  0  0  0  0  0  0  0  0
    7.0129   22.3591   69.2433 H   0  0  0  0  0  0  0  0  0  0  0  0
    8.7668   21.0071   70.6020 C   0  0  0  0  0  0  0  0  0  0  0  0
    9.8743   20.1579   70.6821 O   0  0  0  0  0  0  0  0  0  0  0  0
    9.5744   19.2499   70.8449 H   0  0  0  0  0  0  0  0  0  0  0  0
    8.0246   20.9977   71.9445 C   0  0  0  0  0  0  0  0  0  0  0  0
    7.5623   22.2746   72.2761 O   0  0  0  0  0  0  0  0  0  0  0  0
    6.9093   22.5627   71.6192 H   0  0  0  0  0  0  0  0  0  0  0  0
    6.8987   19.9533   72.0116 C   0  0  0  0  0  0  0  0  0  0  0  0
    5.6430   20.5656   72.0155 O   0  0  0  0  0  0  0  0  0  0  0  0
    5.5509   21.1094   72.8134 H   0  0  0  0  0  0  0  0  0  0  0  0
    7.0282   19.0177   73.2155 C   0  0  0  0  0  0  0  0  0  0  0  0
    7.7342   19.6313   74.2515 O   0  0  0  0  0  0  0  0  0  0  0  0
    8.6352   19.8325   73.9539 H   0  0  0  0  0  0  0  0  0  0  0  0
    7.7024   17.7092   72.8365 C   0  0  0  0  0  0  0  0  0  0  0  0
    7.2829   17.3068   71.5685 O   0  0  0  0  0  0  0  0  0  0  0  0
    6.3215   17.1779   71.5717 H   0  0  0  0  0  0  0  0  0  0  0  0
 20 21  1  0  0  0
 17 21  1  0  0  0
 17 18  1  0  0  0
 17 14  1  0  0  0
 14 15  1  0  0  0
 14 11  1  0  0  0
 11 12  1  0  0  0
 11  8  1  0  0  0
  8  9  1  0  0  0
  8  5  1  0  0  0
  5  6  1  0  0  0
  5  3  1  0  0  0
  3  4  2  0  0  0
  3  2  1  0  0  0
  2  1  1  0  0  0
  1 23  1  0  0  0
 23 24  1  0  0  0
 24 25  2  0  0  0
 26 24  1  0  0  0
 26 27  1  0  0  0
 26 29  1  0  0  0
 29 30  1  0  0  0
 29 32  1  0  0  0
 32 33  1  0  0  0
 32 35  1  0  0  0
 35 36  1  0  0  0
 35 38  1  0  0  0
 38 39  1  0  0  0
 38 41  1  0  0  0
 41 42  1  0  0  0
 20 22  1  0  0  0
 18 19  1  0  0  0
 15 16  1  0  0  0
 12 13  1  0  0  0
  9 10  1  0  0  0
  6  7  1  0  0  0
 27 28  1  0  0  0
 30 31  1  0  0  0
 33 34  1  0  0  0
 36 37  1  0  0  0
 39 40  1  0  0  0
 42 43  1  0  0  0
M  END
>  <minimizedAffinity>
-6.90566

>  <minimizedRMSD>
2.26117

$$$$
Molport-053-107-012 15721332 LN02182510 MCULE-7986509004 PubChem-90477384 ZINC000015721332


 41 41  0  0  0  0  0  0  0  0999 V2000
   -0.3183   19.7918   69.8686 C   0  0  0  0  0  0  0  0  0  0  0  0
   -2.4050   21.1928   70.0798 N   0  0  0  0  0  0  0  0  0  0  0  0
   -0.9837   21.1295   69.9574 C   0  0  0  0  0  0  0  0  0  0  0  0
   -0.2961   22.1871   69.9684 O   0  0  0  0  0  0  0  0  0  0  0  0
   -2.9240   20.3588   70.0139 H   0  0  0  0  0  0  0  0  0  0  0  0
   -3.1167   22.4476   70.2991 C   0  0  0  0  0  0  0  0  0  0  0  0
   -4.3610   22.2524   71.1151 C   0  0  0  0  0  0  0  0  0  0  0  0
   -5.0219   21.1816   71.0269 O   0  0  0  0  0  0  0  0  0  0  0  0
   -4.7994   23.3019   71.9820 N   0  0  0  0  0  0  0  0  0  0  0  0
   -4.2508   24.1165   72.0507 H   0  0  0  0  0  0  0  0  0  0  0  0
   -6.0228   23.2171   72.7674 C   0  0  0  0  0  0  0  0  0  0  0  0
   -7.1042   24.0182   72.1272 C   0  0  0  0  0  0  0  0  0  0  0  0
   -8.3086   23.6850   72.2766 O   0  0  0  0  0  0  0  0  0  0  0  0
   -6.7826   25.1141   71.3387 O   0  0  0  0  0  0  0  0  0  0  0  0
   -5.8865   25.3637   71.2264 H   0  0  0  0  0  0  0  0  0  0  0  0
   -3.3988   23.1560   68.9735 C   0  0  0  0  0  0  0  0  0  0  0  0
   -3.7478   22.1921   67.8437 C   0  0  0  0  0  0  0  0  0  0  0  0
   -5.7934   23.2840   66.5922 C   0  0  0  0  0  0  0  0  0  0  0  0
   -5.5438   21.9128   67.7569 S   0  0  0  0  0  0  0  0  0  0  0  0
    1.0503   19.8484   70.3741 N   0  0  0  0  0  0  0  0  0  0  0  0
    2.1171   19.0788   69.8111 C   0  0  0  0  0  0  0  0  0  0  0  0
    1.9114   18.3330   68.8167 O   0  0  0  0  0  0  0  0  0  0  0  0
    1.2475   20.4413   71.1348 H   0  0  0  0  0  0  0  0  0  0  0  0
    3.4900   19.1572   70.3963 C   0  0  0  0  0  0  0  0  0  0  0  0
    3.4145   19.0235   71.8409 N   0  0  0  0  0  0  0  0  0  0  0  0
    2.8573   19.7870   72.2244 H   0  0  0  0  0  0  0  0  0  0  0  0
    4.3546   19.0573   72.2351 H   0  0  0  0  0  0  0  0  0  0  0  0
    4.1652   20.4764   70.0431 C   0  0  0  0  0  0  0  0  0  0  0  0
    4.8099   20.4095   68.6993 C   0  0  0  0  0  0  0  0  0  0  0  0
    4.8786   21.4431   67.9854 O   0  0  0  0  0  0  0  0  0  0  0  0
    5.3431   19.2134   68.2375 O   0  0  0  0  0  0  0  0  0  0  0  0
    5.2930   18.4425   68.7677 H   0  0  0  0  0  0  0  0  0  0  0  0
   -1.1343   18.6920   70.5618 C   0  0  0  0  0  0  0  0  0  0  0  0
   -0.7816   18.5006   72.0043 C   0  0  0  0  0  0  0  0  0  0  0  0
    0.0034   17.4060   72.3829 C   0  0  0  0  0  0  0  0  0  0  0  0
    0.3229   17.2041   73.7291 C   0  0  0  0  0  0  0  0  0  0  0  0
   -0.1497   18.0920   74.7006 C   0  0  0  0  0  0  0  0  0  0  0  0
   -0.9462   19.1786   74.3270 C   0  0  0  0  0  0  0  0  0  0  0  0
   -1.2651   19.3803   72.9811 C   0  0  0  0  0  0  0  0  0  0  0  0
    0.1684   17.8928   76.0367 O   0  0  0  0  0  0  0  0  0  0  0  0
    0.7022   17.1648   76.2877 H   0  0  0  0  0  0  0  0  0  0  0  0
 18 19  1  0  0  0
 19 17  1  0  0  0
 17 16  1  0  0  0
  6 16  1  0  0  0
  6  7  1  0  0  0
  6  2  1  0  0  0
  7  8  2  0  0  0
  7  9  1  0  0  0
  9 11  1  0  0  0
 11 12  1  0  0  0
 12 13  2  0  0  0
 12 14  1  0  0  0
  2  3  1  0  0  0
  3  4  2  0  0  0
  1  3  1  0  0  0
  1 33  1  0  0  0
  1 20  1  0  0  0
 33 34  1  0  0  0
 34 35  2  0  0  0
 35 36  1  0  0  0
 36 37  2  0  0  0
 37 38  1  0  0  0
 37 40  1  0  0  0
 38 39  2  0  0  0
 39 34  1  0  0  0
 20 21  1  0  0  0
 21 22  2  0  0  0
 24 21  1  0  0  0
 24 28  1  0  0  0
 24 25  1  0  0  0
 28 29  1  0  0  0
 29 30  2  0  0  0
 29 31  1  0  0  0
  9 10  1  0  0  0
 14 15  1  0  0  0
  2  5  1  0  0  0
 40 41  1  0  0  0
 20 23  1  0  0  0
 31 32  1  0  0  0
 25 26  1  0  0  0
 25 27  1  0  0  0
M  END
>  <minimizedAffinity>
-6.90304

>  <minimizedRMSD>
2.68833

$$$$
MolPort-002-514-680 CSSS00160785085 LN01782887 PubChem-9614557


 30 29  0  0  0  0  0  0  0  0999 V2000
    5.9489   19.7080   70.4331 C   0  0  0  0  0  0  0  0  0  0  0  0
    5.9310   19.6581   71.7288 N   0  0  0  0  0  0  0  0  0  0  0  0
    4.8707   19.0737   72.4366 N   0  0  0  0  0  0  0  0  0  0  0  0
    3.9910   19.8671   73.2298 C   0  0  0  0  0  0  0  0  0  0  0  0
    2.9242   19.2462   73.9361 N   0  0  0  0  0  0  0  0  0  0  0  0
    4.1519   21.1134   73.3091 O   0  0  0  0  0  0  0  0  0  0  0  0
    4.7317   18.1004   72.3849 H   0  0  0  0  0  0  0  0  0  0  0  0
    2.7954   18.2720   73.8763 H   0  0  0  0  0  0  0  0  0  0  0  0
    2.3144   19.7905   74.4847 H   0  0  0  0  0  0  0  0  0  0  0  0
    4.8077   19.1340   69.6305 C   0  0  0  0  0  0  0  0  0  0  0  0
    5.2837   18.6541   68.4082 O   0  0  0  0  0  0  0  0  0  0  0  0
    5.6674   19.3863   67.9007 H   0  0  0  0  0  0  0  0  0  0  0  0
    3.6811   20.1590   69.4229 C   0  0  0  0  0  0  0  0  0  0  0  0
    3.9467   21.3162   70.1583 O   0  0  0  0  0  0  0  0  0  0  0  0
    3.9630   21.1016   71.1042 H   0  0  0  0  0  0  0  0  0  0  0  0
    2.2999   19.6301   69.8159 C   0  0  0  0  0  0  0  0  0  0  0  0
    2.4002   18.6431   70.8005 O   0  0  0  0  0  0  0  0  0  0  0  0
    2.8992   17.8880   70.4517 H   0  0  0  0  0  0  0  0  0  0  0  0
    1.5409   19.1047   68.6091 C   0  0  0  0  0  0  0  0  0  0  0  0
    1.5750   20.0461   67.5805 O   0  0  0  0  0  0  0  0  0  0  0  0
    1.1609   20.8698   67.8822 H   0  0  0  0  0  0  0  0  0  0  0  0
    6.9636   21.0737   68.7167 N   0  0  0  0  0  0  0  0  0  0  0  0
    7.1011   20.3477   69.7810 C   0  0  0  0  0  0  0  0  0  0  0  0
   10.4085   22.1570   67.5498 N   0  0  0  0  0  0  0  0  0  0  0  0
    9.4309   21.4383   68.2915 C   0  0  0  0  0  0  0  0  0  0  0  0
    9.8029   20.5820   69.1363 O   0  0  0  0  0  0  0  0  0  0  0  0
    8.0396   21.7039   68.0623 N   0  0  0  0  0  0  0  0  0  0  0  0
   11.3659   21.9827   67.6991 H   0  0  0  0  0  0  0  0  0  0  0  0
   10.1280   22.8288   66.8871 H   0  0  0  0  0  0  0  0  0  0  0  0
    7.8177   22.3866   67.3886 H   0  0  0  0  0  0  0  0  0  0  0  0
 24 25  1  0  0  0
 25 26  2  0  0  0
 25 27  1  0  0  0
 27 22  1  0  0  0
 22 23  2  0  0  0
 23  1  1  0  0  0
  1  2  2  0  0  0
  2  3  1  0  0  0
  3  4  1  0  0  0
  4  5  1  0  0  0
  4  6  2  0  0  0
  1 10  1  0  0  0
 10 11  1  0  0  0
 10 13  1  0  0  0
 13 14  1  0  0  0
 13 16  1  0  0  0
 16 17  1  0  0  0
 16 19  1  0  0  0
 19 20  1  0  0  0
 24 28  1  0  0  0
 24 29  1  0  0  0
 27 30  1  0  0  0
  3  7  1  0  0  0
  5  8  1  0  0  0
  5  9  1  0  0  0
 11 12  1  0  0  0
 14 15  1  0  0  0
 17 18  1  0  0  0
 20 21  1  0  0  0
M  END
>  <minimizedAffinity>
-6.89252

>  <minimizedRMSD>
2.46900

$$$$
MolPort-001-785-890 MolPort-006-394-755 MolPort-008-346-746 MolPort-038-942-943 CSSS00020617396 LN00346364 MCULE-2333127533 MCULE-7373875477 NSC2559 PubChem-11505764 PubChem-142394325 PubChem-146161092 PubChem-157297705 PubChem-158604484 PubChem-158973980 PubChem-159651107 PubChem-160442952 PubChem-160585344 PubChem-160978248 PubChem-16396923 PubChem-17790808 PubChem-18417133 PubChem-18680345 PubChem-18780012 PubChem-19002633 PubChem-19023902 PubChem-19023903 PubChem-19349558 PubChem-19769071 PubChem-19790456 PubChem-20157373 PubChem-20490414 PubChem-21191601 PubChem-21260932 PubChem-21491107 PubChem-21715580 PubChem-21946471 PubChem-22283998 PubChem-22325968 PubChem-22327932 PubChem-22327938 PubChem-22660465 PubChem-23326142 PubChem-23326144 PubChem-23722683 PubChem-294 PubChem-522113 PubChem-71339008 PubChem-72503507 PubChem-73016662 PubChem-73921403 PubChem-73945220 PubChem-77151381 PubChem-77154285 PubChem-77158894 PubChem-77159920 PubChem-77160574 PubChem-77172129 PubChem-77179590 PubChem-77184554 PubChem-77185781 PubChem-77185813 PubChem-77195361 PubChem-77199180 PubChem-77222146 PubChem-77228255 PubChem-77236094 PubChem-77240705 PubChem-77246072 PubChem-77246992 PubChem-77251494 PubChem-77266418 PubChem-77267381 PubChem-77272307 PubChem-77273979 PubChem-77275032 PubChem-77277654 PubChem-77296299 PubChem-77306735 PubChem-77313226 PubChem-77318732 PubChem-77320296 PubChem-77321137 PubChem-77322266 PubChem-77330606 PubChem-77330988 PubChem-77340088 PubChem-77340484 PubChem-77340800 PubChem-77340804 PubChem-77344596 PubChem-77346548 PubChem-77346553 PubChem-77350780 PubChem-77352300 PubChem-77357515 PubChem-77357665 PubChem-77358708 PubChem-77359800 PubChem-77364406 PubChem-77365784 PubChem-77367115 PubChem-77367909 PubChem-77368007 PubChem-77371430 PubChem-77374135 PubChem-77374147 PubChem-77376130 PubChem-77381149 PubChem-77411360 PubChem-77430919 PubChem-77438085 PubChem-77526535 PubChem-77531361 PubChem-77534881 PubChem-77553449 PubChem-77557350 PubChem-77558177 PubChem-77563518 PubChem-77571073 PubChem-77571417 PubChem-77577485 PubChem-77587159 PubChem-77604327 PubChem-77606361 PubChem-77609898 PubChem-77611398 PubChem-77617935 PubChem-77618141 PubChem-77618193 PubChem-77618195 PubChem-77624801 PubChem-77625598 PubChem-77635782 PubChem-77650853 PubChem-77660555 PubChem-77674597 PubChem-77677748 PubChem-77687476 PubChem-77691778 PubChem-77704606 PubChem-77719201 PubChem-77719334 PubChem-77724401 PubChem-77754462 PubChem-77758376 PubChem-77769788 PubChem-77779606 PubChem-77791044 PubChem-77804712 PubChem-77804887 PubChem-77806776 PubChem-77807626 PubChem-77807942 PubChem-77809060 PubChem-77811469 PubChem-77812987 PubChem-77815550 PubChem-77832402 PubChem-77833680 PubChem-77837931 PubChem-77839467 PubChem-77854258 PubChem-77858577 PubChem-77860646 PubChem-77861711 PubChem-77869952 PubChem-77871583 PubChem-77872375 PubChem-77878820 PubChem-77885367 PubChem-77908444 PubChem-77962415 PubChem-77962442 PubChem-78116906 PubChem-85111802 PubChem-85131352


 31 32  0  0  0  0  0  0  0  0999 V2000
    3.6125   20.8787   70.9706 O   0  0  0  0  0  0  0  0  0  0  0  0
    6.8688   20.9523   69.6521 C   0  0  0  0  0  0  0  0  0  0  0  0
    5.4728   21.0736   69.5631 O   0  0  0  0  0  0  0  0  0  0  0  0
    4.9620   20.5209   70.7557 C   0  0  0  0  0  0  0  0  0  0  0  0
    5.1995   19.0003   70.8589 C   0  0  0  0  0  0  0  0  0  0  0  0
    5.6931   18.6919   72.1261 O   0  0  0  0  0  0  0  0  0  0  0  0
    6.1696   18.4949   69.7838 C   0  0  0  0  0  0  0  0  0  0  0  0
    5.4654   18.2428   68.6060 O   0  0  0  0  0  0  0  0  0  0  0  0
    7.3078   19.4850   69.4963 C   0  0  0  0  0  0  0  0  0  0  0  0
    8.3809   19.2273   70.3493 O   0  0  0  0  0  0  0  0  0  0  0  0
    6.5427   19.1405   72.2601 H   0  0  0  0  0  0  0  0  0  0  0  0
    5.0679   19.0670   68.2842 H   0  0  0  0  0  0  0  0  0  0  0  0
    8.1016   19.3583   71.2689 H   0  0  0  0  0  0  0  0  0  0  0  0
    8.8970   21.8888   68.8069 O   0  0  0  0  0  0  0  0  0  0  0  0
    7.5211   21.8158   68.5872 C   0  0  0  0  0  0  0  0  0  0  0  0
    9.3048   22.4420   68.1223 H   0  0  0  0  0  0  0  0  0  0  0  0
    2.7813   19.8652   70.4521 C   0  0  0  0  0  0  0  0  0  0  0  0
    2.1811   20.3082   69.1114 C   0  0  0  0  0  0  0  0  0  0  0  0
    1.6342   21.5902   69.2145 O   0  0  0  0  0  0  0  0  0  0  0  0
    1.1097   19.3249   68.6388 C   0  0  0  0  0  0  0  0  0  0  0  0
    1.7168   18.1696   68.1446 O   0  0  0  0  0  0  0  0  0  0  0  0
    0.1478   18.9562   69.7775 C   0  0  0  0  0  0  0  0  0  0  0  0
   -0.7163   20.0142   70.0810 O   0  0  0  0  0  0  0  0  0  0  0  0
    0.8318   18.5012   70.9292 O   0  0  0  0  0  0  0  0  0  0  0  0
    1.6454   19.5398   71.4341 C   0  0  0  0  0  0  0  0  0  0  0  0
    0.9159   21.5838   69.8663 H   0  0  0  0  0  0  0  0  0  0  0  0
    2.2286   17.7457   68.8512 H   0  0  0  0  0  0  0  0  0  0  0  0
   -0.2009   20.7705   70.4022 H   0  0  0  0  0  0  0  0  0  0  0  0
    2.1793   19.1476   72.8068 C   0  0  0  0  0  0  0  0  0  0  0  0
    2.0966   17.7658   72.9906 O   0  0  0  0  0  0  0  0  0  0  0  0
    1.1697   17.4865   72.9306 H   0  0  0  0  0  0  0  0  0  0  0  0
 14 15  1  0  0  0
  2 15  1  0  0  0
  2  3  1  0  0  0
  3  4  1  0  0  0
  4  1  1  0  0  0
  4  5  1  0  0  0
 17  1  1  0  0  0
 17 18  1  0  0  0
 18 19  1  0  0  0
 18 20  1  0  0  0
 20 21  1  0  0  0
 20 22  1  0  0  0
 22 23  1  0  0  0
 22 24  1  0  0  0
 24 25  1  0  0  0
 25 29  1  0  0  0
 25 17  1  0  0  0
 29 30  1  0  0  0
  5  6  1  0  0  0
  5  7  1  0  0  0
  7  8  1  0  0  0
  7  9  1  0  0  0
  9 10  1  0  0  0
  9  2  1  0  0  0
 14 16  1  0  0  0
 19 26  1  0  0  0
 21 27  1  0  0  0
 23 28  1  0  0  0
 30 31  1  0  0  0
  6 11  1  0  0  0
  8 12  1  0  0  0
 10 13  1  0  0  0
M  END
>  <minimizedAffinity>
-6.89141

>  <minimizedRMSD>
3.02850

$$$$
MolPort-051-572-025 CSSS06744556178 MCULE-1304134144 MCULE-3958471621 PubChem-102194984


 40 41  0  0  0  0  0  0  0  0999 V2000
    1.4257   19.1839   70.7232 C   0  0  0  0  0  0  0  0  0  0  0  0
    1.3548   19.1132   69.1883 C   0  0  0  0  0  0  0  0  0  0  0  0
    2.1939   20.2132   68.5280 C   0  0  0  0  0  0  0  0  0  0  0  0
    3.5521   20.3808   69.2107 C   0  0  0  0  0  0  0  0  0  0  0  0
    3.3608   20.4237   70.7328 C   0  0  0  0  0  0  0  0  0  0  0  0
    2.7609   19.2337   71.1935 O   0  0  0  0  0  0  0  0  0  0  0  0
    4.3971   19.3273   68.8514 O   0  0  0  0  0  0  0  0  0  0  0  0
    1.4972   21.4225   68.5559 O   0  0  0  0  0  0  0  0  0  0  0  0
    1.7901   17.8604   68.7548 O   0  0  0  0  0  0  0  0  0  0  0  0
    4.0033   18.4867   69.1326 H   0  0  0  0  0  0  0  0  0  0  0  0
    1.3376   21.6825   69.4766 H   0  0  0  0  0  0  0  0  0  0  0  0
    2.7141   17.7298   69.0196 H   0  0  0  0  0  0  0  0  0  0  0  0
    0.6673   20.2523   71.2195 O   0  0  0  0  0  0  0  0  0  0  0  0
   -0.0993   19.7004   72.2478 C   0  0  0  0  0  0  0  0  0  0  0  0
   -1.4739   19.3291   71.7220 C   0  0  0  0  0  0  0  0  0  0  0  0
   -2.4153   21.5279   70.9282 C   0  0  0  0  0  0  0  0  0  0  0  0
   -2.5937   21.9055   72.1168 O   0  0  0  0  0  0  0  0  0  0  0  0
   -1.8587   20.2397   70.6564 N   0  0  0  0  0  0  0  0  0  0  0  0
   -1.7324   19.9612   69.7206 H   0  0  0  0  0  0  0  0  0  0  0  0
   -2.0009   22.6017   68.7768 C   0  0  0  0  0  0  0  0  0  0  0  0
   -2.7861   22.4253   69.8315 C   0  0  0  0  0  0  0  0  0  0  0  0
   -0.8106   23.7891   66.7870 C   0  0  0  0  0  0  0  0  0  0  0  0
   -2.4932   23.7126   67.4654 S   0  0  0  0  0  0  0  0  0  0  0  0
    4.6815   20.6470   71.4506 C   0  0  0  0  0  0  0  0  0  0  0  0
    5.6835   20.9428   70.5239 O   0  0  0  0  0  0  0  0  0  0  0  0
    6.8728   20.5695   71.1534 C   0  0  0  0  0  0  0  0  0  0  0  0
    7.8145   21.7721   71.2571 C   0  0  0  0  0  0  0  0  0  0  0  0
    9.0946   21.3614   71.9838 C   0  0  0  0  0  0  0  0  0  0  0  0
    9.6606   20.0415   71.4461 C   0  0  0  0  0  0  0  0  0  0  0  0
    8.5607   18.9980   71.1926 C   0  0  0  0  0  0  0  0  0  0  0  0
    7.4801   19.5159   70.4367 O   0  0  0  0  0  0  0  0  0  0  0  0
   10.3623   20.2768   70.2635 O   0  0  0  0  0  0  0  0  0  0  0  0
    8.8470   21.2503   73.3527 O   0  0  0  0  0  0  0  0  0  0  0  0
    8.1229   22.2615   69.9854 O   0  0  0  0  0  0  0  0  0  0  0  0
    9.7578   20.6348   69.5947 H   0  0  0  0  0  0  0  0  0  0  0  0
    8.1834   20.5597   73.5063 H   0  0  0  0  0  0  0  0  0  0  0  0
    8.5666   21.5689   69.4712 H   0  0  0  0  0  0  0  0  0  0  0  0
    8.1133   18.2919   72.4717 C   0  0  0  0  0  0  0  0  0  0  0  0
    7.3579   17.1641   72.1508 O   0  0  0  0  0  0  0  0  0  0  0  0
    6.5748   17.4326   71.6453 H   0  0  0  0  0  0  0  0  0  0  0  0
 22 23  1  0  0  0
 23 20  1  0  0  0
 20 21  2  0  0  0
 21 16  1  0  0  0
 16 17  2  0  0  0
 16 18  1  0  0  0
 18 15  1  0  0  0
 15 14  1  0  0  0
 14 13  1  0  0  0
  1 13  1  0  0  0
  1  2  1  0  0  0
  2  3  1  0  0  0
  3  4  1  0  0  0
  4  5  1  0  0  0
  5  6  1  0  0  0
  5 24  1  0  0  0
 24 25  1  0  0  0
 26 25  1  0  0  0
 26 27  1  0  0  0
 27 28  1  0  0  0
 28 29  1  0  0  0
 29 30  1  0  0  0
 30 31  1  0  0  0
 30 38  1  0  0  0
 38 39  1  0  0  0
 29 32  1  0  0  0
 28 33  1  0  0  0
 27 34  1  0  0  0
  4  7  1  0  0  0
  3  8  1  0  0  0
  2  9  1  0  0  0
  6  1  1  0  0  0
 31 26  1  0  0  0
 18 19  1  0  0  0
 39 40  1  0  0  0
 32 35  1  0  0  0
 33 36  1  0  0  0
 34 37  1  0  0  0
  7 10  1  0  0  0
  8 11  1  0  0  0
  9 12  1  0  0  0
M  END
>  <minimizedAffinity>
-6.88376

>  <minimizedRMSD>
3.30964

$$$$
MolPort-039-345-959 PubChem-71705832


 28 30  0  0  0  0  0  0  0  0999 V2000
   -1.6079   20.6904   70.4950 C   0  0  0  0  0  0  0  0  0  0  0  0
   -2.2996   21.9166   71.0059 C   0  0  0  0  0  0  0  0  0  0  0  0
   -2.7543   21.9623   72.1802 O   0  0  0  0  0  0  0  0  0  0  0  0
   -2.4836   23.0438   70.1511 N   0  0  0  0  0  0  0  0  0  0  0  0
   -2.0000   23.1890   68.8091 C   0  0  0  0  0  0  0  0  0  0  0  0
   -2.7770   23.9638   67.9394 C   0  0  0  0  0  0  0  0  0  0  0  0
   -2.3676   24.2033   66.6280 C   0  0  0  0  0  0  0  0  0  0  0  0
   -1.1589   23.6830   66.1728 C   0  0  0  0  0  0  0  0  0  0  0  0
   -0.3598   22.9289   67.0318 C   0  0  0  0  0  0  0  0  0  0  0  0
   -0.7586   22.6644   68.3523 C   0  0  0  0  0  0  0  0  0  0  0  0
    0.1988   21.9199   69.2051 C   0  0  0  0  0  0  0  0  0  0  0  0
    1.4345   22.0616   69.0032 O   0  0  0  0  0  0  0  0  0  0  0  0
   -0.2194   20.9965   70.2106 N   0  0  0  0  0  0  0  0  0  0  0  0
   -2.9952   23.7995   70.5206 H   0  0  0  0  0  0  0  0  0  0  0  0
    0.4744   20.5418   70.7409 H   0  0  0  0  0  0  0  0  0  0  0  0
   -1.7248   19.4673   71.4167 C   0  0  0  0  0  0  0  0  0  0  0  0
   -0.8955   19.5670   72.6968 C   0  0  0  0  0  0  0  0  0  0  0  0
    1.6091   19.3906   72.4818 N   0  0  0  0  0  0  0  0  0  0  0  0
    0.3435   18.7436   72.6087 C   0  0  0  0  0  0  0  0  0  0  0  0
    0.2654   17.4861   72.6382 O   0  0  0  0  0  0  0  0  0  0  0  0
    1.6418   20.3745   72.4691 H   0  0  0  0  0  0  0  0  0  0  0  0
    3.8500   19.1507   73.4160 C   0  0  0  0  0  0  0  0  0  0  0  0
    4.5123   20.4213   72.9022 C   0  0  0  0  0  0  0  0  0  0  0  0
    4.5099   20.2603   71.1463 S   0  0  0  0  0  0  0  0  0  0  0  0
    3.9218   21.4743   70.4853 O   0  0  0  0  0  0  0  0  0  0  0  0
    5.8854   19.9727   70.6153 O   0  0  0  0  0  0  0  0  0  0  0  0
    3.4503   18.8583   70.9873 C   0  0  0  0  0  0  0  0  0  0  0  0
    2.8528   18.6439   72.3704 C   0  0  0  0  0  0  0  0  0  0  0  0
 22 23  1  0  0  0
 23 24  1  0  0  0
 24 25  2  0  0  0
 24 26  2  0  0  0
 24 27  1  0  0  0
 27 28  1  0  0  0
 28 18  1  0  0  0
 28 22  1  0  0  0
 18 19  1  0  0  0
 19 20  2  0  0  0
 19 17  1  0  0  0
 17 16  1  0  0  0
  1 16  1  0  0  0
  1  2  1  0  0  0
  2  3  2  0  0  0
  2  4  1  0  0  0
  4  5  1  0  0  0
  5  6  2  0  0  0
  6  7  1  0  0  0
  7  8  2  0  0  0
  8  9  1  0  0  0
  9 10  2  0  0  0
 10 11  1  0  0  0
 10  5  1  0  0  0
 11 12  2  0  0  0
 11 13  1  0  0  0
 13  1  1  0  0  0
 18 21  1  0  0  0
  4 14  1  0  0  0
 13 15  1  0  0  0
M  END
>  <minimizedAffinity>
-6.87143

>  <minimizedRMSD>
3.22624

$$$$
MolPort-035-814-029 CSSS00160883591 LN01985177 MCULE-9828025338 PubChem-90489215


 28 30  0  0  0  0  0  0  0  0999 V2000
   -1.6079   20.6905   70.4950 C   0  0  0  0  0  0  0  0  0  0  0  0
   -2.2996   21.9166   71.0058 C   0  0  0  0  0  0  0  0  0  0  0  0
   -2.7542   21.9623   72.1800 O   0  0  0  0  0  0  0  0  0  0  0  0
   -2.4836   23.0438   70.1510 N   0  0  0  0  0  0  0  0  0  0  0  0
   -1.9999   23.1889   68.8090 C   0  0  0  0  0  0  0  0  0  0  0  0
   -2.7769   23.9639   67.9393 C   0  0  0  0  0  0  0  0  0  0  0  0
   -2.3674   24.2033   66.6280 C   0  0  0  0  0  0  0  0  0  0  0  0
   -1.1588   23.6831   66.1728 C   0  0  0  0  0  0  0  0  0  0  0  0
   -0.3598   22.9289   67.0318 C   0  0  0  0  0  0  0  0  0  0  0  0
   -0.7586   22.6644   68.3523 C   0  0  0  0  0  0  0  0  0  0  0  0
    0.1990   21.9199   69.2050 C   0  0  0  0  0  0  0  0  0  0  0  0
    1.4345   22.0616   69.0032 O   0  0  0  0  0  0  0  0  0  0  0  0
   -0.2193   20.9965   70.2106 N   0  0  0  0  0  0  0  0  0  0  0  0
   -2.9951   23.7996   70.5204 H   0  0  0  0  0  0  0  0  0  0  0  0
    0.4744   20.5418   70.7409 H   0  0  0  0  0  0  0  0  0  0  0  0
   -1.7248   19.4674   71.4167 C   0  0  0  0  0  0  0  0  0  0  0  0
   -0.8955   19.5671   72.6968 C   0  0  0  0  0  0  0  0  0  0  0  0
    1.6092   19.3906   72.4817 N   0  0  0  0  0  0  0  0  0  0  0  0
    0.3434   18.7436   72.6087 C   0  0  0  0  0  0  0  0  0  0  0  0
    0.2654   17.4861   72.6382 O   0  0  0  0  0  0  0  0  0  0  0  0
    1.6419   20.3745   72.4691 H   0  0  0  0  0  0  0  0  0  0  0  0
    3.8500   19.1507   73.4160 C   0  0  0  0  0  0  0  0  0  0  0  0
    4.5122   20.4213   72.9022 C   0  0  0  0  0  0  0  0  0  0  0  0
    4.5100   20.2603   71.1463 S   0  0  0  0  0  0  0  0  0  0  0  0
    3.9217   21.4744   70.4852 O   0  0  0  0  0  0  0  0  0  0  0  0
    5.8855   19.9727   70.6153 O   0  0  0  0  0  0  0  0  0  0  0  0
    3.4503   18.8582   70.9873 C   0  0  0  0  0  0  0  0  0  0  0  0
    2.8528   18.6438   72.3704 C   0  0  0  0  0  0  0  0  0  0  0  0
 22 23  1  0  0  0
 23 24  1  0  0  0
 24 25  2  0  0  0
 24 26  2  0  0  0
 24 27  1  0  0  0
 27 28  1  0  0  0
 28 18  1  0  0  0
 18 19  1  0  0  0
 19 20  2  0  0  0
 19 17  1  0  0  0
 17 16  1  0  0  0
  1 16  1  0  0  0
  1  2  1  0  0  0
  2  3  2  0  0  0
  2  4  1  0  0  0
  4  5  1  0  0  0
  5  6  2  0  0  0
  6  7  1  0  0  0
  7  8  2  0  0  0
  8  9  1  0  0  0
  9 10  2  0  0  0
 10 11  1  0  0  0
 11 12  2  0  0  0
 11 13  1  0  0  0
 28 22  1  0  0  0
 13  1  1  0  0  0
 10  5  1  0  0  0
 18 21  1  0  0  0
  4 14  1  0  0  0
 13 15  1  0  0  0
M  END
>  <minimizedAffinity>
-6.87138

>  <minimizedRMSD>
3.22623

$$$$
MolPort-039-224-910 299794882 CSSS00159927277 MCULE-6258859726 ZINC000299794882


 26 27  0  0  0  0  0  0  0  0999 V2000
    1.3019   19.8276   71.3394 N   0  0  0  0  0  0  0  0  0  0  0  0
    2.3661   19.5079   70.4330 C   0  0  0  0  0  0  0  0  0  0  0  0
    2.1151   19.2778   69.2206 O   0  0  0  0  0  0  0  0  0  0  0  0
    1.5467   20.0300   72.2713 H   0  0  0  0  0  0  0  0  0  0  0  0
   -0.1210   19.8774   70.9908 C   0  0  0  0  0  0  0  0  0  0  0  0
   -0.5833   18.4645   70.5554 C   0  0  0  0  0  0  0  0  0  0  0  0
   -2.0071   18.1082   70.9988 C   0  0  0  0  0  0  0  0  0  0  0  0
   -2.0958   17.6744   72.4709 C   0  0  0  0  0  0  0  0  0  0  0  0
   -0.8908   18.0826   73.3247 C   0  0  0  0  0  0  0  0  0  0  0  0
   -0.7457   19.5961   73.4996 C   0  0  0  0  0  0  0  0  0  0  0  0
   -0.9042   20.4082   72.2068 C   0  0  0  0  0  0  0  0  0  0  0  0
   -0.4240   20.4033   68.5144 N   0  0  0  0  0  0  0  0  0  0  0  0
   -0.3447   20.8566   69.8637 C   0  0  0  0  0  0  0  0  0  0  0  0
   -0.5457   22.0759   70.1119 O   0  0  0  0  0  0  0  0  0  0  0  0
   -0.5701   21.0492   67.7859 H   0  0  0  0  0  0  0  0  0  0  0  0
   -0.3326   19.4444   68.3111 H   0  0  0  0  0  0  0  0  0  0  0  0
    3.7533   19.5071   70.9315 C   0  0  0  0  0  0  0  0  0  0  0  0
    4.9331   19.7701   70.2489 C   0  0  0  0  0  0  0  0  0  0  0  0
    5.9541   19.7242   71.1227 N   0  0  0  0  0  0  0  0  0  0  0  0
    5.3851   19.4288   72.3095 C   0  0  0  0  0  0  0  0  0  0  0  0
    4.0462   19.2883   72.2258 N   0  0  0  0  0  0  0  0  0  0  0  0
    3.4197   19.0726   72.9539 H   0  0  0  0  0  0  0  0  0  0  0  0
    5.1483   20.0022   68.8095 C   0  0  0  0  0  0  0  0  0  0  0  0
    4.6145   21.1382   68.2143 O   0  0  0  0  0  0  0  0  0  0  0  0
    5.8475   19.2189   68.1170 O   0  0  0  0  0  0  0  0  0  0  0  0
    4.0919   21.7300   68.7190 H   0  0  0  0  0  0  0  0  0  0  0  0
 12 13  1  0  0  0
 13 14  2  0  0  0
 13  5  1  0  0  0
  5  6  1  0  0  0
  6  7  1  0  0  0
  7  8  1  0  0  0
  8  9  1  0  0  0
  9 10  1  0  0  0
 10 11  1  0  0  0
  5  1  1  0  0  0
  1  2  1  0  0  0
  2  3  2  0  0  0
  2 17  1  0  0  0
 17 18  2  0  0  0
 18 19  1  0  0  0
 19 20  2  0  0  0
 20 21  1  0  0  0
 18 23  1  0  0  0
 23 24  1  0  0  0
 23 25  2  0  0  0
 11  5  1  0  0  0
 21 17  1  0  0  0
 12 15  1  0  0  0
 12 16  1  0  0  0
  1  4  1  0  0  0
 21 22  1  0  0  0
 24 26  1  0  0  0
M  END
>  <minimizedAffinity>
-6.84951

>  <minimizedRMSD>
3.17525

$$$$
MolPort-023-331-082 LN00191842 MCULE-1111342615 PubChem-70700334


 29 29  0  0  0  0  0  0  0  0999 V2000
    2.5744   20.3263   69.9343 C   0  0  0  0  0  0  0  0  0  0  0  0
    2.0068   20.0056   71.1703 O   0  0  0  0  0  0  0  0  0  0  0  0
    2.0255   19.0438   71.2949 H   0  0  0  0  0  0  0  0  0  0  0  0
    4.0478   19.8700   69.9118 C   0  0  0  0  0  0  0  0  0  0  0  0
    4.5427   19.9177   68.5873 O   0  0  0  0  0  0  0  0  0  0  0  0
    5.8018   19.2772   68.5216 C   0  0  0  0  0  0  0  0  0  0  0  0
    5.7184   17.9367   68.9160 O   0  0  0  0  0  0  0  0  0  0  0  0
    6.8555   20.0329   69.3322 C   0  0  0  0  0  0  0  0  0  0  0  0
    7.0963   21.2746   68.7383 O   0  0  0  0  0  0  0  0  0  0  0  0
    6.3753   20.2124   70.7730 C   0  0  0  0  0  0  0  0  0  0  0  0
    7.2323   21.0662   71.4707 O   0  0  0  0  0  0  0  0  0  0  0  0
    4.9400   20.7341   70.8293 C   0  0  0  0  0  0  0  0  0  0  0  0
    4.4989   20.6738   72.1528 O   0  0  0  0  0  0  0  0  0  0  0  0
    5.4375   17.8894   69.8433 H   0  0  0  0  0  0  0  0  0  0  0  0
    6.2746   21.7899   68.7216 H   0  0  0  0  0  0  0  0  0  0  0  0
    7.2264   21.9419   71.0535 H   0  0  0  0  0  0  0  0  0  0  0  0
    4.5413   19.7568   72.4663 H   0  0  0  0  0  0  0  0  0  0  0  0
    1.7429   19.6781   68.8070 C   0  0  0  0  0  0  0  0  0  0  0  0
    2.3329   19.9068   67.5621 O   0  0  0  0  0  0  0  0  0  0  0  0
    2.3309   20.8582   67.3732 H   0  0  0  0  0  0  0  0  0  0  0  0
    0.2813   20.1450   68.7487 C   0  0  0  0  0  0  0  0  0  0  0  0
   -0.5400   19.3536   69.5565 O   0  0  0  0  0  0  0  0  0  0  0  0
   -0.2761   19.4557   70.4843 H   0  0  0  0  0  0  0  0  0  0  0  0
    0.1030   21.6386   69.0444 C   0  0  0  0  0  0  0  0  0  0  0  0
   -0.5246   21.8451   70.2758 O   0  0  0  0  0  0  0  0  0  0  0  0
   -1.4158   21.4630   70.2526 H   0  0  0  0  0  0  0  0  0  0  0  0
   -1.4685   21.4313   67.2352 O   0  0  0  0  0  0  0  0  0  0  0  0
   -0.6676   22.3384   67.9324 C   0  0  0  0  0  0  0  0  0  0  0  0
   -1.9491   21.8974   66.5333 H   0  0  0  0  0  0  0  0  0  0  0  0
 27 28  1  0  0  0
 24 28  1  0  0  0
 24 25  1  0  0  0
 24 21  1  0  0  0
 21 22  1  0  0  0
 21 18  1  0  0  0
 18 19  1  0  0  0
 18  1  1  0  0  0
  1  2  1  0  0  0
  1  4  1  0  0  0
  4  5  1  0  0  0
  5  6  1  0  0  0
  6  7  1  0  0  0
  6  8  1  0  0  0
  8  9  1  0  0  0
  8 10  1  0  0  0
 10 11  1  0  0  0
 10 12  1  0  0  0
 12 13  1  0  0  0
 12  4  1  0  0  0
 27 29  1  0  0  0
 25 26  1  0  0  0
 22 23  1  0  0  0
 19 20  1  0  0  0
  2  3  1  0  0  0
  7 14  1  0  0  0
  9 15  1  0  0  0
 11 16  1  0  0  0
 13 17  1  0  0  0
M  END
>  <minimizedAffinity>
-6.83407

>  <minimizedRMSD>
1.58332

$$$$
Molport-046-937-293 139203427 MCULE-3380540509 MCULE-4226022526 PubChem-44465655 ZINC000139203427


 30 31  0  0  0  0  0  0  0  0999 V2000
    7.1851   20.7480   69.2640 C   0  0  0  0  0  0  0  0  0  0  0  0
    7.4820   20.0930   70.6167 C   0  0  0  0  0  0  0  0  0  0  0  0
    6.4706   18.9750   70.8699 C   0  0  0  0  0  0  0  0  0  0  0  0
    5.0411   19.4419   70.5911 C   0  0  0  0  0  0  0  0  0  0  0  0
    4.9960   20.1891   69.2497 C   0  0  0  0  0  0  0  0  0  0  0  0
    5.8837   21.2805   69.2715 O   0  0  0  0  0  0  0  0  0  0  0  0
    4.1939   18.3328   70.5491 O   0  0  0  0  0  0  0  0  0  0  0  0
    6.5736   18.5361   72.1905 O   0  0  0  0  0  0  0  0  0  0  0  0
    8.7721   19.5597   70.6123 O   0  0  0  0  0  0  0  0  0  0  0  0
    4.4832   17.7314   69.8452 H   0  0  0  0  0  0  0  0  0  0  0  0
    6.3712   19.2698   72.7918 H   0  0  0  0  0  0  0  0  0  0  0  0
    8.8434   18.8917   69.9126 H   0  0  0  0  0  0  0  0  0  0  0  0
    8.1014   21.7736   69.0213 O   0  0  0  0  0  0  0  0  0  0  0  0
   10.2156   21.4963   67.9724 C   0  0  0  0  0  0  0  0  0  0  0  0
    8.7115   21.4279   67.8149 C   0  0  0  0  0  0  0  0  0  0  0  0
    3.5874   20.6812   68.9387 C   0  0  0  0  0  0  0  0  0  0  0  0
    2.8976   20.9753   70.1187 O   0  0  0  0  0  0  0  0  0  0  0  0
    1.5516   20.7850   69.8007 C   0  0  0  0  0  0  0  0  0  0  0  0
    0.8793   19.9221   70.8705 C   0  0  0  0  0  0  0  0  0  0  0  0
   -0.5812   19.6768   70.4864 C   0  0  0  0  0  0  0  0  0  0  0  0
   -1.2768   20.9921   70.1280 C   0  0  0  0  0  0  0  0  0  0  0  0
   -0.4041   21.8705   69.2163 C   0  0  0  0  0  0  0  0  0  0  0  0
    0.9111   22.0408   69.7132 O   0  0  0  0  0  0  0  0  0  0  0  0
   -0.4306   21.4232   67.7587 C   0  0  0  0  0  0  0  0  0  0  0  0
   -1.5850   21.6924   71.2949 O   0  0  0  0  0  0  0  0  0  0  0  0
   -0.6667   18.7880   69.4109 O   0  0  0  0  0  0  0  0  0  0  0  0
    1.5511   18.7059   71.0130 O   0  0  0  0  0  0  0  0  0  0  0  0
   -0.7666   21.9038   71.7707 H   0  0  0  0  0  0  0  0  0  0  0  0
   -0.2218   19.1710   68.6388 H   0  0  0  0  0  0  0  0  0  0  0  0
    1.5274   18.2230   70.1721 H   0  0  0  0  0  0  0  0  0  0  0  0
 14 15  1  0  0  0
 15 13  1  0  0  0
  1 13  1  0  0  0
  1  2  1  0  0  0
  2  3  1  0  0  0
  3  4  1  0  0  0
  4  5  1  0  0  0
  5  6  1  0  0  0
  5 16  1  0  0  0
 16 17  1  0  0  0
 18 17  1  0  0  0
 18 19  1  0  0  0
 19 20  1  0  0  0
 20 21  1  0  0  0
 21 22  1  0  0  0
 22 23  1  0  0  0
 22 24  1  0  0  0
 21 25  1  0  0  0
 20 26  1  0  0  0
 19 27  1  0  0  0
  4  7  1  0  0  0
  3  8  1  0  0  0
  2  9  1  0  0  0
  6  1  1  0  0  0
 23 18  1  0  0  0
 25 28  1  0  0  0
 26 29  1  0  0  0
 27 30  1  0  0  0
  7 10  1  0  0  0
  8 11  1  0  0  0
  9 12  1  0  0  0
M  END
>  <minimizedAffinity>
-6.83043

>  <minimizedRMSD>
3.09632

$$$$
MolPort-003-930-664


 37 36  0  0  0  0  0  0  0  0999 V2000
    2.4904   20.2262   67.2565 Cu  0  0  0  0  0  0  0  0  0  0  0  0
    4.8090   18.2922   69.0900 O   0  0  0  0  0  0  0  0  0  0  0  0
    5.9534   19.0762   69.1796 C   0  0  0  0  0  0  0  0  0  0  0  0
    6.1947   19.9269   68.2837 O   0  0  0  0  0  0  0  0  0  0  0  0
    6.9095   18.9016   70.3230 C   0  0  0  0  0  0  0  0  0  0  0  0
    6.4020   18.0200   71.2786 O   0  0  0  0  0  0  0  0  0  0  0  0
    5.6019   18.3986   71.6752 H   0  0  0  0  0  0  0  0  0  0  0  0
    7.3581   20.2203   70.9769 C   0  0  0  0  0  0  0  0  0  0  0  0
    8.0622   20.9977   70.0557 O   0  0  0  0  0  0  0  0  0  0  0  0
    7.4680   21.2651   69.3372 H   0  0  0  0  0  0  0  0  0  0  0  0
    6.2683   21.0657   71.6564 C   0  0  0  0  0  0  0  0  0  0  0  0
    4.9976   20.8014   71.1367 O   0  0  0  0  0  0  0  0  0  0  0  0
    4.7514   19.8844   71.3352 H   0  0  0  0  0  0  0  0  0  0  0  0
    6.2900   20.9828   73.1823 C   0  0  0  0  0  0  0  0  0  0  0  0
    5.6415   19.8333   73.6383 O   0  0  0  0  0  0  0  0  0  0  0  0
    4.7084   19.8624   73.3749 H   0  0  0  0  0  0  0  0  0  0  0  0
    4.2755   22.1191   73.8434 O   0  0  0  0  0  0  0  0  0  0  0  0
    5.6680   22.2227   73.8086 C   0  0  0  0  0  0  0  0  0  0  0  0
    3.9018   22.9187   74.2457 H   0  0  0  0  0  0  0  0  0  0  0  0
    2.4037   20.4332   69.7124 O   0  0  0  0  0  0  0  0  0  0  0  0
    1.1854   19.8047   69.9356 C   0  0  0  0  0  0  0  0  0  0  0  0
    1.1349   18.5491   70.0189 O   0  0  0  0  0  0  0  0  0  0  0  0
   -0.0567   20.6240   70.0737 C   0  0  0  0  0  0  0  0  0  0  0  0
   -1.1130   19.8037   70.4757 O   0  0  0  0  0  0  0  0  0  0  0  0
   -1.2661   19.1211   69.8037 H   0  0  0  0  0  0  0  0  0  0  0  0
   -0.4063   21.3255   68.7623 C   0  0  0  0  0  0  0  0  0  0  0  0
    0.7407   21.8779   68.1827 O   0  0  0  0  0  0  0  0  0  0  0  0
    1.1177   22.5418   68.7811 H   0  0  0  0  0  0  0  0  0  0  0  0
   -1.4602   22.4125   68.9866 C   0  0  0  0  0  0  0  0  0  0  0  0
   -0.8775   23.5286   69.5976 O   0  0  0  0  0  0  0  0  0  0  0  0
   -0.1898   23.8922   69.0182 H   0  0  0  0  0  0  0  0  0  0  0  0
   -2.1317   22.8075   67.6689 C   0  0  0  0  0  0  0  0  0  0  0  0
   -2.0233   21.7599   66.7516 O   0  0  0  0  0  0  0  0  0  0  0  0
   -2.4747   20.9758   67.1013 H   0  0  0  0  0  0  0  0  0  0  0  0
   -3.6057   23.1204   67.8763 C   0  0  0  0  0  0  0  0  0  0  0  0
   -3.7803   23.8390   69.0589 O   0  0  0  0  0  0  0  0  0  0  0  0
   -3.4618   23.3114   69.8079 H   0  0  0  0  0  0  0  0  0  0  0  0
 17 18  1  0  0  0
 14 18  1  0  0  0
 14 15  1  0  0  0
 14 11  1  0  0  0
 11 12  1  0  0  0
 11  8  1  0  0  0
  8  9  1  0  0  0
  8  5  1  0  0  0
  5  6  1  0  0  0
  5  3  1  0  0  0
  3  4  2  0  0  0
  3  2  1  0  0  0
  2  1  1  0  0  0
  1 20  1  0  0  0
 20 21  1  0  0  0
 21 22  2  0  0  0
 23 21  1  0  0  0
 23 24  1  0  0  0
 23 26  1  0  0  0
 26 27  1  0  0  0
 26 29  1  0  0  0
 29 30  1  0  0  0
 29 32  1  0  0  0
 32 33  1  0  0  0
 32 35  1  0  0  0
 35 36  1  0  0  0
 17 19  1  0  0  0
 15 16  1  0  0  0
 12 13  1  0  0  0
  9 10  1  0  0  0
  6  7  1  0  0  0
 24 25  1  0  0  0
 27 28  1  0  0  0
 30 31  1  0  0  0
 33 34  1  0  0  0
 36 37  1  0  0  0
M  END
>  <minimizedAffinity>
-6.83024

>  <minimizedRMSD>
3.22015

$$$$
MolPort-028-959-505


 35 34  0  0  0  0  0  0  0  0999 V2000
    4.1021   20.5006   70.6739 Ca  0  0  0  0  0  0  0  0  0  0  0  0
    6.6274   20.9530   68.9587 O   0  0  0  0  0  0  0  0  0  0  0  0
    7.9737   20.7169   68.7132 C   0  0  0  0  0  0  0  0  0  0  0  0
    8.4003   20.7507   67.5290 O   0  0  0  0  0  0  0  0  0  0  0  0
    8.9002   20.4419   69.8245 C   0  0  0  0  0  0  0  0  0  0  0  0
   10.0360   19.9548   69.5809 O   0  0  0  0  0  0  0  0  0  0  0  0
    8.5341   20.7361   71.2488 C   0  0  0  0  0  0  0  0  0  0  0  0
    8.2666   22.1003   71.3882 O   0  0  0  0  0  0  0  0  0  0  0  0
    7.5105   22.3402   70.8300 H   0  0  0  0  0  0  0  0  0  0  0  0
    7.3436   19.8990   71.7362 C   0  0  0  0  0  0  0  0  0  0  0  0
    6.6070   20.6460   72.6611 O   0  0  0  0  0  0  0  0  0  0  0  0
    7.1688   20.8642   73.4211 H   0  0  0  0  0  0  0  0  0  0  0  0
    7.8082   18.5906   72.3917 C   0  0  0  0  0  0  0  0  0  0  0  0
    7.3653   17.4859   71.6614 O   0  0  0  0  0  0  0  0  0  0  0  0
    6.3954   17.4683   71.6578 H   0  0  0  0  0  0  0  0  0  0  0  0
    5.9407   18.2884   73.8759 O   0  0  0  0  0  0  0  0  0  0  0  0
    7.3251   18.4686   73.8339 C   0  0  0  0  0  0  0  0  0  0  0  0
    5.6523   18.2130   74.7989 H   0  0  0  0  0  0  0  0  0  0  0  0
    4.4339   21.3465   70.6162 O   0  0  0  0  0  0  0  0  0  0  0  0
    3.8708   20.0825   70.7416 C   0  0  0  0  0  0  0  0  0  0  0  0
    3.9745   19.4626   71.8321 O   0  0  0  0  0  0  0  0  0  0  0  0
    3.1631   19.4725   69.6097 C   0  0  0  0  0  0  0  0  0  0  0  0
    3.4717   18.3117   69.2259 O   0  0  0  0  0  0  0  0  0  0  0  0
    2.0612   20.2184   68.9262 C   0  0  0  0  0  0  0  0  0  0  0  0
    2.0567   19.9332   67.5584 O   0  0  0  0  0  0  0  0  0  0  0  0
    1.8998   18.9851   67.4263 H   0  0  0  0  0  0  0  0  0  0  0  0
    0.7085   19.8998   69.5633 C   0  0  0  0  0  0  0  0  0  0  0  0
    0.0146   18.9289   68.8336 O   0  0  0  0  0  0  0  0  0  0  0  0
   -0.1819   19.2699   67.9470 H   0  0  0  0  0  0  0  0  0  0  0  0
   -0.1383   21.1568   69.7805 C   0  0  0  0  0  0  0  0  0  0  0  0
   -1.4819   20.8141   69.9420 O   0  0  0  0  0  0  0  0  0  0  0  0
   -1.8107   20.4025   69.1275 H   0  0  0  0  0  0  0  0  0  0  0  0
    0.0166   22.2081   68.6823 C   0  0  0  0  0  0  0  0  0  0  0  0
   -0.3216   21.6812   67.4342 O   0  0  0  0  0  0  0  0  0  0  0  0
    0.2671   20.9388   67.2264 H   0  0  0  0  0  0  0  0  0  0  0  0
 16 17  1  0  0  0
 13 17  1  0  0  0
 13 14  1  0  0  0
 13 10  1  0  0  0
 10 11  1  0  0  0
 10  7  1  0  0  0
  7  8  1  0  0  0
  7  5  1  0  0  0
  5  6  2  0  0  0
  5  3  1  0  0  0
  3  4  2  0  0  0
  3  2  1  0  0  0
  2  1  1  0  0  0
  1 19  1  0  0  0
 19 20  1  0  0  0
 20 21  2  0  0  0
 20 22  1  0  0  0
 22 23  2  0  0  0
 24 22  1  0  0  0
 24 25  1  0  0  0
 24 27  1  0  0  0
 27 28  1  0  0  0
 27 30  1  0  0  0
 30 31  1  0  0  0
 30 33  1  0  0  0
 33 34  1  0  0  0
 16 18  1  0  0  0
 14 15  1  0  0  0
 11 12  1  0  0  0
  8  9  1  0  0  0
 25 26  1  0  0  0
 28 29  1  0  0  0
 31 32  1  0  0  0
 34 35  1  0  0  0
M  END
>  <minimizedAffinity>
-6.82023

>  <minimizedRMSD>
2.93550

$$$$
MolPort-003-959-544


 47 46  0  0  0  0  0  0  0  0999 V2000
    0.0051   19.7327   71.1332 C   0  0  0  0  0  0  0  0  0  0  0  0
    0.0796   20.7866   71.8188 O   0  0  0  0  0  0  0  0  0  0  0  0
   -0.9011   19.6374   70.0278 N   0  0  0  0  0  0  0  0  0  0  0  0
   -0.9152   18.7918   69.5238 H   0  0  0  0  0  0  0  0  0  0  0  0
   -1.8059   20.6977   69.5907 C   0  0  0  0  0  0  0  0  0  0  0  0
   -2.9618   20.8529   70.5317 C   0  0  0  0  0  0  0  0  0  0  0  0
   -2.8150   20.6445   71.7667 O   0  0  0  0  0  0  0  0  0  0  0  0
   -4.2394   21.2146   70.0084 N   0  0  0  0  0  0  0  0  0  0  0  0
   -4.3341   21.3697   69.0408 H   0  0  0  0  0  0  0  0  0  0  0  0
   -5.4052   21.3603   70.8654 C   0  0  0  0  0  0  0  0  0  0  0  0
   -5.5414   22.7805   71.2845 C   0  0  0  0  0  0  0  0  0  0  0  0
   -5.4730   23.7933   70.3376 O   0  0  0  0  0  0  0  0  0  0  0  0
   -5.6811   23.0673   72.5014 O   0  0  0  0  0  0  0  0  0  0  0  0
   -5.3690   23.5807   69.4310 H   0  0  0  0  0  0  0  0  0  0  0  0
   -1.0538   22.0041   69.3487 C   0  0  0  0  0  0  0  0  0  0  0  0
   -1.9656   23.2127   69.5168 C   0  0  0  0  0  0  0  0  0  0  0  0
   -2.4591   23.7194   68.1701 C   0  0  0  0  0  0  0  0  0  0  0  0
   -1.4145   24.4903   67.5139 N   0  0  0  0  0  0  0  0  0  0  0  0
   -1.0572   25.2866   67.9694 H   0  0  0  0  0  0  0  0  0  0  0  0
   -0.8873   24.1371   66.2349 C   0  0  0  0  0  0  0  0  0  0  0  0
    0.5197   24.1380   66.0316 N   0  0  0  0  0  0  0  0  0  0  0  0
   -1.6728   23.7893   65.2700 N   0  0  0  0  0  0  0  0  0  0  0  0
    1.1227   24.4022   66.7636 H   0  0  0  0  0  0  0  0  0  0  0  0
    0.8911   23.8743   65.1587 H   0  0  0  0  0  0  0  0  0  0  0  0
   -2.6480   23.7870   65.4056 H   0  0  0  0  0  0  0  0  0  0  0  0
    0.8885   18.5782   71.4585 C   0  0  0  0  0  0  0  0  0  0  0  0
    2.8953   19.3710   70.1328 C   0  0  0  0  0  0  0  0  0  0  0  0
    2.2461   19.3199   69.0520 O   0  0  0  0  0  0  0  0  0  0  0  0
    2.2857   18.9732   71.3627 N   0  0  0  0  0  0  0  0  0  0  0  0
    2.8345   18.9662   72.1800 H   0  0  0  0  0  0  0  0  0  0  0  0
    4.2956   19.8998   70.1480 C   0  0  0  0  0  0  0  0  0  0  0  0
    5.7190   19.7089   72.2398 C   0  0  0  0  0  0  0  0  0  0  0  0
    5.4829   20.9072   72.5514 O   0  0  0  0  0  0  0  0  0  0  0  0
    5.1333   19.1352   71.0666 N   0  0  0  0  0  0  0  0  0  0  0  0
    5.3025   18.1853   70.8711 H   0  0  0  0  0  0  0  0  0  0  0  0
    7.1492   19.7143   74.1801 N   0  0  0  0  0  0  0  0  0  0  0  0
    6.6168   18.8923   73.1064 C   0  0  0  0  0  0  0  0  0  0  0  0
    7.7620   19.1499   74.7686 H   0  0  0  0  0  0  0  0  0  0  0  0
    6.3802   20.0796   74.7419 H   0  0  0  0  0  0  0  0  0  0  0  0
    7.7538   18.3038   72.2881 C   0  0  0  0  0  0  0  0  0  0  0  0
    7.3441   17.1054   71.7029 O   0  0  0  0  0  0  0  0  0  0  0  0
    7.0921   16.4763   72.3969 H   0  0  0  0  0  0  0  0  0  0  0  0
    4.9010   19.9524   68.7408 C   0  0  0  0  0  0  0  0  0  0  0  0
    6.1414   19.1283   68.6078 C   0  0  0  0  0  0  0  0  0  0  0  0
    6.0500   17.7984   68.2185 O   0  0  0  0  0  0  0  0  0  0  0  0
    7.2651   19.6308   68.8712 O   0  0  0  0  0  0  0  0  0  0  0  0
    5.2137   17.4241   68.0224 H   0  0  0  0  0  0  0  0  0  0  0  0
 36 37  1  0  0  0
 37 40  1  0  0  0
 40 41  1  0  0  0
 37 32  1  0  0  0
 32 33  2  0  0  0
 32 34  1  0  0  0
 34 31  1  0  0  0
 31 43  1  0  0  0
 43 44  1  0  0  0
 44 45  1  0  0  0
 44 46  2  0  0  0
 31 27  1  0  0  0
 27 28  2  0  0  0
 27 29  1  0  0  0
 29 26  1  0  0  0
 26  1  1  0  0  0
  1  2  2  0  0  0
  1  3  1  0  0  0
  3  5  1  0  0  0
  5 15  1  0  0  0
 15 16  1  0  0  0
 16 17  1  0  0  0
 17 18  1  0  0  0
 18 20  1  0  0  0
 20 21  1  0  0  0
 20 22  2  0  0  0
  5  6  1  0  0  0
  6  7  2  0  0  0
  6  8  1  0  0  0
  8 10  1  0  0  0
 10 11  1  0  0  0
 11 12  1  0  0  0
 11 13  2  0  0  0
 36 38  1  0  0  0
 36 39  1  0  0  0
 41 42  1  0  0  0
 34 35  1  0  0  0
 45 47  1  0  0  0
 29 30  1  0  0  0
  3  4  1  0  0  0
 18 19  1  0  0  0
 21 23  1  0  0  0
 21 24  1  0  0  0
 22 25  1  0  0  0
  8  9  1  0  0  0
 12 14  1  0  0  0
M  END
>  <minimizedAffinity>
-6.81417

>  <minimizedRMSD>
4.28832

$$$$
MolPort-019-936-975 67902890 CSSS00159279864 MCULE-3580186504 PubChem-56776299 ZINC000067902890 ZINC67902890


 35 37  0  0  0  0  0  0  0  0999 V2000
    4.1130   20.5461   69.4634 C   0  0  0  0  0  0  0  0  0  0  0  0
    3.8427   19.1749   70.1070 C   0  0  0  0  0  0  0  0  0  0  0  0
    2.4081   19.0466   70.6439 C   0  0  0  0  0  0  0  0  0  0  0  0
    1.3761   19.7883   69.7812 C   0  0  0  0  0  0  0  0  0  0  0  0
    1.9604   21.0529   69.1272 C   0  0  0  0  0  0  0  0  0  0  0  0
    3.1151   21.4779   69.8036 O   0  0  0  0  0  0  0  0  0  0  0  0
    0.8898   18.9337   68.7917 O   0  0  0  0  0  0  0  0  0  0  0  0
    2.3572   19.5371   71.9493 O   0  0  0  0  0  0  0  0  0  0  0  0
    4.0887   18.1681   69.1727 O   0  0  0  0  0  0  0  0  0  0  0  0
    1.6190   18.6612   68.2129 H   0  0  0  0  0  0  0  0  0  0  0  0
    2.5911   20.4785   71.9503 H   0  0  0  0  0  0  0  0  0  0  0  0
    3.4843   18.2701   68.4208 H   0  0  0  0  0  0  0  0  0  0  0  0
    5.3600   21.0179   69.8762 O   0  0  0  0  0  0  0  0  0  0  0  0
    6.1725   20.9255   68.7434 C   0  0  0  0  0  0  0  0  0  0  0  0
    7.6020   20.6000   69.1484 C   0  0  0  0  0  0  0  0  0  0  0  0
    7.7925   19.3617   73.2539 C   0  0  0  0  0  0  0  0  0  0  0  0
    7.5825   18.4155   72.2453 C   0  0  0  0  0  0  0  0  0  0  0  0
    7.5221   18.8199   70.9076 C   0  0  0  0  0  0  0  0  0  0  0  0
    7.6746   20.1713   70.5758 C   0  0  0  0  0  0  0  0  0  0  0  0
    7.8784   21.1189   71.5865 C   0  0  0  0  0  0  0  0  0  0  0  0
    7.9395   20.7134   72.9245 C   0  0  0  0  0  0  0  0  0  0  0  0
    0.9328   22.1711   69.1161 C   0  0  0  0  0  0  0  0  0  0  0  0
   -0.3237   21.6565   68.7912 O   0  0  0  0  0  0  0  0  0  0  0  0
   -0.9773   22.6961   68.1196 C   0  0  0  0  0  0  0  0  0  0  0  0
   -2.1276   23.2417   68.9436 C   0  0  0  0  0  0  0  0  0  0  0  0
   -3.2966   22.4215   68.4781 C   0  0  0  0  0  0  0  0  0  0  0  0
   -2.8803   21.9895   67.0865 C   0  0  0  0  0  0  0  0  0  0  0  0
   -1.4967   22.2057   66.9051 O   0  0  0  0  0  0  0  0  0  0  0  0
   -3.4713   21.2874   69.2777 O   0  0  0  0  0  0  0  0  0  0  0  0
   -1.9008   23.1213   70.3210 O   0  0  0  0  0  0  0  0  0  0  0  0
   -2.6495   20.7722   69.2920 H   0  0  0  0  0  0  0  0  0  0  0  0
   -1.7517   22.1891   70.5438 H   0  0  0  0  0  0  0  0  0  0  0  0
   -4.5876   23.2349   68.4532 C   0  0  0  0  0  0  0  0  0  0  0  0
   -4.6502   24.0514   67.3188 O   0  0  0  0  0  0  0  0  0  0  0  0
   -3.9059   24.6733   67.3265 H   0  0  0  0  0  0  0  0  0  0  0  0
 16 17  2  0  0  0
 17 18  1  0  0  0
 18 19  2  0  0  0
 19 20  1  0  0  0
 19 15  1  0  0  0
 20 21  2  0  0  0
 21 16  1  0  0  0
 15 14  1  0  0  0
 14 13  1  0  0  0
  1 13  1  0  0  0
  1  2  1  0  0  0
  2  3  1  0  0  0
  2  9  1  0  0  0
  3  4  1  0  0  0
  3  8  1  0  0  0
  4  5  1  0  0  0
  4  7  1  0  0  0
  5  6  1  0  0  0
  5 22  1  0  0  0
  6  1  1  0  0  0
 22 23  1  0  0  0
 24 23  1  0  0  0
 24 25  1  0  0  0
 25 26  1  0  0  0
 25 30  1  0  0  0
 26 27  1  0  0  0
 26 33  1  0  0  0
 26 29  1  0  0  0
 27 28  1  0  0  0
 28 24  1  0  0  0
 33 34  1  0  0  0
 34 35  1  0  0  0
 29 31  1  0  0  0
 30 32  1  0  0  0
  7 10  1  0  0  0
  8 11  1  0  0  0
  9 12  1  0  0  0
M  END
>  <minimizedAffinity>
-6.81094

>  <minimizedRMSD>
3.18192

$$$$
MolPort-002-328-846 Molport-046-427-012 CSSS00102419265 MCULE-2194139384 MCULE-4339528647 MCULE-5437587355 NSC192745 NSC192746 PubChem-1115 PubChem-139033005 PubChem-139291147 PubChem-141157564 PubChem-141463569 PubChem-146170451 PubChem-158151383 PubChem-162262509 PubChem-18513321 PubChem-22603847 PubChem-303618 PubChem-303619 PubChem-53462864 PubChem-73945171 PubChem-78301985


 31 32  0  0  0  0  0  0  0  0999 V2000
    3.3161   18.6700   70.5175 O   0  0  0  0  0  0  0  0  0  0  0  0
    2.1593   19.4739   70.5357 C   0  0  0  0  0  0  0  0  0  0  0  0
    1.4656   19.3250   69.3119 O   0  0  0  0  0  0  0  0  0  0  0  0
    0.3882   20.2465   69.2488 C   0  0  0  0  0  0  0  0  0  0  0  0
   -0.6431   20.0308   70.3638 C   0  0  0  0  0  0  0  0  0  0  0  0
    0.0451   19.9883   71.7323 C   0  0  0  0  0  0  0  0  0  0  0  0
   -0.8506   19.6062   72.7333 O   0  0  0  0  0  0  0  0  0  0  0  0
    1.2719   19.0792   71.7200 C   0  0  0  0  0  0  0  0  0  0  0  0
    0.8959   17.7358   71.6213 O   0  0  0  0  0  0  0  0  0  0  0  0
   -1.3454   18.8465   70.1268 O   0  0  0  0  0  0  0  0  0  0  0  0
   -1.1704   18.7078   72.5554 H   0  0  0  0  0  0  0  0  0  0  0  0
    0.4024   17.5979   70.7977 H   0  0  0  0  0  0  0  0  0  0  0  0
   -0.7269   18.0993   70.1220 H   0  0  0  0  0  0  0  0  0  0  0  0
    0.8469   21.6985   69.1545 C   0  0  0  0  0  0  0  0  0  0  0  0
   -0.1443   22.5391   69.6601 O   0  0  0  0  0  0  0  0  0  0  0  0
   -0.9578   22.4267   69.1440 H   0  0  0  0  0  0  0  0  0  0  0  0
    4.4776   19.4297   70.8311 C   0  0  0  0  0  0  0  0  0  0  0  0
    4.5145   20.5224   69.9470 O   0  0  0  0  0  0  0  0  0  0  0  0
    5.1687   20.0759   68.7830 C   0  0  0  0  0  0  0  0  0  0  0  0
    6.0683   18.9077   69.1339 C   0  0  0  0  0  0  0  0  0  0  0  0
    5.7087   17.7996   68.3674 O   0  0  0  0  0  0  0  0  0  0  0  0
    5.7744   18.6385   70.5785 C   0  0  0  0  0  0  0  0  0  0  0  0
    6.8339   19.1376   71.3422 O   0  0  0  0  0  0  0  0  0  0  0  0
    4.7716   17.5957   68.5134 H   0  0  0  0  0  0  0  0  0  0  0  0
    6.9630   20.0776   71.1408 H   0  0  0  0  0  0  0  0  0  0  0  0
    4.3818   20.0091   72.2553 C   0  0  0  0  0  0  0  0  0  0  0  0
    4.8576   21.3205   72.3164 O   0  0  0  0  0  0  0  0  0  0  0  0
    5.7929   21.3374   72.0597 H   0  0  0  0  0  0  0  0  0  0  0  0
    5.9844   21.2120   68.1921 C   0  0  0  0  0  0  0  0  0  0  0  0
    7.3462   20.9613   68.3635 O   0  0  0  0  0  0  0  0  0  0  0  0
    7.5450   20.8888   69.3102 H   0  0  0  0  0  0  0  0  0  0  0  0
 17 26  1  0  0  0
 26 27  1  0  0  0
 17  1  1  0  0  0
  1  2  1  0  0  0
  2  3  1  0  0  0
  3  4  1  0  0  0
  4 14  1  0  0  0
 14 15  1  0  0  0
  4  5  1  0  0  0
  5  6  1  0  0  0
  6  7  1  0  0  0
  6  8  1  0  0  0
  8  9  1  0  0  0
  5 10  1  0  0  0
 17 18  1  0  0  0
 18 19  1  0  0  0
 19 20  1  0  0  0
 20 21  1  0  0  0
 20 22  1  0  0  0
 22 23  1  0  0  0
 19 29  1  0  0  0
 29 30  1  0  0  0
 22 17  1  0  0  0
  8  2  1  0  0  0
 27 28  1  0  0  0
 15 16  1  0  0  0
  7 11  1  0  0  0
  9 12  1  0  0  0
 10 13  1  0  0  0
 21 24  1  0  0  0
 23 25  1  0  0  0
 30 31  1  0  0  0
M  END
>  <minimizedAffinity>
-6.80984

>  <minimizedRMSD>
3.81666

$$$$
MolPort-007-823-815 ChemDiv-G070-0709 MCULE-3554073339 PubChem-20938432 ZINC000007006812 ZINC07006812


 30 31  0  0  0  0  0  0  0  0999 V2000
    4.0354   19.7331   69.7125 S   0  0  0  0  0  0  0  0  0  0  0  0
    4.7457   20.9499   69.1861 O   0  0  0  0  0  0  0  0  0  0  0  0
    4.5392   18.5139   68.9938 O   0  0  0  0  0  0  0  0  0  0  0  0
    5.5839   19.6335   72.0860 C   0  0  0  0  0  0  0  0  0  0  0  0
    5.3131   19.4509   73.4349 C   0  0  0  0  0  0  0  0  0  0  0  0
    6.3146   19.4294   74.5379 C   0  0  0  0  0  0  0  0  0  0  0  0
    4.0001   19.2424   73.6486 N   0  0  0  0  0  0  0  0  0  0  0  0
    3.4197   19.3032   72.4356 C   0  0  0  0  0  0  0  0  0  0  0  0
    1.9609   19.0809   72.2378 C   0  0  0  0  0  0  0  0  0  0  0  0
    4.3548   19.5529   71.4433 C   0  0  0  0  0  0  0  0  0  0  0  0
    3.5568   19.0795   74.5124 H   0  0  0  0  0  0  0  0  0  0  0  0
    6.9198   19.8199   71.4800 C   0  0  0  0  0  0  0  0  0  0  0  0
    7.5825   18.8242   71.0819 O   0  0  0  0  0  0  0  0  0  0  0  0
    7.4578   21.1040   71.3707 O   0  0  0  0  0  0  0  0  0  0  0  0
    7.7730   22.6498   73.1748 C   0  0  0  0  0  0  0  0  0  0  0  0
    8.4161   21.5996   72.2936 C   0  0  0  0  0  0  0  0  0  0  0  0
    2.3385   19.9021   69.4067 N   0  0  0  0  0  0  0  0  0  0  0  0
    1.8128   19.7250   70.2626 H   0  0  0  0  0  0  0  0  0  0  0  0
    2.0996   21.2633   68.9525 C   0  0  0  0  0  0  0  0  0  0  0  0
    0.6649   21.6099   69.1340 C   0  0  0  0  0  0  0  0  0  0  0  0
    0.1085   21.3662   70.2370 O   0  0  0  0  0  0  0  0  0  0  0  0
   -0.0549   22.2231   68.0559 N   0  0  0  0  0  0  0  0  0  0  0  0
    0.4526   22.3955   67.2301 H   0  0  0  0  0  0  0  0  0  0  0  0
   -1.4380   22.6128   68.0526 C   0  0  0  0  0  0  0  0  0  0  0  0
   -1.9030   23.5187   67.0809 C   0  0  0  0  0  0  0  0  0  0  0  0
   -0.9838   24.0839   66.0526 C   0  0  0  0  0  0  0  0  0  0  0  0
   -3.2474   23.9042   67.0672 C   0  0  0  0  0  0  0  0  0  0  0  0
   -4.1365   23.3937   68.0156 C   0  0  0  0  0  0  0  0  0  0  0  0
   -3.6835   22.4943   68.9825 C   0  0  0  0  0  0  0  0  0  0  0  0
   -2.3417   22.1062   69.0003 C   0  0  0  0  0  0  0  0  0  0  0  0
 15 16  1  0  0  0
 16 14  1  0  0  0
 14 12  1  0  0  0
 12 13  2  0  0  0
 12  4  1  0  0  0
  4  5  2  0  0  0
  5  6  1  0  0  0
  5  7  1  0  0  0
  7  8  1  0  0  0
  8  9  1  0  0  0
  8 10  2  0  0  0
 10  1  1  0  0  0
 10  4  1  0  0  0
  1  2  2  0  0  0
  1  3  2  0  0  0
  1 17  1  0  0  0
 17 19  1  0  0  0
 19 20  1  0  0  0
 20 21  2  0  0  0
 20 22  1  0  0  0
 22 24  1  0  0  0
 24 25  2  0  0  0
 25 26  1  0  0  0
 25 27  1  0  0  0
 27 28  2  0  0  0
 28 29  1  0  0  0
 29 30  2  0  0  0
 30 24  1  0  0  0
  7 11  1  0  0  0
 17 18  1  0  0  0
 22 23  1  0  0  0
M  END
>  <minimizedAffinity>
-6.80919

>  <minimizedRMSD>
1.83289

$$$$
MolPort-007-823-821 ChemDiv-G070-0725 MCULE-4411224351 PubChem-20938437 ZINC000007006822 ZINC07006822


 31 32  0  0  0  0  0  0  0  0999 V2000
    4.6102   20.1918   68.9160 S   0  0  0  0  0  0  0  0  0  0  0  0
    4.8186   21.3632   67.9961 O   0  0  0  0  0  0  0  0  0  0  0  0
    4.8196   18.9159   68.1512 O   0  0  0  0  0  0  0  0  0  0  0  0
    7.1401   20.4872   70.1626 C   0  0  0  0  0  0  0  0  0  0  0  0
    7.6042   20.4728   71.4704 C   0  0  0  0  0  0  0  0  0  0  0  0
    9.0191   20.6487   71.9035 C   0  0  0  0  0  0  0  0  0  0  0  0
    6.6079   20.2294   72.3428 N   0  0  0  0  0  0  0  0  0  0  0  0
    5.4948   20.0988   71.5971 C   0  0  0  0  0  0  0  0  0  0  0  0
    4.1685   19.7794   72.1935 C   0  0  0  0  0  0  0  0  0  0  0  0
    5.7722   20.2603   70.2486 C   0  0  0  0  0  0  0  0  0  0  0  0
    6.6787   20.1612   73.3224 H   0  0  0  0  0  0  0  0  0  0  0  0
    7.9619   20.6573   68.9452 C   0  0  0  0  0  0  0  0  0  0  0  0
    7.7997   19.8929   67.9560 O   0  0  0  0  0  0  0  0  0  0  0  0
    8.9378   21.6554   68.9022 O   0  0  0  0  0  0  0  0  0  0  0  0
   10.9468   20.3541   68.7828 C   0  0  0  0  0  0  0  0  0  0  0  0
   10.1498   21.4924   68.1809 C   0  0  0  0  0  0  0  0  0  0  0  0
    2.9821   20.2296   69.5071 N   0  0  0  0  0  0  0  0  0  0  0  0
    2.9661   19.9772   70.4953 H   0  0  0  0  0  0  0  0  0  0  0  0
    2.4751   21.5820   69.3341 C   0  0  0  0  0  0  0  0  0  0  0  0
    0.9901   21.5772   69.4146 C   0  0  0  0  0  0  0  0  0  0  0  0
    0.4281   20.9655   70.3611 O   0  0  0  0  0  0  0  0  0  0  0  0
    0.2266   22.2759   68.4221 N   0  0  0  0  0  0  0  0  0  0  0  0
    0.7363   22.7451   67.7226 H   0  0  0  0  0  0  0  0  0  0  0  0
   -1.2026   22.3619   68.3433 C   0  0  0  0  0  0  0  0  0  0  0  0
   -1.7853   22.8032   67.1516 C   0  0  0  0  0  0  0  0  0  0  0  0
   -3.1746   22.8985   67.0363 C   0  0  0  0  0  0  0  0  0  0  0  0
   -3.9969   22.5528   68.1125 C   0  0  0  0  0  0  0  0  0  0  0  0
   -5.4752   22.6675   67.9520 C   0  0  0  0  0  0  0  0  0  0  0  0
   -3.4192   22.1072   69.3154 C   0  0  0  0  0  0  0  0  0  0  0  0
   -4.2559   21.7271   70.4898 C   0  0  0  0  0  0  0  0  0  0  0  0
   -2.0282   22.0145   69.4227 C   0  0  0  0  0  0  0  0  0  0  0  0
 15 16  1  0  0  0
 16 14  1  0  0  0
 14 12  1  0  0  0
 12 13  2  0  0  0
 12  4  1  0  0  0
  4  5  2  0  0  0
  5  6  1  0  0  0
  5  7  1  0  0  0
  7  8  1  0  0  0
  8  9  1  0  0  0
  8 10  2  0  0  0
 10  1  1  0  0  0
 10  4  1  0  0  0
  1  2  2  0  0  0
  1  3  2  0  0  0
  1 17  1  0  0  0
 17 19  1  0  0  0
 19 20  1  0  0  0
 20 21  2  0  0  0
 20 22  1  0  0  0
 22 24  1  0  0  0
 24 25  2  0  0  0
 25 26  1  0  0  0
 26 27  2  0  0  0
 27 28  1  0  0  0
 27 29  1  0  0  0
 29 30  1  0  0  0
 29 31  2  0  0  0
 31 24  1  0  0  0
  7 11  1  0  0  0
 17 18  1  0  0  0
 22 23  1  0  0  0
M  END
>  <minimizedAffinity>
-6.80838

>  <minimizedRMSD>
1.58725

$$$$
Molport-052-063-475 PubChem-85070631


 42 42  0  0  0  0  0  0  0  0999 V2000
    0.3104   19.1174   72.5811 C   0  0  0  0  0  0  0  0  0  0  0  0
    2.6499   20.0143   72.8674 N   0  0  0  0  0  0  0  0  0  0  0  0
    1.7808   19.0050   72.3418 C   0  0  0  0  0  0  0  0  0  0  0  0
    2.2450   18.0425   71.6715 O   0  0  0  0  0  0  0  0  0  0  0  0
    2.2438   20.7206   73.4201 H   0  0  0  0  0  0  0  0  0  0  0  0
    4.0958   20.0771   72.6464 C   0  0  0  0  0  0  0  0  0  0  0  0
    4.4660   20.2068   71.1887 C   0  0  0  0  0  0  0  0  0  0  0  0
    4.2590   21.2706   70.6250 O   0  0  0  0  0  0  0  0  0  0  0  0
    5.1114   19.0803   70.4148 C   0  0  0  0  0  0  0  0  0  0  0  0
    5.8878   19.4765   69.1952 C   0  0  0  0  0  0  0  0  0  0  0  0
    6.5152   19.2185   70.4267 O   0  0  0  0  0  0  0  0  0  0  0  0
    5.9671   20.9693   68.9002 C   0  0  0  0  0  0  0  0  0  0  0  0
    5.0823   21.2881   67.8709 O   0  0  0  0  0  0  0  0  0  0  0  0
    5.3198   20.7884   67.0741 H   0  0  0  0  0  0  0  0  0  0  0  0
    4.8272   18.9018   73.3039 C   0  0  0  0  0  0  0  0  0  0  0  0
    7.2905   18.8965   73.8582 C   0  0  0  0  0  0  0  0  0  0  0  0
    5.9050   19.3286   74.3023 C   0  0  0  0  0  0  0  0  0  0  0  0
    5.8724   20.8204   74.5786 C   0  0  0  0  0  0  0  0  0  0  0  0
   -0.4332   17.8139   72.2807 C   0  0  0  0  0  0  0  0  0  0  0  0
   -1.9120   17.8929   72.6312 C   0  0  0  0  0  0  0  0  0  0  0  0
    0.1551   16.7632   72.9842 O   0  0  0  0  0  0  0  0  0  0  0  0
    0.0820   16.9310   73.9367 H   0  0  0  0  0  0  0  0  0  0  0  0
   -0.2460   20.2354   71.8309 N   0  0  0  0  0  0  0  0  0  0  0  0
   -0.2215   20.2768   70.4025 C   0  0  0  0  0  0  0  0  0  0  0  0
    0.2344   19.3041   69.7438 O   0  0  0  0  0  0  0  0  0  0  0  0
   -0.6513   20.9856   72.3230 H   0  0  0  0  0  0  0  0  0  0  0  0
   -0.7552   21.4745   69.6757 C   0  0  0  0  0  0  0  0  0  0  0  0
   -0.0499   21.6444   68.3303 C   0  0  0  0  0  0  0  0  0  0  0  0
   -0.4916   22.9327   67.6588 C   0  0  0  0  0  0  0  0  0  0  0  0
   -0.3557   20.5744   67.4875 O   0  0  0  0  0  0  0  0  0  0  0  0
   -1.3123   20.5512   67.3285 H   0  0  0  0  0  0  0  0  0  0  0  0
   -2.1951   21.3369   69.4744 N   0  0  0  0  0  0  0  0  0  0  0  0
   -3.1580   21.7045   70.4642 C   0  0  0  0  0  0  0  0  0  0  0  0
   -2.7885   22.2123   71.5589 O   0  0  0  0  0  0  0  0  0  0  0  0
   -2.5171   20.9742   68.6176 H   0  0  0  0  0  0  0  0  0  0  0  0
   -4.6088   21.4755   70.1885 C   0  0  0  0  0  0  0  0  0  0  0  0
   -5.4782   22.1480   71.2374 C   0  0  0  0  0  0  0  0  0  0  0  0
   -4.9841   21.9134   68.8088 C   0  0  0  0  0  0  0  0  0  0  0  0
   -4.8490   23.1158   68.4559 O   0  0  0  0  0  0  0  0  0  0  0  0
   -5.4913   20.9592   67.8839 N   0  0  0  0  0  0  0  0  0  0  0  0
   -5.5984   20.0190   68.1556 H   0  0  0  0  0  0  0  0  0  0  0  0
   -5.7355   21.2389   66.9721 H   0  0  0  0  0  0  0  0  0  0  0  0
 16 17  1  0  0  0
 17 18  1  0  0  0
 17 15  1  0  0  0
  6 15  1  0  0  0
  6  7  1  0  0  0
  6  2  1  0  0  0
  7  8  2  0  0  0
  9  7  1  0  0  0
  9 10  1  0  0  0
 10 11  1  0  0  0
 10 12  1  0  0  0
 11  9  1  0  0  0
 12 13  1  0  0  0
  2  3  1  0  0  0
  3  4  2  0  0  0
  1  3  1  0  0  0
  1 19  1  0  0  0
  1 23  1  0  0  0
 19 20  1  0  0  0
 19 21  1  0  0  0
 23 24  1  0  0  0
 24 25  2  0  0  0
 27 24  1  0  0  0
 27 28  1  0  0  0
 27 32  1  0  0  0
 28 29  1  0  0  0
 28 30  1  0  0  0
 32 33  1  0  0  0
 33 34  2  0  0  0
 36 33  1  0  0  0
 36 37  1  0  0  0
 36 38  1  0  0  0
 38 39  2  0  0  0
 38 40  1  0  0  0
 13 14  1  0  0  0
  2  5  1  0  0  0
 21 22  1  0  0  0
 23 26  1  0  0  0
 30 31  1  0  0  0
 32 35  1  0  0  0
 40 41  1  0  0  0
 40 42  1  0  0  0
M  END
>  <minimizedAffinity>
-6.79485

>  <minimizedRMSD>
3.11964

$$$$
MolPort-044-727-225 PubChem-154828351


 36 37  0  0  0  0  0  0  0  0999 V2000
    6.9660   21.2073   70.1019 C   0  0  0  0  0  0  0  0  0  0  0  0
    6.1928   20.9355   69.0442 C   0  0  0  0  0  0  0  0  0  0  0  0
    5.1328   20.0249   69.1240 O   0  0  0  0  0  0  0  0  0  0  0  0
    4.6933   19.4693   70.3645 C   0  0  0  0  0  0  0  0  0  0  0  0
    5.8698   19.2487   71.3330 C   0  0  0  0  0  0  0  0  0  0  0  0
    5.3550   18.9097   72.5905 O   0  0  0  0  0  0  0  0  0  0  0  0
    6.6792   20.5665   71.4448 C   0  0  0  0  0  0  0  0  0  0  0  0
    4.7752   19.6209   72.9050 H   0  0  0  0  0  0  0  0  0  0  0  0
    6.0445   21.5692   72.3685 C   0  0  0  0  0  0  0  0  0  0  0  0
    6.8403   22.2888   73.2492 O   0  0  0  0  0  0  0  0  0  0  0  0
    4.8005   21.7679   72.3461 O   0  0  0  0  0  0  0  0  0  0  0  0
    7.7659   22.1443   73.2693 H   0  0  0  0  0  0  0  0  0  0  0  0
    6.7713   18.1303   70.8568 C   0  0  0  0  0  0  0  0  0  0  0  0
    6.8154   17.7786   69.5126 O   0  0  0  0  0  0  0  0  0  0  0  0
    7.4932   17.5009   71.6756 O   0  0  0  0  0  0  0  0  0  0  0  0
    6.2849   18.2367   68.8908 H   0  0  0  0  0  0  0  0  0  0  0  0
    8.0884   22.1512   69.9581 C   0  0  0  0  0  0  0  0  0  0  0  0
    8.3538   22.9577   70.8917 O   0  0  0  0  0  0  0  0  0  0  0  0
    9.5728   20.9968   68.3677 C   0  0  0  0  0  0  0  0  0  0  0  0
    8.8579   22.1477   68.7916 O   0  0  0  0  0  0  0  0  0  0  0  0
    3.9803   18.2767   70.1345 O   0  0  0  0  0  0  0  0  0  0  0  0
    2.5952   18.5577   70.1614 C   0  0  0  0  0  0  0  0  0  0  0  0
    2.2079   19.3655   69.0715 O   0  0  0  0  0  0  0  0  0  0  0  0
    0.8060   19.2939   68.9834 C   0  0  0  0  0  0  0  0  0  0  0  0
    0.1604   20.0180   70.1745 C   0  0  0  0  0  0  0  0  0  0  0  0
   -1.2310   19.9326   70.0893 O   0  0  0  0  0  0  0  0  0  0  0  0
    0.6253   19.3693   71.4786 C   0  0  0  0  0  0  0  0  0  0  0  0
    0.2414   20.1603   72.5623 O   0  0  0  0  0  0  0  0  0  0  0  0
    2.1402   19.1692   71.4979 C   0  0  0  0  0  0  0  0  0  0  0  0
    2.4795   18.3141   72.5473 O   0  0  0  0  0  0  0  0  0  0  0  0
   -1.4993   19.0006   70.1052 H   0  0  0  0  0  0  0  0  0  0  0  0
    0.6625   21.0313   72.4920 H   0  0  0  0  0  0  0  0  0  0  0  0
    2.0399   17.4585   72.4224 H   0  0  0  0  0  0  0  0  0  0  0  0
    0.3475   19.8879   67.6564 C   0  0  0  0  0  0  0  0  0  0  0  0
   -0.2920   21.1127   67.8600 O   0  0  0  0  0  0  0  0  0  0  0  0
   -1.0710   20.9811   68.4228 H   0  0  0  0  0  0  0  0  0  0  0  0
 19 20  1  0  0  0
 20 17  1  0  0  0
 17 18  2  0  0  0
 17  1  1  0  0  0
  1  2  2  0  0  0
  2  3  1  0  0  0
  3  4  1  0  0  0
  4 21  1  0  0  0
 22 21  1  0  0  0
 22 23  1  0  0  0
 23 24  1  0  0  0
 24 34  1  0  0  0
 34 35  1  0  0  0
 24 25  1  0  0  0
 25 26  1  0  0  0
 25 27  1  0  0  0
 27 28  1  0  0  0
 27 29  1  0  0  0
 29 30  1  0  0  0
  4  5  1  0  0  0
  5  6  1  0  0  0
  5  7  1  0  0  0
  7  9  1  0  0  0
  9 10  1  0  0  0
  9 11  2  0  0  0
  5 13  1  0  0  0
 13 14  1  0  0  0
 13 15  2  0  0  0
  7  1  1  0  0  0
 29 22  1  0  0  0
 35 36  1  0  0  0
 26 31  1  0  0  0
 28 32  1  0  0  0
 30 33  1  0  0  0
  6  8  1  0  0  0
 10 12  1  0  0  0
 14 16  1  0  0  0
M  END
>  <minimizedAffinity>
-6.78706

>  <minimizedRMSD>
2.98692

$$$$
MolPort-005-975-335 CSSS00160734785 LN00502166


 36 38  0  0  0  0  0  0  0  0999 V2000
   -2.9351   22.0278   69.7561 C   0  0  0  0  0  0  0  0  0  0  0  0
   -1.7531   21.9428   70.2725 N   0  0  0  0  0  0  0  0  0  0  0  0
   -5.1661   23.0100   72.6574 C   0  0  0  0  0  0  0  0  0  0  0  0
   -4.0236   22.8151   71.8631 C   0  0  0  0  0  0  0  0  0  0  0  0
   -4.1215   22.2375   70.5919 C   0  0  0  0  0  0  0  0  0  0  0  0
   -5.3696   21.8431   70.1107 C   0  0  0  0  0  0  0  0  0  0  0  0
   -6.5138   22.0363   70.8863 C   0  0  0  0  0  0  0  0  0  0  0  0
   -6.4320   22.6279   72.1516 C   0  0  0  0  0  0  0  0  0  0  0  0
   -3.8508   23.4905   74.7026 C   0  0  0  0  0  0  0  0  0  0  0  0
   -5.0493   23.5542   73.9414 O   0  0  0  0  0  0  0  0  0  0  0  0
   -7.6292   22.7968   72.8629 O   0  0  0  0  0  0  0  0  0  0  0  0
   -8.6372   21.8010   73.0000 C   0  0  0  0  0  0  0  0  0  0  0  0
   -9.9306   22.3004   72.4517 C   0  0  0  0  0  0  0  0  0  0  0  0
  -10.2421   22.1004   71.1022 C   0  0  0  0  0  0  0  0  0  0  0  0
  -11.4451   22.5876   70.5816 C   0  0  0  0  0  0  0  0  0  0  0  0
  -12.3361   23.2785   71.4087 C   0  0  0  0  0  0  0  0  0  0  0  0
  -12.0236   23.4838   72.7559 C   0  0  0  0  0  0  0  0  0  0  0  0
  -10.8208   22.9966   73.2765 C   0  0  0  0  0  0  0  0  0  0  0  0
   -0.6413   21.7400   69.4474 N   0  0  0  0  0  0  0  0  0  0  0  0
    0.4454   20.9178   69.8687 C   0  0  0  0  0  0  0  0  0  0  0  0
    0.4224   20.3584   70.9973 O   0  0  0  0  0  0  0  0  0  0  0  0
   -0.6087   22.1711   68.5629 H   0  0  0  0  0  0  0  0  0  0  0  0
    1.6022   20.6956   68.9559 C   0  0  0  0  0  0  0  0  0  0  0  0
    1.7340   19.2231   68.6036 C   0  0  0  0  0  0  0  0  0  0  0  0
    2.6413   18.5660   69.5318 N   0  0  0  0  0  0  0  0  0  0  0  0
    2.2933   17.8503   70.1114 H   0  0  0  0  0  0  0  0  0  0  0  0
    4.0209   18.9251   69.6298 C   0  0  0  0  0  0  0  0  0  0  0  0
    4.7927   19.0379   68.5160 N   0  0  0  0  0  0  0  0  0  0  0  0
    6.0805   19.3745   68.6016 N   0  0  0  0  0  0  0  0  0  0  0  0
    6.6569   19.6145   69.8076 C   0  0  0  0  0  0  0  0  0  0  0  0
    7.9980   19.9637   69.8823 O   0  0  0  0  0  0  0  0  0  0  0  0
    5.9154   19.5111   70.9395 N   0  0  0  0  0  0  0  0  0  0  0  0
    4.6035   19.1700   70.8746 C   0  0  0  0  0  0  0  0  0  0  0  0
    3.8554   19.0687   72.0412 O   0  0  0  0  0  0  0  0  0  0  0  0
    8.5080   20.0345   69.0994 H   0  0  0  0  0  0  0  0  0  0  0  0
    4.2570   19.2353   72.8713 H   0  0  0  0  0  0  0  0  0  0  0  0
  9 10  1  0  0  0
 10  3  1  0  0  0
  3  4  2  0  0  0
  4  5  1  0  0  0
  5  1  1  0  0  0
  5  6  2  0  0  0
  1  2  2  0  0  0
  2 19  1  0  0  0
 19 20  1  0  0  0
 20 21  2  0  0  0
 20 23  1  0  0  0
 23 24  1  0  0  0
 24 25  1  0  0  0
 25 27  1  0  0  0
 27 28  2  0  0  0
 28 29  1  0  0  0
 29 30  2  0  0  0
 30 31  1  0  0  0
 30 32  1  0  0  0
 32 33  2  0  0  0
 33 34  1  0  0  0
 33 27  1  0  0  0
  6  7  1  0  0  0
  7  8  2  0  0  0
  8 11  1  0  0  0
  8  3  1  0  0  0
 11 12  1  0  0  0
 12 13  1  0  0  0
 13 14  2  0  0  0
 14 15  1  0  0  0
 15 16  2  0  0  0
 16 17  1  0  0  0
 17 18  2  0  0  0
 18 13  1  0  0  0
 19 22  1  0  0  0
 25 26  1  0  0  0
 31 35  1  0  0  0
 34 36  1  0  0  0
M  END
>  <minimizedAffinity>
-6.78313

>  <minimizedRMSD>
3.08398

$$$$
MolPort-001-747-902 12603590 CSSS00159281796 MCULE-9715585625 PubChem-25390209 ZINC000012603590 ZINC12603590


 31 32  0  0  0  0  0  0  0  0999 V2000
    1.3340   20.9206   68.3893 C   0  0  0  0  0  0  0  0  0  0  0  0
    2.6122   20.8072   68.9607 O   0  0  0  0  0  0  0  0  0  0  0  0
    2.9418   19.4448   68.8853 C   0  0  0  0  0  0  0  0  0  0  0  0
    1.6697   18.6492   69.0283 C   0  0  0  0  0  0  0  0  0  0  0  0
    1.7337   17.4960   68.2411 O   0  0  0  0  0  0  0  0  0  0  0  0
    0.5987   19.6056   68.5612 C   0  0  0  0  0  0  0  0  0  0  0  0
    0.0517   19.2195   67.3342 O   0  0  0  0  0  0  0  0  0  0  0  0
    1.9015   17.7433   67.3183 H   0  0  0  0  0  0  0  0  0  0  0  0
    0.7556   19.1658   66.6689 H   0  0  0  0  0  0  0  0  0  0  0  0
    0.5778   22.0582   69.0593 C   0  0  0  0  0  0  0  0  0  0  0  0
   -3.1848   22.2248   68.4183 N   0  0  0  0  0  0  0  0  0  0  0  0
   -1.9523   22.0852   69.1281 C   0  0  0  0  0  0  0  0  0  0  0  0
   -1.9535   21.8199   70.3612 O   0  0  0  0  0  0  0  0  0  0  0  0
   -0.7193   22.2519   68.4266 N   0  0  0  0  0  0  0  0  0  0  0  0
   -3.1524   22.4120   67.4523 H   0  0  0  0  0  0  0  0  0  0  0  0
   -0.7476   22.5082   67.4765 H   0  0  0  0  0  0  0  0  0  0  0  0
   -4.8451   23.3983   69.7631 C   0  0  0  0  0  0  0  0  0  0  0  0
   -4.4862   22.1028   69.0596 C   0  0  0  0  0  0  0  0  0  0  0  0
   -5.5353   21.8031   68.0101 C   0  0  0  0  0  0  0  0  0  0  0  0
    3.9068   19.0761   70.0010 C   0  0  0  0  0  0  0  0  0  0  0  0
    5.3185   19.0736   69.5046 C   0  0  0  0  0  0  0  0  0  0  0  0
    5.6356   18.2929   68.5667 O   0  0  0  0  0  0  0  0  0  0  0  0
    6.3052   19.9390   70.0904 N   0  0  0  0  0  0  0  0  0  0  0  0
    5.9231   20.9482   71.0655 C   0  0  0  0  0  0  0  0  0  0  0  0
    7.6919   19.9176   69.6402 C   0  0  0  0  0  0  0  0  0  0  0  0
    8.6106   19.6173   70.7774 C   0  0  0  0  0  0  0  0  0  0  0  0
    9.9172   20.1175   70.7714 C   0  0  0  0  0  0  0  0  0  0  0  0
   10.7825   19.8296   71.8314 C   0  0  0  0  0  0  0  0  0  0  0  0
   10.3425   19.0403   72.8985 C   0  0  0  0  0  0  0  0  0  0  0  0
    9.0373   18.5386   72.9057 C   0  0  0  0  0  0  0  0  0  0  0  0
    8.1720   18.8263   71.8459 C   0  0  0  0  0  0  0  0  0  0  0  0
 17 18  1  0  0  0
 18 19  1  0  0  0
 18 11  1  0  0  0
 11 12  1  0  0  0
 12 13  2  0  0  0
 12 14  1  0  0  0
 14 10  1  0  0  0
  1 10  1  0  0  0
  1  2  1  0  0  0
  2  3  1  0  0  0
  3 20  1  0  0  0
  3  4  1  0  0  0
 20 21  1  0  0  0
 21 22  2  0  0  0
 21 23  1  0  0  0
 23 24  1  0  0  0
 23 25  1  0  0  0
 25 26  1  0  0  0
 26 27  2  0  0  0
 27 28  1  0  0  0
 28 29  2  0  0  0
 29 30  1  0  0  0
 30 31  2  0  0  0
 31 26  1  0  0  0
  4  5  1  0  0  0
  4  6  1  0  0  0
  6  7  1  0  0  0
  6  1  1  0  0  0
 11 15  1  0  0  0
 14 16  1  0  0  0
  5  8  1  0  0  0
  7  9  1  0  0  0
M  END
>  <minimizedAffinity>
-6.78167

>  <minimizedRMSD>
3.61150

$$$$
Molport-053-106-470 CHEMBL276531 LN02221385 MCULE-4821788083 MCULE-8961254316 PubChem-44271674 ZINC000004533843


 33 32  0  0  0  0  0  0  0  0999 V2000
    1.7381   19.6240   70.4567 C   0  0  0  0  0  0  0  0  0  0  0  0
   -0.1579   21.0382   69.5524 C   0  0  0  0  0  0  0  0  0  0  0  0
   -0.4373   21.4530   70.7110 O   0  0  0  0  0  0  0  0  0  0  0  0
    0.9224   20.1220   69.3585 N   0  0  0  0  0  0  0  0  0  0  0  0
    1.1228   19.8152   68.4448 H   0  0  0  0  0  0  0  0  0  0  0  0
   -2.3404   21.7350   68.7271 N   0  0  0  0  0  0  0  0  0  0  0  0
   -0.9510   21.4932   68.3652 C   0  0  0  0  0  0  0  0  0  0  0  0
   -2.8576   22.0429   67.9036 H   0  0  0  0  0  0  0  0  0  0  0  0
   -2.3837   22.4576   69.4456 H   0  0  0  0  0  0  0  0  0  0  0  0
   -0.3385   22.7622   67.7891 C   0  0  0  0  0  0  0  0  0  0  0  0
   -1.3591   23.5629   67.0532 C   0  0  0  0  0  0  0  0  0  0  0  0
   -1.6423   23.2862   65.8582 O   0  0  0  0  0  0  0  0  0  0  0  0
   -1.9873   24.6279   67.6841 O   0  0  0  0  0  0  0  0  0  0  0  0
   -1.7777   24.8353   68.5735 H   0  0  0  0  0  0  0  0  0  0  0  0
    2.9446   18.9334   69.9096 C   0  0  0  0  0  0  0  0  0  0  0  0
    2.8209   18.0372   69.0304 O   0  0  0  0  0  0  0  0  0  0  0  0
    4.2380   19.3094   70.3847 N   0  0  0  0  0  0  0  0  0  0  0  0
    4.3004   19.9871   71.0961 H   0  0  0  0  0  0  0  0  0  0  0  0
    5.4698   18.7318   69.8603 C   0  0  0  0  0  0  0  0  0  0  0  0
    6.5484   18.7642   70.8961 C   0  0  0  0  0  0  0  0  0  0  0  0
    6.7197   19.7832   71.6164 O   0  0  0  0  0  0  0  0  0  0  0  0
    7.3593   17.6518   71.0746 O   0  0  0  0  0  0  0  0  0  0  0  0
    7.2356   16.8915   70.5411 H   0  0  0  0  0  0  0  0  0  0  0  0
    5.9000   19.3979   68.5466 C   0  0  0  0  0  0  0  0  0  0  0  0
    5.6948   20.8802   68.5286 C   0  0  0  0  0  0  0  0  0  0  0  0
    6.6806   21.6484   68.6724 O   0  0  0  0  0  0  0  0  0  0  0  0
    4.4282   21.4134   68.3266 O   0  0  0  0  0  0  0  0  0  0  0  0
    3.6918   20.8441   68.2192 H   0  0  0  0  0  0  0  0  0  0  0  0
    0.9192   18.6777   71.3317 C   0  0  0  0  0  0  0  0  0  0  0  0
    1.6506   18.2510   72.5669 C   0  0  0  0  0  0  0  0  0  0  0  0
    1.2235   17.2679   73.2253 O   0  0  0  0  0  0  0  0  0  0  0  0
    2.7859   18.9253   73.0037 O   0  0  0  0  0  0  0  0  0  0  0  0
    3.1107   19.6586   72.5191 H   0  0  0  0  0  0  0  0  0  0  0  0
  7  6  1  0  0  0
  7 10  1  0  0  0
  7  2  1  0  0  0
 10 11  1  0  0  0
 11 12  2  0  0  0
 11 13  1  0  0  0
  2  3  2  0  0  0
  2  4  1  0  0  0
  1  4  1  0  0  0
  1 29  1  0  0  0
  1 15  1  0  0  0
 29 30  1  0  0  0
 30 31  2  0  0  0
 30 32  1  0  0  0
 15 16  2  0  0  0
 15 17  1  0  0  0
 19 17  1  0  0  0
 19 24  1  0  0  0
 19 20  1  0  0  0
 24 25  1  0  0  0
 25 26  2  0  0  0
 25 27  1  0  0  0
 20 21  2  0  0  0
 20 22  1  0  0  0
  6  8  1  0  0  0
  6  9  1  0  0  0
 13 14  1  0  0  0
  4  5  1  0  0  0
 32 33  1  0  0  0
 17 18  1  0  0  0
 27 28  1  0  0  0
 22 23  1  0  0  0
M  END
>  <minimizedAffinity>
-6.77892

>  <minimizedRMSD>
1.83835

$$$$
MolPort-046-418-727 39832216 CSSS00138413614 MCULE-6649232063 ZINC000039832216


 32 32  0  0  0  0  0  0  0  0999 V2000
    1.4046   18.4826   71.1287 C   0  0  0  0  0  0  0  0  0  0  0  0
    2.3933   19.5430   70.6742 C   0  0  0  0  0  0  0  0  0  0  0  0
    1.8576   20.2801   69.5384 N   0  0  0  0  0  0  0  0  0  0  0  0
    0.6422   21.0281   69.6064 C   0  0  0  0  0  0  0  0  0  0  0  0
   -0.0017   21.1002   70.6890 O   0  0  0  0  0  0  0  0  0  0  0  0
    2.3535   20.2622   68.6881 H   0  0  0  0  0  0  0  0  0  0  0  0
    0.1722   21.7671   68.3912 C   0  0  0  0  0  0  0  0  0  0  0  0
   -0.6761   20.9324   67.5531 N   0  0  0  0  0  0  0  0  0  0  0  0
   -1.5204   20.6812   68.0674 H   0  0  0  0  0  0  0  0  0  0  0  0
   -0.1705   20.0850   67.2949 H   0  0  0  0  0  0  0  0  0  0  0  0
   -0.5225   23.0856   68.7393 C   0  0  0  0  0  0  0  0  0  0  0  0
   -1.9601   23.1285   68.3249 C   0  0  0  0  0  0  0  0  0  0  0  0
   -2.4719   23.9260   67.3309 C   0  0  0  0  0  0  0  0  0  0  0  0
   -3.7978   23.7038   67.2812 N   0  0  0  0  0  0  0  0  0  0  0  0
   -4.0499   22.7914   68.2432 C   0  0  0  0  0  0  0  0  0  0  0  0
   -2.9391   22.4186   68.9090 N   0  0  0  0  0  0  0  0  0  0  0  0
   -4.4484   24.1198   66.6705 H   0  0  0  0  0  0  0  0  0  0  0  0
    3.6942   18.9162   70.3019 C   0  0  0  0  0  0  0  0  0  0  0  0
    3.8232   18.3268   69.1938 O   0  0  0  0  0  0  0  0  0  0  0  0
    4.7953   19.0061   71.2076 N   0  0  0  0  0  0  0  0  0  0  0  0
    4.6500   19.4241   72.0870 H   0  0  0  0  0  0  0  0  0  0  0  0
    6.1256   18.5045   70.8832 C   0  0  0  0  0  0  0  0  0  0  0  0
    7.0025   18.5358   72.0928 C   0  0  0  0  0  0  0  0  0  0  0  0
    7.9537   17.7185   72.1924 O   0  0  0  0  0  0  0  0  0  0  0  0
    6.7698   19.4494   73.1139 O   0  0  0  0  0  0  0  0  0  0  0  0
    6.0625   20.0600   73.0441 H   0  0  0  0  0  0  0  0  0  0  0  0
    6.7419   19.2714   69.7105 C   0  0  0  0  0  0  0  0  0  0  0  0
    6.6458   20.7823   69.8841 C   0  0  0  0  0  0  0  0  0  0  0  0
    6.4955   21.4446   68.5595 C   0  0  0  0  0  0  0  0  0  0  0  0
    7.4986   21.9311   67.9747 O   0  0  0  0  0  0  0  0  0  0  0  0
    5.2399   21.5413   67.9753 O   0  0  0  0  0  0  0  0  0  0  0  0
    4.4922   21.1797   68.4092 H   0  0  0  0  0  0  0  0  0  0  0  0
  2  1  1  0  0  0
  2  3  1  0  0  0
  3  4  1  0  0  0
  4  5  2  0  0  0
  4  7  1  0  0  0
  7  8  1  0  0  0
  7 11  1  0  0  0
 11 12  1  0  0  0
 12 13  2  0  0  0
 13 14  1  0  0  0
 14 15  1  0  0  0
 15 16  2  0  0  0
  2 18  1  0  0  0
 18 19  2  0  0  0
 18 20  1  0  0  0
 20 22  1  0  0  0
 22 27  1  0  0  0
 27 28  1  0  0  0
 28 29  1  0  0  0
 29 30  2  0  0  0
 29 31  1  0  0  0
 22 23  1  0  0  0
 23 24  2  0  0  0
 23 25  1  0  0  0
 16 12  1  0  0  0
  3  6  1  0  0  0
  8  9  1  0  0  0
  8 10  1  0  0  0
 14 17  1  0  0  0
 20 21  1  0  0  0
 31 32  1  0  0  0
 25 26  1  0  0  0
M  END
>  <minimizedAffinity>
-6.76628

>  <minimizedRMSD>
2.21978

$$$$
MolPort-027-850-494 CSSS00132622161 MCULE-4688492048 PubChem-71708244


 28 30  0  0  0  0  0  0  0  0999 V2000
    1.3082   18.7690   69.1663 C   0  0  0  0  0  0  0  0  0  0  0  0
    0.2354   21.0052   68.6979 N   0  0  0  0  0  0  0  0  0  0  0  0
    0.8353   20.1036   69.6308 C   0  0  0  0  0  0  0  0  0  0  0  0
    0.9962   20.4374   70.8349 O   0  0  0  0  0  0  0  0  0  0  0  0
    0.1577   20.7260   67.7571 H   0  0  0  0  0  0  0  0  0  0  0  0
   -0.2659   22.3188   69.0780 C   0  0  0  0  0  0  0  0  0  0  0  0
   -1.7590   22.3505   69.0000 C   0  0  0  0  0  0  0  0  0  0  0  0
   -2.6627   21.8775   69.9338 C   0  0  0  0  0  0  0  0  0  0  0  0
   -2.3314   21.2458   71.2403 C   0  0  0  0  0  0  0  0  0  0  0  0
   -3.9218   22.0745   69.4936 N   0  0  0  0  0  0  0  0  0  0  0  0
   -3.8359   22.6571   68.3076 N   0  0  0  0  0  0  0  0  0  0  0  0
   -4.9919   23.0291   67.5096 C   0  0  0  0  0  0  0  0  0  0  0  0
   -2.5433   22.8396   67.9761 C   0  0  0  0  0  0  0  0  0  0  0  0
   -2.0614   23.4647   66.7098 C   0  0  0  0  0  0  0  0  0  0  0  0
    2.8264   18.7159   69.1437 C   0  0  0  0  0  0  0  0  0  0  0  0
    3.3515   18.8844   70.4896 N   0  0  0  0  0  0  0  0  0  0  0  0
    2.8568   18.4961   71.2470 H   0  0  0  0  0  0  0  0  0  0  0  0
    4.5626   19.5959   70.7456 C   0  0  0  0  0  0  0  0  0  0  0  0
    5.0427   19.7496   72.0384 C   0  0  0  0  0  0  0  0  0  0  0  0
    4.5302   19.3115   73.1958 N   0  0  0  0  0  0  0  0  0  0  0  0
    5.4315   19.7642   74.1114 C   0  0  0  0  0  0  0  0  0  0  0  0
    6.4704   20.4584   73.5694 N   0  0  0  0  0  0  0  0  0  0  0  0
    6.1868   20.4257   72.2620 C   0  0  0  0  0  0  0  0  0  0  0  0
    6.9119   20.9783   71.2600 N   0  0  0  0  0  0  0  0  0  0  0  0
    6.4529   20.8363   69.9794 C   0  0  0  0  0  0  0  0  0  0  0  0
    7.3539   21.5324   68.6505 Cl  0  0  0  0  0  0  0  0  0  0  0  0
    5.2903   20.1519   69.7298 N   0  0  0  0  0  0  0  0  0  0  0  0
    3.7076   18.7921   73.3470 H   0  0  0  0  0  0  0  0  0  0  0  0
  7  6  1  0  0  0
  6  2  1  0  0  0
  2  3  1  0  0  0
  3  4  2  0  0  0
  3  1  1  0  0  0
  1 15  1  0  0  0
 15 16  1  0  0  0
 16 18  1  0  0  0
 18 19  2  0  0  0
 19 20  1  0  0  0
 20 21  1  0  0  0
 21 22  2  0  0  0
 22 23  1  0  0  0
 23 24  2  0  0  0
 24 25  1  0  0  0
 25 26  1  0  0  0
 25 27  2  0  0  0
  7  8  1  0  0  0
  8  9  1  0  0  0
  8 10  2  0  0  0
 10 11  1  0  0  0
 11 12  1  0  0  0
 11 13  1  0  0  0
 13 14  1  0  0  0
 13  7  2  0  0  0
 27 18  1  0  0  0
 23 19  1  0  0  0
  2  5  1  0  0  0
 16 17  1  0  0  0
 20 28  1  0  0  0
M  END
>  <minimizedAffinity>
-6.76328

>  <minimizedRMSD>
1.93241

$$$$
MolPort-007-823-837 ChemDiv-G070-0764 MCULE-9049134181 PubChem-20938451 ZINC000009301026 ZINC09301026


 31 32  0  0  0  0  0  0  0  0999 V2000
    4.3976   19.9947   69.0341 S   0  0  0  0  0  0  0  0  0  0  0  0
    5.0486   21.2590   68.5441 O   0  0  0  0  0  0  0  0  0  0  0  0
    4.8201   18.8476   68.1610 O   0  0  0  0  0  0  0  0  0  0  0  0
    6.1952   19.6694   71.2032 C   0  0  0  0  0  0  0  0  0  0  0  0
    6.0696   19.3813   72.5550 C   0  0  0  0  0  0  0  0  0  0  0  0
    7.1855   19.2505   73.5338 C   0  0  0  0  0  0  0  0  0  0  0  0
    4.7828   19.1814   72.8974 N   0  0  0  0  0  0  0  0  0  0  0  0
    4.0742   19.3534   71.7660 C   0  0  0  0  0  0  0  0  0  0  0  0
    2.5967   19.1763   71.7163 C   0  0  0  0  0  0  0  0  0  0  0  0
    4.9008   19.6660   70.6982 C   0  0  0  0  0  0  0  0  0  0  0  0
    4.4331   18.9563   73.7897 H   0  0  0  0  0  0  0  0  0  0  0  0
    7.4610   19.8797   70.4680 C   0  0  0  0  0  0  0  0  0  0  0  0
    7.5779   19.4856   69.2763 O   0  0  0  0  0  0  0  0  0  0  0  0
    8.5380   20.4978   71.1064 O   0  0  0  0  0  0  0  0  0  0  0  0
   10.6260   19.9824   72.1602 C   0  0  0  0  0  0  0  0  0  0  0  0
    9.8820   20.1203   70.8492 C   0  0  0  0  0  0  0  0  0  0  0  0
    2.6778   20.1756   68.9276 N   0  0  0  0  0  0  0  0  0  0  0  0
    2.2235   19.5865   69.6254 H   0  0  0  0  0  0  0  0  0  0  0  0
    2.3591   21.5728   69.1771 C   0  0  0  0  0  0  0  0  0  0  0  0
    0.8835   21.7576   69.1918 C   0  0  0  0  0  0  0  0  0  0  0  0
    0.2176   21.3081   70.1615 O   0  0  0  0  0  0  0  0  0  0  0  0
    0.2477   22.4517   68.1101 N   0  0  0  0  0  0  0  0  0  0  0  0
    0.8354   22.7895   67.3962 H   0  0  0  0  0  0  0  0  0  0  0  0
   -1.1559   22.7046   67.9608 C   0  0  0  0  0  0  0  0  0  0  0  0
   -1.5807   23.5630   66.9413 C   0  0  0  0  0  0  0  0  0  0  0  0
   -2.9408   23.8323   66.7636 C   0  0  0  0  0  0  0  0  0  0  0  0
   -3.8879   23.2434   67.6058 C   0  0  0  0  0  0  0  0  0  0  0  0
   -5.2042   23.5122   67.4236 F   0  0  0  0  0  0  0  0  0  0  0  0
   -3.4716   22.3818   68.6291 C   0  0  0  0  0  0  0  0  0  0  0  0
   -4.6400   21.6302   69.6984 Cl  0  0  0  0  0  0  0  0  0  0  0  0
   -2.1106   22.1152   68.8034 C   0  0  0  0  0  0  0  0  0  0  0  0
 15 16  1  0  0  0
 16 14  1  0  0  0
 14 12  1  0  0  0
 12 13  2  0  0  0
 12  4  1  0  0  0
  4  5  2  0  0  0
  5  6  1  0  0  0
  5  7  1  0  0  0
  7  8  1  0  0  0
  8  9  1  0  0  0
  8 10  2  0  0  0
 10  1  1  0  0  0
 10  4  1  0  0  0
  1  2  2  0  0  0
  1  3  2  0  0  0
  1 17  1  0  0  0
 17 19  1  0  0  0
 19 20  1  0  0  0
 20 21  2  0  0  0
 20 22  1  0  0  0
 22 24  1  0  0  0
 24 25  2  0  0  0
 25 26  1  0  0  0
 26 27  2  0  0  0
 27 28  1  0  0  0
 27 29  1  0  0  0
 29 30  1  0  0  0
 29 31  2  0  0  0
 31 24  1  0  0  0
  7 11  1  0  0  0
 17 18  1  0  0  0
 22 23  1  0  0  0
M  END
>  <minimizedAffinity>
-6.76217

>  <minimizedRMSD>
1.27879

$$$$
MolPort-051-739-208


 26 27  0  0  0  0  0  0  0  0999 V2000
    4.2048   18.0793   69.0216 O   0  0  0  0  0  0  0  0  0  0  0  0
    3.5758   18.9727   69.8970 C   0  0  0  0  0  0  0  0  0  0  0  0
    2.0929   19.0355   69.6879 C   0  0  0  0  0  0  0  0  0  0  0  0
    1.7870   18.9101   68.3261 O   0  0  0  0  0  0  0  0  0  0  0  0
    1.8036   20.4458   70.1815 C   0  0  0  0  0  0  0  0  0  0  0  0
    2.9367   21.2683   69.9965 O   0  0  0  0  0  0  0  0  0  0  0  0
    4.0277   20.4170   69.7151 C   0  0  0  0  0  0  0  0  0  0  0  0
    3.8770   17.1812   69.1855 H   0  0  0  0  0  0  0  0  0  0  0  0
    2.2693   19.5848   67.8229 H   0  0  0  0  0  0  0  0  0  0  0  0
    0.6039   21.0341   69.5740 N   0  0  0  0  0  0  0  0  0  0  0  0
    0.7161   21.8014   68.4508 C   0  0  0  0  0  0  0  0  0  0  0  0
   -0.4151   22.3504   67.8511 C   0  0  0  0  0  0  0  0  0  0  0  0
   -1.6566   22.0950   68.4251 C   0  0  0  0  0  0  0  0  0  0  0  0
   -2.7004   22.5744   67.9094 O   0  0  0  0  0  0  0  0  0  0  0  0
   -1.7414   21.3257   69.5404 N   0  0  0  0  0  0  0  0  0  0  0  0
   -0.6297   20.7966   70.1167 C   0  0  0  0  0  0  0  0  0  0  0  0
   -0.7503   20.0880   71.1523 O   0  0  0  0  0  0  0  0  0  0  0  0
   -2.6238   21.1478   69.9390 H   0  0  0  0  0  0  0  0  0  0  0  0
    4.5365   20.7040   68.3045 C   0  0  0  0  0  0  0  0  0  0  0  0
    5.6296   21.5706   68.3626 O   0  0  0  0  0  0  0  0  0  0  0  0
    6.9953   20.5697   68.4715 P   0  0  0  0  0  0  0  0  0  0  0  0
    7.5110   20.5529   69.8948 O   0  0  0  0  0  0  0  0  0  0  0  0
    6.6035   18.9930   67.9898 O   0  0  0  0  0  0  0  0  0  0  0  0
    6.5206   17.9158   69.7159 Na  0  0  0  0  0  0  0  0  0  0  0  0
    8.2023   21.1741   67.4537 O   0  0  0  0  0  0  0  0  0  0  0  0
    9.2401   22.4818   68.6223 Na  0  0  0  0  0  0  0  0  0  0  0  0
  2  1  1  0  0  0
  2  3  1  0  0  0
  3  4  1  0  0  0
  3  5  1  0  0  0
  5  6  1  0  0  0
  6  7  1  0  0  0
  7 19  1  0  0  0
 19 20  1  0  0  0
 20 21  1  0  0  0
 21 22  2  0  0  0
 21 23  1  0  0  0
 23 24  1  0  0  0
 21 25  1  0  0  0
 25 26  1  0  0  0
  5 10  1  0  0  0
 10 11  1  0  0  0
 11 12  2  0  0  0
 12 13  1  0  0  0
 13 14  2  0  0  0
 13 15  1  0  0  0
 15 16  1  0  0  0
 16 17  2  0  0  0
  7  2  1  0  0  0
 16 10  1  0  0  0
  1  8  1  0  0  0
  4  9  1  0  0  0
 15 18  1  0  0  0
M  END
>  <minimizedAffinity>
-6.75278

>  <minimizedRMSD>
1.97727

$$$$
MolPort-000-856-183 CSSS00132898956 MCULE-4565769788 PubChem-16424012


 33 36  0  0  0  0  0  0  0  0999 V2000
    1.8850   18.6823   70.3823 C   0  0  0  0  0  0  0  0  0  0  0  0
    0.4761   18.8029   70.5853 N   0  0  0  0  0  0  0  0  0  0  0  0
    2.6764   18.6807   71.3636 O   0  0  0  0  0  0  0  0  0  0  0  0
   -0.1187   18.7477   69.8028 H   0  0  0  0  0  0  0  0  0  0  0  0
    2.4148   18.5476   68.9946 C   0  0  0  0  0  0  0  0  0  0  0  0
    3.6398   19.4249   68.7927 C   0  0  0  0  0  0  0  0  0  0  0  0
    4.8500   18.6714   69.0809 N   0  0  0  0  0  0  0  0  0  0  0  0
    4.8492   17.6962   68.9457 H   0  0  0  0  0  0  0  0  0  0  0  0
    8.3402   20.5388   70.4898 N   0  0  0  0  0  0  0  0  0  0  0  0
    8.0748   20.4835   69.1492 C   0  0  0  0  0  0  0  0  0  0  0  0
    9.1952   21.1982   68.0106 Cl  0  0  0  0  0  0  0  0  0  0  0  0
    6.9352   19.8722   68.6912 N   0  0  0  0  0  0  0  0  0  0  0  0
    6.0390   19.3044   69.5542 C   0  0  0  0  0  0  0  0  0  0  0  0
    6.3237   19.3697   70.9107 C   0  0  0  0  0  0  0  0  0  0  0  0
    5.6231   18.9026   71.9523 N   0  0  0  0  0  0  0  0  0  0  0  0
    6.3937   19.2637   73.0161 C   0  0  0  0  0  0  0  0  0  0  0  0
    7.5317   19.9295   72.6747 N   0  0  0  0  0  0  0  0  0  0  0  0
    7.4487   19.9750   71.3399 C   0  0  0  0  0  0  0  0  0  0  0  0
    4.7655   18.4191   71.9498 H   0  0  0  0  0  0  0  0  0  0  0  0
   -0.1192   19.0040   71.9005 C   0  0  0  0  0  0  0  0  0  0  0  0
   -0.9945   20.2522   71.9134 C   0  0  0  0  0  0  0  0  0  0  0  0
   -0.8818   21.0092   70.6299 C   0  0  0  0  0  0  0  0  0  0  0  0
    0.2818   21.1982   69.8935 C   0  0  0  0  0  0  0  0  0  0  0  0
    0.0213   21.9413   68.7877 N   0  0  0  0  0  0  0  0  0  0  0  0
   -1.2957   22.2123   68.8426 C   0  0  0  0  0  0  0  0  0  0  0  0
   -2.0316   22.9544   67.9216 C   0  0  0  0  0  0  0  0  0  0  0  0
   -3.4079   23.1297   68.1602 C   0  0  0  0  0  0  0  0  0  0  0  0
   -4.0031   22.5572   69.3138 C   0  0  0  0  0  0  0  0  0  0  0  0
   -3.2357   21.8131   70.2267 C   0  0  0  0  0  0  0  0  0  0  0  0
   -1.8789   21.6638   69.9505 C   0  0  0  0  0  0  0  0  0  0  0  0
    0.6601   22.2222   68.0933 H   0  0  0  0  0  0  0  0  0  0  0  0
   -4.1592   23.8713   67.2446 O   0  0  0  0  0  0  0  0  0  0  0  0
   -5.4297   23.4457   66.7715 C   0  0  0  0  0  0  0  0  0  0  0  0
  9 10  2  0  0  0
 10 11  1  0  0  0
 10 12  1  0  0  0
 12 13  2  0  0  0
 13 14  1  0  0  0
 14 15  1  0  0  0
 15 16  1  0  0  0
 16 17  2  0  0  0
 17 18  1  0  0  0
 13  7  1  0  0  0
  7  6  1  0  0  0
  6  5  1  0  0  0
  5  1  1  0  0  0
  1  2  1  0  0  0
  2 20  1  0  0  0
 20 21  1  0  0  0
 21 22  1  0  0  0
 22 23  2  0  0  0
 23 24  1  0  0  0
 24 25  1  0  0  0
 25 26  2  0  0  0
 26 27  1  0  0  0
 27 32  1  0  0  0
 32 33  1  0  0  0
 27 28  2  0  0  0
 28 29  1  0  0  0
 29 30  2  0  0  0
  1  3  2  0  0  0
 18  9  1  0  0  0
 30 22  1  0  0  0
 18 14  2  0  0  0
 30 25  1  0  0  0
 15 19  1  0  0  0
  7  8  1  0  0  0
  2  4  1  0  0  0
 24 31  1  0  0  0
M  END
>  <minimizedAffinity>
-6.74653

>  <minimizedRMSD>
4.26564

$$$$
MolPort-027-717-737 LN00374141 MCULE-4373689144 PubChem-6807220


 30 29  0  0  0  0  0  0  0  0999 V2000
    5.9284   19.7493   70.4186 C   0  0  0  0  0  0  0  0  0  0  0  0
    5.8997   19.6695   71.7126 N   0  0  0  0  0  0  0  0  0  0  0  0
    4.8338   19.0687   72.3978 N   0  0  0  0  0  0  0  0  0  0  0  0
    3.9479   19.8432   73.2029 C   0  0  0  0  0  0  0  0  0  0  0  0
    2.8755   19.2060   73.8856 N   0  0  0  0  0  0  0  0  0  0  0  0
    4.1085   21.0873   73.3132 O   0  0  0  0  0  0  0  0  0  0  0  0
    4.6951   18.0970   72.3218 H   0  0  0  0  0  0  0  0  0  0  0  0
    2.7471   18.2336   73.8016 H   0  0  0  0  0  0  0  0  0  0  0  0
    2.2616   19.7374   74.4423 H   0  0  0  0  0  0  0  0  0  0  0  0
    4.7942   19.1934   69.5935 C   0  0  0  0  0  0  0  0  0  0  0  0
    5.2812   18.7378   68.3663 O   0  0  0  0  0  0  0  0  0  0  0  0
    5.6707   19.4796   67.8775 H   0  0  0  0  0  0  0  0  0  0  0  0
    3.6712   20.2242   69.3960 C   0  0  0  0  0  0  0  0  0  0  0  0
    3.9341   21.3681   70.1530 O   0  0  0  0  0  0  0  0  0  0  0  0
    3.9435   21.1372   71.0951 H   0  0  0  0  0  0  0  0  0  0  0  0
    2.2862   19.6917   69.7706 C   0  0  0  0  0  0  0  0  0  0  0  0
    2.3822   18.6366   70.6823 O   0  0  0  0  0  0  0  0  0  0  0  0
    2.8637   17.8998   70.2746 H   0  0  0  0  0  0  0  0  0  0  0  0
    1.5027   19.2645   68.5408 C   0  0  0  0  0  0  0  0  0  0  0  0
    1.0603   20.3900   67.8459 O   0  0  0  0  0  0  0  0  0  0  0  0
    0.4857   20.9197   68.4205 H   0  0  0  0  0  0  0  0  0  0  0  0
    6.9749   21.0638   68.6816 N   0  0  0  0  0  0  0  0  0  0  0  0
    7.0857   20.4040   69.7910 C   0  0  0  0  0  0  0  0  0  0  0  0
   10.4301   22.1636   67.5615 N   0  0  0  0  0  0  0  0  0  0  0  0
    9.4458   21.4313   68.2806 C   0  0  0  0  0  0  0  0  0  0  0  0
    9.8101   20.5555   69.1086 O   0  0  0  0  0  0  0  0  0  0  0  0
    8.0567   21.7056   68.0483 N   0  0  0  0  0  0  0  0  0  0  0  0
   11.3860   21.9835   67.7131 H   0  0  0  0  0  0  0  0  0  0  0  0
   10.1556   22.8508   66.9121 H   0  0  0  0  0  0  0  0  0  0  0  0
    7.8409   22.4036   67.3885 H   0  0  0  0  0  0  0  0  0  0  0  0
 24 25  1  0  0  0
 25 26  2  0  0  0
 25 27  1  0  0  0
 27 22  1  0  0  0
 22 23  2  0  0  0
 23  1  1  0  0  0
  1  2  2  0  0  0
  2  3  1  0  0  0
  3  4  1  0  0  0
  4  5  1  0  0  0
  4  6  2  0  0  0
 10  1  1  0  0  0
 10 11  1  0  0  0
 10 13  1  0  0  0
 13 14  1  0  0  0
 13 16  1  0  0  0
 16 17  1  0  0  0
 16 19  1  0  0  0
 19 20  1  0  0  0
 24 28  1  0  0  0
 24 29  1  0  0  0
 27 30  1  0  0  0
  3  7  1  0  0  0
  5  8  1  0  0  0
  5  9  1  0  0  0
 11 12  1  0  0  0
 14 15  1  0  0  0
 17 18  1  0  0  0
 20 21  1  0  0  0
M  END
>  <minimizedAffinity>
-6.73913

>  <minimizedRMSD>
2.40150

$$$$
MolPort-049-215-108 CSSS00102526110 MCULE-5975225598 MCULE-6614065771 PubChem-21123015 ZINC000140277033


 31 31  0  0  0  0  0  0  0  0999 V2000
    3.3643   20.4128   68.6364 O   0  0  0  0  0  0  0  0  0  0  0  0
    6.6469   21.1276   69.6048 C   0  0  0  0  0  0  0  0  0  0  0  0
    7.1737   19.8099   70.1919 C   0  0  0  0  0  0  0  0  0  0  0  0
    6.0178   19.1193   70.9219 C   0  0  0  0  0  0  0  0  0  0  0  0
    4.7620   19.0636   70.0473 C   0  0  0  0  0  0  0  0  0  0  0  0
    4.4960   20.4545   69.4531 C   0  0  0  0  0  0  0  0  0  0  0  0
    5.6026   20.8810   68.6935 O   0  0  0  0  0  0  0  0  0  0  0  0
    3.6723   18.6642   70.8227 O   0  0  0  0  0  0  0  0  0  0  0  0
    6.3892   17.8342   71.3220 O   0  0  0  0  0  0  0  0  0  0  0  0
    7.6657   18.9821   69.1769 O   0  0  0  0  0  0  0  0  0  0  0  0
    3.5383   19.2993   71.5436 H   0  0  0  0  0  0  0  0  0  0  0  0
    6.5996   17.3003   70.5400 H   0  0  0  0  0  0  0  0  0  0  0  0
    6.9551   18.7867   68.5461 H   0  0  0  0  0  0  0  0  0  0  0  0
    7.7477   21.9643   68.9616 C   0  0  0  0  0  0  0  0  0  0  0  0
    7.9485   21.5888   67.6318 O   0  0  0  0  0  0  0  0  0  0  0  0
    7.1305   21.7282   67.1294 H   0  0  0  0  0  0  0  0  0  0  0  0
    2.4470   21.2629   69.2569 C   0  0  0  0  0  0  0  0  0  0  0  0
    1.0402   20.9332   68.7895 C   0  0  0  0  0  0  0  0  0  0  0  0
    0.6590   19.6770   69.2691 O   0  0  0  0  0  0  0  0  0  0  0  0
    0.6671   19.6850   70.2390 H   0  0  0  0  0  0  0  0  0  0  0  0
    0.0599   22.0081   69.2585 C   0  0  0  0  0  0  0  0  0  0  0  0
   -0.5772   21.5923   70.4320 O   0  0  0  0  0  0  0  0  0  0  0  0
   -1.0800   20.7815   70.2571 H   0  0  0  0  0  0  0  0  0  0  0  0
   -0.9685   22.3383   68.1685 C   0  0  0  0  0  0  0  0  0  0  0  0
   -0.3003   22.6157   66.9715 O   0  0  0  0  0  0  0  0  0  0  0  0
    0.2783   23.3844   67.0948 H   0  0  0  0  0  0  0  0  0  0  0  0
   -1.8370   23.5409   68.5610 C   0  0  0  0  0  0  0  0  0  0  0  0
   -1.6997   24.5710   67.6267 O   0  0  0  0  0  0  0  0  0  0  0  0
   -2.0071   24.2639   66.7594 H   0  0  0  0  0  0  0  0  0  0  0  0
   -3.2834   23.1647   68.6648 C   0  0  0  0  0  0  0  0  0  0  0  0
   -3.7749   22.3513   67.8979 O   0  0  0  0  0  0  0  0  0  0  0  0
 14 15  1  0  0  0
  2 14  1  0  0  0
  2  3  1  0  0  0
  3  4  1  0  0  0
  3 10  1  0  0  0
  4  5  1  0  0  0
  4  9  1  0  0  0
  5  6  1  0  0  0
  5  8  1  0  0  0
  6  7  1  0  0  0
  6  1  1  0  0  0
  7  2  1  0  0  0
  1 17  1  0  0  0
 18 17  1  0  0  0
 18 21  1  0  0  0
 18 19  1  0  0  0
 21 24  1  0  0  0
 21 22  1  0  0  0
 24 27  1  0  0  0
 24 25  1  0  0  0
 27 30  1  0  0  0
 27 28  1  0  0  0
 30 31  2  0  0  0
 28 29  1  0  0  0
 25 26  1  0  0  0
 22 23  1  0  0  0
 19 20  1  0  0  0
  8 11  1  0  0  0
  9 12  1  0  0  0
 10 13  1  0  0  0
 15 16  1  0  0  0
M  END
>  <minimizedAffinity>
-6.73467

>  <minimizedRMSD>
1.54555

$$$$
Molport-051-971-619 MCULE-9421225707


 30 30  0  0  0  0  0  0  0  0999 V2000
    0.4922   20.5811   70.3862 C   0  0  0  0  0  0  0  0  0  0  0  0
    1.6680   19.8613   70.0729 C   0  0  0  0  0  0  0  0  0  0  0  0
    2.0414   18.8200   70.8751 N   0  0  0  0  0  0  0  0  0  0  0  0
    1.3250   18.4886   71.9828 C   0  0  0  0  0  0  0  0  0  0  0  0
    1.6964   17.5261   72.7070 O   0  0  0  0  0  0  0  0  0  0  0  0
    0.2167   19.1992   72.3180 N   0  0  0  0  0  0  0  0  0  0  0  0
   -0.2071   20.2354   71.5484 C   0  0  0  0  0  0  0  0  0  0  0  0
   -1.2423   20.8756   71.8778 O   0  0  0  0  0  0  0  0  0  0  0  0
    2.9073   18.2752   70.6700 H   0  0  0  0  0  0  0  0  0  0  0  0
   -0.3198   18.9422   73.1783 H   0  0  0  0  0  0  0  0  0  0  0  0
   -0.8258   21.4867   68.5743 C   0  0  0  0  0  0  0  0  0  0  0  0
   -0.0055   21.6520   69.5670 N   0  0  0  0  0  0  0  0  0  0  0  0
   -1.3459   24.0099   68.3629 C   0  0  0  0  0  0  0  0  0  0  0  0
   -1.2753   22.6345   67.7752 C   0  0  0  0  0  0  0  0  0  0  0  0
   -1.6050   22.4550   66.5727 O   0  0  0  0  0  0  0  0  0  0  0  0
    2.5051   20.2721   68.9733 N   0  0  0  0  0  0  0  0  0  0  0  0
    2.1963   21.0669   68.3698 H   0  0  0  0  0  0  0  0  0  0  0  0
    3.8171   19.6930   68.6862 C   0  0  0  0  0  0  0  0  0  0  0  0
    4.9229   20.7586   68.8159 C   0  0  0  0  0  0  0  0  0  0  0  0
    4.7845   21.6878   67.7700 O   0  0  0  0  0  0  0  0  0  0  0  0
    4.1541   22.3885   68.0824 H   0  0  0  0  0  0  0  0  0  0  0  0
    6.3312   20.1150   68.7576 C   0  0  0  0  0  0  0  0  0  0  0  0
    6.4230   19.1190   69.7483 O   0  0  0  0  0  0  0  0  0  0  0  0
    6.3243   18.2401   69.2971 H   0  0  0  0  0  0  0  0  0  0  0  0
    7.4517   21.1612   68.9896 C   0  0  0  0  0  0  0  0  0  0  0  0
    7.7351   21.8224   67.7826 O   0  0  0  0  0  0  0  0  0  0  0  0
    8.1560   22.6903   68.0189 H   0  0  0  0  0  0  0  0  0  0  0  0
    8.7462   20.5077   69.5060 C   0  0  0  0  0  0  0  0  0  0  0  0
    8.7656   20.4982   70.9070 O   0  0  0  0  0  0  0  0  0  0  0  0
    9.6096   20.0460   71.1680 H   0  0  0  0  0  0  0  0  0  0  0  0
 13 14  1  0  0  0
 14 15  2  0  0  0
 14 11  1  0  0  0
 11 12  2  0  0  0
 12  1  1  0  0  0
  1  2  2  0  0  0
  2 16  1  0  0  0
 16 18  1  0  0  0
 18 19  1  0  0  0
 19 20  1  0  0  0
 19 22  1  0  0  0
 22 23  1  0  0  0
 22 25  1  0  0  0
 25 26  1  0  0  0
 25 28  1  0  0  0
 28 29  1  0  0  0
  2  3  1  0  0  0
  3  4  1  0  0  0
  4  5  2  0  0  0
  4  6  1  0  0  0
  6  7  1  0  0  0
  7  8  2  0  0  0
  7  1  1  0  0  0
 16 17  1  0  0  0
 20 21  1  0  0  0
 23 24  1  0  0  0
 26 27  1  0  0  0
 29 30  1  0  0  0
  3  9  1  0  0  0
  6 10  1  0  0  0
M  END
>  <minimizedAffinity>
-6.72905

>  <minimizedRMSD>
4.38175

$$$$
MolPort-000-656-256 MCULE-1190832282


 24 26  0  0  0  0  0  0  0  0999 V2000
    1.9994   19.1989   70.0322 C   0  0  0  0  0  0  0  0  0  0  0  0
    2.5295   18.7296   71.1881 N   0  0  0  0  0  0  0  0  0  0  0  0
    1.6682   18.2772   72.1498 C   0  0  0  0  0  0  0  0  0  0  0  0
    2.1332   17.8234   73.2648 N   0  0  0  0  0  0  0  0  0  0  0  0
    0.3123   18.3024   71.9358 N   0  0  0  0  0  0  0  0  0  0  0  0
   -0.2124   18.7755   70.7664 C   0  0  0  0  0  0  0  0  0  0  0  0
   -1.4571   18.7922   70.5802 O   0  0  0  0  0  0  0  0  0  0  0  0
    0.6707   19.2323   69.7987 C   0  0  0  0  0  0  0  0  0  0  0  0
    0.4202   19.7343   68.5748 N   0  0  0  0  0  0  0  0  0  0  0  0
    1.6656   20.0002   68.0862 C   0  0  0  0  0  0  0  0  0  0  0  0
    2.6480   19.6816   68.9660 N   0  0  0  0  0  0  0  0  0  0  0  0
    3.5035   18.7148   71.3309 H   0  0  0  0  0  0  0  0  0  0  0  0
    3.1049   17.8039   73.4214 H   0  0  0  0  0  0  0  0  0  0  0  0
   -0.2936   17.9732   72.6385 H   0  0  0  0  0  0  0  0  0  0  0  0
    4.0833   19.8199   68.7539 C   0  0  0  0  0  0  0  0  0  0  0  0
    4.7841   18.5014   68.9921 C   0  0  0  0  0  0  0  0  0  0  0  0
    6.0561   18.9095   69.6516 C   0  0  0  0  0  0  0  0  0  0  0  0
    5.7051   20.2357   70.2824 C   0  0  0  0  0  0  0  0  0  0  0  0
    4.6109   20.8097   69.6071 O   0  0  0  0  0  0  0  0  0  0  0  0
    6.3936   17.9863   70.6404 O   0  0  0  0  0  0  0  0  0  0  0  0
    5.6618   17.9072   71.2722 H   0  0  0  0  0  0  0  0  0  0  0  0
    6.8974   21.1829   70.2740 C   0  0  0  0  0  0  0  0  0  0  0  0
    7.0441   21.7798   69.0198 O   0  0  0  0  0  0  0  0  0  0  0  0
    7.1932   21.0936   68.3506 H   0  0  0  0  0  0  0  0  0  0  0  0
  1  2  1  0  0  0
  2  3  1  0  0  0
  3  4  2  0  0  0
  3  5  1  0  0  0
  5  6  1  0  0  0
  6  7  2  0  0  0
  6  8  1  0  0  0
  8  9  1  0  0  0
  9 10  2  0  0  0
 10 11  1  0  0  0
 11 15  1  0  0  0
 15 16  1  0  0  0
 16 17  1  0  0  0
 17 18  1  0  0  0
 18 22  1  0  0  0
 22 23  1  0  0  0
 18 19  1  0  0  0
 17 20  1  0  0  0
  8  1  2  0  0  0
 19 15  1  0  0  0
 11  1  1  0  0  0
  2 12  1  0  0  0
  4 13  1  0  0  0
  5 14  1  0  0  0
 23 24  1  0  0  0
 20 21  1  0  0  0
M  END
>  <minimizedAffinity>
-6.69348

>  <minimizedRMSD>
3.32338

$$$$
MolPort-046-697-158 CSSS00159277679 MCULE-2811073907 PubChem-138989878


 35 36  0  0  0  0  0  0  0  0999 V2000
   -2.4654   18.0887   70.6295 C   0  0  0  0  0  0  0  0  0  0  0  0
   -2.1786   19.0795   71.7602 C   0  0  0  0  0  0  0  0  0  0  0  0
   -2.7983   20.4506   71.5714 C   0  0  0  0  0  0  0  0  0  0  0  0
   -2.4826   20.9722   70.1562 C   0  0  0  0  0  0  0  0  0  0  0  0
   -0.9670   21.0965   69.9301 C   0  0  0  0  0  0  0  0  0  0  0  0
   -0.7012   21.1891   68.5644 O   0  0  0  0  0  0  0  0  0  0  0  0
   -0.1570   19.9347   70.5523 C   0  0  0  0  0  0  0  0  0  0  0  0
   -0.7317   19.4779   71.9295 C   0  0  0  0  0  0  0  0  0  0  0  0
   -0.9239   20.7151   72.8326 C   0  0  0  0  0  0  0  0  0  0  0  0
   -2.1804   21.2987   72.5206 O   0  0  0  0  0  0  0  0  0  0  0  0
   -0.9921   20.3761   68.1225 H   0  0  0  0  0  0  0  0  0  0  0  0
    0.1171   18.3810   72.5445 C   0  0  0  0  0  0  0  0  0  0  0  0
    1.4957   18.5360   72.6316 O   0  0  0  0  0  0  0  0  0  0  0  0
   -0.4094   17.3285   72.9955 O   0  0  0  0  0  0  0  0  0  0  0  0
    1.9017   19.3130   72.3007 H   0  0  0  0  0  0  0  0  0  0  0  0
   -0.8526   20.4458   74.3125 C   0  0  0  0  0  0  0  0  0  0  0  0
    0.4644   20.4938   75.0053 C   0  0  0  0  0  0  0  0  0  0  0  0
   -1.8640   20.1988   74.9503 O   0  0  0  0  0  0  0  0  0  0  0  0
    1.1826   20.3210   70.6687 O   0  0  0  0  0  0  0  0  0  0  0  0
    1.8704   19.5078   69.7649 C   0  0  0  0  0  0  0  0  0  0  0  0
    3.3674   19.6347   69.9928 C   0  0  0  0  0  0  0  0  0  0  0  0
    3.8080   18.5536   70.7597 O   0  0  0  0  0  0  0  0  0  0  0  0
    3.6237   17.7262   70.2882 H   0  0  0  0  0  0  0  0  0  0  0  0
    4.1063   19.6593   68.6567 C   0  0  0  0  0  0  0  0  0  0  0  0
    3.2343   20.0235   67.6252 O   0  0  0  0  0  0  0  0  0  0  0  0
    2.8930   20.9163   67.7906 H   0  0  0  0  0  0  0  0  0  0  0  0
    5.2987   20.6192   68.7030 C   0  0  0  0  0  0  0  0  0  0  0  0
    5.0968   21.6778   67.8118 O   0  0  0  0  0  0  0  0  0  0  0  0
    5.0260   21.3311   66.9086 H   0  0  0  0  0  0  0  0  0  0  0  0
    6.6080   19.8916   68.3877 C   0  0  0  0  0  0  0  0  0  0  0  0
    6.3734   18.5193   68.2849 O   0  0  0  0  0  0  0  0  0  0  0  0
    6.0346   18.1850   69.1301 H   0  0  0  0  0  0  0  0  0  0  0  0
    7.6414   20.1264   69.4786 C   0  0  0  0  0  0  0  0  0  0  0  0
    7.5339   21.4273   69.9712 O   0  0  0  0  0  0  0  0  0  0  0  0
    7.6884   22.0593   69.2517 H   0  0  0  0  0  0  0  0  0  0  0  0
  1  2  1  0  0  0
  2  3  1  0  0  0
  3  4  1  0  0  0
  4  5  1  0  0  0
  5  6  1  0  0  0
  5  7  1  0  0  0
  7 19  1  0  0  0
 19 20  1  0  0  0
 20 21  1  0  0  0
 21 22  1  0  0  0
 21 24  1  0  0  0
 24 25  1  0  0  0
 24 27  1  0  0  0
 27 28  1  0  0  0
 27 30  1  0  0  0
 30 31  1  0  0  0
 30 33  1  0  0  0
 33 34  1  0  0  0
  7  8  1  0  0  0
  8  9  1  0  0  0
  9 10  1  0  0  0
  9 16  1  0  0  0
 16 17  1  0  0  0
 16 18  2  0  0  0
  8 12  1  0  0  0
 12 13  1  0  0  0
 12 14  2  0  0  0
  8  2  1  0  0  0
 10  3  1  0  0  0
  6 11  1  0  0  0
 22 23  1  0  0  0
 25 26  1  0  0  0
 28 29  1  0  0  0
 31 32  1  0  0  0
 34 35  1  0  0  0
 13 15  1  0  0  0
M  END
>  <minimizedAffinity>
-6.69294

>  <minimizedRMSD>
3.59989

$$$$
MolPort-003-849-357 MolPort-005-938-426 MolPort-044-193-545 CSSS00102515481 CSSS06256037830 LN01290614 MCULE-1168293239 MCULE-5403245055 MCULE-8223338580 PubChem-21872785 PubChem-22179254 PubChem-22179259 PubChem-4460 PubChem-45105105 PubChem-75084904 PubChem-77498906 PubChem-77677413 PubChem-77720960 PubChem-77721057 PubChem-77780409 PubChem-85150063


 44 46  0  0  0  0  0  0  0  0999 V2000
   -0.0177   19.8443   72.2892 C   0  0  0  0  0  0  0  0  0  0  0  0
    1.0650   19.7198   73.3662 C   0  0  0  0  0  0  0  0  0  0  0  0
    2.1776   18.7327   72.9904 C   0  0  0  0  0  0  0  0  0  0  0  0
    1.7087   17.3601   73.0896 N   0  0  0  0  0  0  0  0  0  0  0  0
    2.7631   19.0093   71.5982 C   0  0  0  0  0  0  0  0  0  0  0  0
    1.6844   19.1368   70.5157 C   0  0  0  0  0  0  0  0  0  0  0  0
    1.1291   17.8870   70.2279 O   0  0  0  0  0  0  0  0  0  0  0  0
    0.6010   20.1470   70.9178 C   0  0  0  0  0  0  0  0  0  0  0  0
    0.9526   17.2100   72.4216 H   0  0  0  0  0  0  0  0  0  0  0  0
    1.3672   17.1849   74.0346 H   0  0  0  0  0  0  0  0  0  0  0  0
    0.7010   17.5326   71.0230 H   0  0  0  0  0  0  0  0  0  0  0  0
   -0.8514   18.6490   72.2482 N   0  0  0  0  0  0  0  0  0  0  0  0
   -0.4851   17.9917   71.5595 H   0  0  0  0  0  0  0  0  0  0  0  0
   -2.8232   18.0256   70.9698 C   0  0  0  0  0  0  0  0  0  0  0  0
   -2.1912   19.0681   71.8719 C   0  0  0  0  0  0  0  0  0  0  0  0
    3.5382   20.1724   71.6326 O   0  0  0  0  0  0  0  0  0  0  0  0
    4.5988   19.9283   70.7563 C   0  0  0  0  0  0  0  0  0  0  0  0
    5.3698   18.8183   71.2361 O   0  0  0  0  0  0  0  0  0  0  0  0
    6.6470   18.9453   71.8010 C   0  0  0  0  0  0  0  0  0  0  0  0
    7.1712   20.1461   72.0432 C   0  0  0  0  0  0  0  0  0  0  0  0
    6.3792   21.3892   71.7743 C   0  0  0  0  0  0  0  0  0  0  0  0
    5.4404   21.1991   70.5840 C   0  0  0  0  0  0  0  0  0  0  0  0
    6.2032   21.1233   69.3488 N   0  0  0  0  0  0  0  0  0  0  0  0
    6.8328   20.3217   69.3867 H   0  0  0  0  0  0  0  0  0  0  0  0
    6.7475   21.9780   69.2324 H   0  0  0  0  0  0  0  0  0  0  0  0
    7.4277   17.7241   72.1349 C   0  0  0  0  0  0  0  0  0  0  0  0
    7.1917   17.3555   73.5195 N   0  0  0  0  0  0  0  0  0  0  0  0
    7.4842   18.1191   74.1292 H   0  0  0  0  0  0  0  0  0  0  0  0
    7.7271   16.5169   73.7441 H   0  0  0  0  0  0  0  0  0  0  0  0
   -0.3879   20.2297   69.9326 O   0  0  0  0  0  0  0  0  0  0  0  0
   -0.3661   21.5647   69.5062 C   0  0  0  0  0  0  0  0  0  0  0  0
   -1.2636   22.3521   70.2675 O   0  0  0  0  0  0  0  0  0  0  0  0
   -2.5725   22.0738   69.8314 C   0  0  0  0  0  0  0  0  0  0  0  0
   -2.8414   22.7210   68.4679 C   0  0  0  0  0  0  0  0  0  0  0  0
   -3.8464   21.8625   67.7263 C   0  0  0  0  0  0  0  0  0  0  0  0
   -3.4034   23.9849   68.6632 O   0  0  0  0  0  0  0  0  0  0  0  0
   -1.5464   22.8218   67.6251 C   0  0  0  0  0  0  0  0  0  0  0  0
   -0.5558   21.7014   67.9722 C   0  0  0  0  0  0  0  0  0  0  0  0
   -0.9821   20.4993   67.4005 O   0  0  0  0  0  0  0  0  0  0  0  0
   -4.2120   23.9010   69.1922 H   0  0  0  0  0  0  0  0  0  0  0  0
   -1.8492   20.2587   67.7624 H   0  0  0  0  0  0  0  0  0  0  0  0
   -0.8955   24.1149   67.8038 N   0  0  0  0  0  0  0  0  0  0  0  0
   -0.3153   24.4836   66.5239 C   0  0  0  0  0  0  0  0  0  0  0  0
   -0.1643   24.0434   68.5114 H   0  0  0  0  0  0  0  0  0  0  0  0
 14 15  1  0  0  0
 15 12  1  0  0  0
  1 12  1  0  0  0
  1  2  1  0  0  0
  2  3  1  0  0  0
  3  4  1  0  0  0
  3  5  1  0  0  0
  5 16  1  0  0  0
  5  6  1  0  0  0
 17 16  1  0  0  0
 17 18  1  0  0  0
 18 19  1  0  0  0
 19 26  1  0  0  0
 19 20  2  0  0  0
 26 27  1  0  0  0
 20 21  1  0  0  0
 21 22  1  0  0  0
 22 23  1  0  0  0
 22 17  1  0  0  0
  6  7  1  0  0  0
  6  8  1  0  0  0
  8 30  1  0  0  0
  8  1  1  0  0  0
 31 30  1  0  0  0
 31 32  1  0  0  0
 32 33  1  0  0  0
 33 34  1  0  0  0
 34 35  1  0  0  0
 34 36  1  0  0  0
 34 37  1  0  0  0
 37 42  1  0  0  0
 37 38  1  0  0  0
 42 43  1  0  0  0
 38 39  1  0  0  0
 38 31  1  0  0  0
 12 13  1  0  0  0
  4  9  1  0  0  0
  4 10  1  0  0  0
 27 28  1  0  0  0
 27 29  1  0  0  0
 23 24  1  0  0  0
 23 25  1  0  0  0
  7 11  1  0  0  0
 36 40  1  0  0  0
 42 44  1  0  0  0
 39 41  1  0  0  0
M  END
>  <minimizedAffinity>
-6.67673

>  <minimizedRMSD>
3.67752

$$$$
MolPort-007-824-072 ChemDiv-G070-1620 MCULE-6339649335 PubChem-46336069 ZINC000021535908 ZINC21535908


 35 36  0  0  0  0  0  0  0  0999 V2000
    3.1826   19.9621   69.4279 N   0  0  0  0  0  0  0  0  0  0  0  0
    3.1562   19.7841   70.4319 H   0  0  0  0  0  0  0  0  0  0  0  0
    4.8267   20.0565   68.8898 S   0  0  0  0  0  0  0  0  0  0  0  0
    5.1660   18.7984   68.1424 O   0  0  0  0  0  0  0  0  0  0  0  0
    4.9674   21.2364   67.9675 O   0  0  0  0  0  0  0  0  0  0  0  0
    7.2989   20.4879   70.2103 C   0  0  0  0  0  0  0  0  0  0  0  0
    7.7132   20.5564   71.5331 C   0  0  0  0  0  0  0  0  0  0  0  0
    9.1056   20.7939   72.0075 C   0  0  0  0  0  0  0  0  0  0  0  0
    6.6908   20.3332   72.3804 N   0  0  0  0  0  0  0  0  0  0  0  0
    5.6106   20.1324   71.6026 C   0  0  0  0  0  0  0  0  0  0  0  0
    4.2711   19.8095   72.1666 C   0  0  0  0  0  0  0  0  0  0  0  0
    5.9348   20.2287   70.2584 C   0  0  0  0  0  0  0  0  0  0  0  0
    6.7259   20.3197   73.3642 H   0  0  0  0  0  0  0  0  0  0  0  0
    8.1620   20.6147   69.0163 C   0  0  0  0  0  0  0  0  0  0  0  0
    7.9488   19.9024   67.9983 O   0  0  0  0  0  0  0  0  0  0  0  0
    9.2322   21.5117   69.0274 O   0  0  0  0  0  0  0  0  0  0  0  0
   11.1274   20.0447   69.0321 C   0  0  0  0  0  0  0  0  0  0  0  0
   10.4577   21.2296   68.3682 C   0  0  0  0  0  0  0  0  0  0  0  0
    2.5425   21.2349   69.1347 C   0  0  0  0  0  0  0  0  0  0  0  0
    1.1241   21.1997   69.5807 C   0  0  0  0  0  0  0  0  0  0  0  0
    0.7845   20.3927   70.4857 O   0  0  0  0  0  0  0  0  0  0  0  0
    0.1729   22.0899   68.9815 N   0  0  0  0  0  0  0  0  0  0  0  0
    0.5161   22.7044   68.2932 H   0  0  0  0  0  0  0  0  0  0  0  0
   -1.2266   22.1776   69.2812 C   0  0  0  0  0  0  0  0  0  0  0  0
   -2.0027   23.1223   68.6010 C   0  0  0  0  0  0  0  0  0  0  0  0
   -3.3709   23.2361   68.8643 C   0  0  0  0  0  0  0  0  0  0  0  0
   -3.9749   22.4018   69.8105 C   0  0  0  0  0  0  0  0  0  0  0  0
   -3.2044   21.4577   70.4963 C   0  0  0  0  0  0  0  0  0  0  0  0
   -1.8367   21.3450   70.2320 C   0  0  0  0  0  0  0  0  0  0  0  0
   -5.6893   22.5514   70.1490 S   0  0  0  0  0  0  0  0  0  0  0  0
   -6.1557   21.3768   71.3272 N   0  0  0  0  0  0  0  0  0  0  0  0
   -5.9809   23.9292   70.6721 O   0  0  0  0  0  0  0  0  0  0  0  0
   -6.4765   22.3147   68.8910 O   0  0  0  0  0  0  0  0  0  0  0  0
   -5.6269   21.5283   72.1862 H   0  0  0  0  0  0  0  0  0  0  0  0
   -5.9626   20.4412   70.9696 H   0  0  0  0  0  0  0  0  0  0  0  0
 17 18  1  0  0  0
 18 16  1  0  0  0
 16 14  1  0  0  0
 14 15  2  0  0  0
 14  6  1  0  0  0
  6  7  2  0  0  0
  7  8  1  0  0  0
  7  9  1  0  0  0
  9 10  1  0  0  0
 10 11  1  0  0  0
 10 12  2  0  0  0
 12  3  1  0  0  0
 12  6  1  0  0  0
  3  4  2  0  0  0
  3  5  2  0  0  0
  3  1  1  0  0  0
  1 19  1  0  0  0
 19 20  1  0  0  0
 20 21  2  0  0  0
 20 22  1  0  0  0
 22 24  1  0  0  0
 24 25  2  0  0  0
 25 26  1  0  0  0
 26 27  2  0  0  0
 27 28  1  0  0  0
 27 30  1  0  0  0
 28 29  2  0  0  0
 29 24  1  0  0  0
 30 31  1  0  0  0
 30 32  2  0  0  0
 30 33  2  0  0  0
  9 13  1  0  0  0
  1  2  1  0  0  0
 22 23  1  0  0  0
 31 34  1  0  0  0
 31 35  1  0  0  0
M  END
>  <minimizedAffinity>
-6.65103

>  <minimizedRMSD>
2.31203

$$$$
MolPort-009-764-176 101699973 CSSS00132602317 LN00443718 MCULE-8990676938 PubChem-53370912 ZINC000101699973


 33 36  0  0  0  0  0  0  0  0999 V2000
    4.2752   18.9024   70.9597 N   0  0  0  0  0  0  0  0  0  0  0  0
    4.3565   18.6973   71.9192 H   0  0  0  0  0  0  0  0  0  0  0  0
    6.3971   20.2985   70.4551 C   0  0  0  0  0  0  0  0  0  0  0  0
    7.0147   19.9388   69.2711 C   0  0  0  0  0  0  0  0  0  0  0  0
    8.0326   20.3289   68.6417 O   0  0  0  0  0  0  0  0  0  0  0  0
    6.0515   18.9740   69.0611 C   0  0  0  0  0  0  0  0  0  0  0  0
    5.4303   19.3359   70.2422 C   0  0  0  0  0  0  0  0  0  0  0  0
    5.8303   18.1190   68.1641 O   0  0  0  0  0  0  0  0  0  0  0  0
    6.6377   21.2612   71.4810 N   0  0  0  0  0  0  0  0  0  0  0  0
    5.8714   21.6317   71.9758 H   0  0  0  0  0  0  0  0  0  0  0  0
    7.9791   21.7128   71.8192 C   0  0  0  0  0  0  0  0  0  0  0  0
    8.7460   20.6176   72.4799 C   0  0  0  0  0  0  0  0  0  0  0  0
    9.9722   20.2089   71.9489 C   0  0  0  0  0  0  0  0  0  0  0  0
   10.6815   19.1849   72.5791 C   0  0  0  0  0  0  0  0  0  0  0  0
   10.1629   18.5849   73.7282 C   0  0  0  0  0  0  0  0  0  0  0  0
    8.9361   19.0236   74.2319 C   0  0  0  0  0  0  0  0  0  0  0  0
    8.2593   20.0229   73.6041 N   0  0  0  0  0  0  0  0  0  0  0  0
    2.9820   18.7555   70.3122 C   0  0  0  0  0  0  0  0  0  0  0  0
    2.5642   20.0699   69.6816 C   0  0  0  0  0  0  0  0  0  0  0  0
    1.1484   20.2918   69.9193 N   0  0  0  0  0  0  0  0  0  0  0  0
    0.4106   21.2925   69.2151 C   0  0  0  0  0  0  0  0  0  0  0  0
    0.9848   22.0225   68.3624 O   0  0  0  0  0  0  0  0  0  0  0  0
    0.6832   19.7360   70.5856 H   0  0  0  0  0  0  0  0  0  0  0  0
   -1.0212   21.4734   69.4831 C   0  0  0  0  0  0  0  0  0  0  0  0
   -1.6522   21.0926   70.6697 C   0  0  0  0  0  0  0  0  0  0  0  0
   -2.9615   21.4550   70.4570 C   0  0  0  0  0  0  0  0  0  0  0  0
   -3.0590   22.0120   69.2110 C   0  0  0  0  0  0  0  0  0  0  0  0
   -4.2717   22.4798   68.7087 C   0  0  0  0  0  0  0  0  0  0  0  0
   -5.4075   22.3613   69.5297 C   0  0  0  0  0  0  0  0  0  0  0  0
   -5.3060   21.7863   70.8148 C   0  0  0  0  0  0  0  0  0  0  0  0
   -4.0673   21.3233   71.2938 C   0  0  0  0  0  0  0  0  0  0  0  0
   -1.8717   22.0348   68.5883 N   0  0  0  0  0  0  0  0  0  0  0  0
   -1.6652   22.3793   67.6894 H   0  0  0  0  0  0  0  0  0  0  0  0
  3  9  1  0  0  0
  9 11  1  0  0  0
 11 12  1  0  0  0
 12 13  2  0  0  0
 13 14  1  0  0  0
 14 15  2  0  0  0
 15 16  1  0  0  0
 16 17  2  0  0  0
  3  4  1  0  0  0
  4  5  2  0  0  0
  4  6  1  0  0  0
  6  7  1  0  0  0
  7  1  1  0  0  0
  1 18  1  0  0  0
 18 19  1  0  0  0
 19 20  1  0  0  0
 20 21  1  0  0  0
 21 22  2  0  0  0
 21 24  1  0  0  0
 24 25  2  0  0  0
 25 26  1  0  0  0
 26 27  2  0  0  0
 27 28  1  0  0  0
 28 29  2  0  0  0
 29 30  1  0  0  0
 30 31  2  0  0  0
 27 32  1  0  0  0
  6  8  2  0  0  0
  7  3  2  0  0  0
 32 24  1  0  0  0
 17 12  1  0  0  0
 31 26  1  0  0  0
  9 10  1  0  0  0
  1  2  1  0  0  0
 20 23  1  0  0  0
 32 33  1  0  0  0
M  END
>  <minimizedAffinity>
-6.63709

>  <minimizedRMSD>
2.71081

$$$$
MolPort-035-900-840 MCULE-8659050960 PubChem-4073549


 32 33  0  0  0  0  0  0  0  0999 V2000
    1.7046   20.2225   69.8178 C   0  0  0  0  0  0  0  0  0  0  0  0
    1.8591   21.6954   69.4370 C   0  0  0  0  0  0  0  0  0  0  0  0
    1.9147   20.1268   71.1993 O   0  0  0  0  0  0  0  0  0  0  0  0
    2.8128   20.4257   71.4113 H   0  0  0  0  0  0  0  0  0  0  0  0
    5.3225   19.8347   68.9419 C   0  0  0  0  0  0  0  0  0  0  0  0
    4.7045   20.2929   67.9094 N   0  0  0  0  0  0  0  0  0  0  0  0
    3.3236   20.1056   67.9348 N   0  0  0  0  0  0  0  0  0  0  0  0
    2.8199   19.4080   69.1106 C   0  0  0  0  0  0  0  0  0  0  0  0
    4.2767   19.0679   70.1785 S   0  0  0  0  0  0  0  0  0  0  0  0
    2.7332   20.4207   67.2128 H   0  0  0  0  0  0  0  0  0  0  0  0
   11.0461   20.2610   69.5038 C   0  0  0  0  0  0  0  0  0  0  0  0
    9.5713   20.1514   69.3583 C   0  0  0  0  0  0  0  0  0  0  0  0
    8.8018   19.6399   70.4065 C   0  0  0  0  0  0  0  0  0  0  0  0
    7.4144   19.5368   70.2695 C   0  0  0  0  0  0  0  0  0  0  0  0
    6.7857   19.9440   69.0840 C   0  0  0  0  0  0  0  0  0  0  0  0
    7.5664   20.4566   68.0365 C   0  0  0  0  0  0  0  0  0  0  0  0
    8.9539   20.5598   68.1732 C   0  0  0  0  0  0  0  0  0  0  0  0
    0.2397   19.7339   69.4797 C   0  0  0  0  0  0  0  0  0  0  0  0
    0.0483   18.3815   70.1748 C   0  0  0  0  0  0  0  0  0  0  0  0
    0.1540   19.4925   68.1068 O   0  0  0  0  0  0  0  0  0  0  0  0
    0.8685   18.8938   67.8385 H   0  0  0  0  0  0  0  0  0  0  0  0
   -0.9301   20.7152   69.9233 C   0  0  0  0  0  0  0  0  0  0  0  0
   -1.7434   21.1770   68.7134 C   0  0  0  0  0  0  0  0  0  0  0  0
   -0.3637   21.8666   70.4847 O   0  0  0  0  0  0  0  0  0  0  0  0
    0.2716   22.2516   69.8609 H   0  0  0  0  0  0  0  0  0  0  0  0
   -1.9509   20.1279   70.9690 C   0  0  0  0  0  0  0  0  0  0  0  0
   -1.9145   18.5993   71.0208 C   0  0  0  0  0  0  0  0  0  0  0  0
   -3.2416   20.4837   70.5661 O   0  0  0  0  0  0  0  0  0  0  0  0
   -3.4079   20.1409   69.6740 H   0  0  0  0  0  0  0  0  0  0  0  0
   -1.7687   20.7044   72.3805 C   0  0  0  0  0  0  0  0  0  0  0  0
   -0.4601   20.5575   72.8511 O   0  0  0  0  0  0  0  0  0  0  0  0
   -0.2386   19.6144   72.9015 H   0  0  0  0  0  0  0  0  0  0  0  0
 11 12  1  0  0  0
 12 13  2  0  0  0
 13 14  1  0  0  0
 14 15  2  0  0  0
 15 16  1  0  0  0
 15  5  1  0  0  0
 16 17  2  0  0  0
 17 12  1  0  0  0
  5  6  2  0  0  0
  6  7  1  0  0  0
  8  7  1  0  0  0
  8  9  1  0  0  0
  8  1  1  0  0  0
  9  5  1  0  0  0
  1  2  1  0  0  0
  1 18  1  0  0  0
  1  3  1  0  0  0
 18 19  1  0  0  0
 18 22  1  0  0  0
 18 20  1  0  0  0
 22 23  1  0  0  0
 22 26  1  0  0  0
 22 24  1  0  0  0
 26 27  1  0  0  0
 26 30  1  0  0  0
 26 28  1  0  0  0
 30 31  1  0  0  0
  7 10  1  0  0  0
 31 32  1  0  0  0
 28 29  1  0  0  0
 24 25  1  0  0  0
 20 21  1  0  0  0
  3  4  1  0  0  0
M  END
>  <minimizedAffinity>
-6.63384

>  <minimizedRMSD>
3.00625

$$$$
Molport-028-599-834 49708768 CHEMBL575707 LN04678441 MCULE-2632820656 MCULE-6921896988 PubChem-44548289 PubChem-447379 ZINC000049708768


 47 49  0  0  0  0  0  0  0  0999 V2000
    5.5447   20.2171   69.5767 C   0  0  0  0  0  0  0  0  0  0  0  0
    6.3177   21.2063   68.6971 C   0  0  0  0  0  0  0  0  0  0  0  0
    6.8250   20.5411   67.5081 N   0  0  0  0  0  0  0  0  0  0  0  0
    7.4539   21.9000   69.4605 C   0  0  0  0  0  0  0  0  0  0  0  0
    8.3806   20.9196   70.1918 C   0  0  0  0  0  0  0  0  0  0  0  0
    9.2268   20.2077   69.2483 N   0  0  0  0  0  0  0  0  0  0  0  0
    7.6019   19.9317   71.0639 C   0  0  0  0  0  0  0  0  0  0  0  0
    6.5000   19.2273   70.2595 C   0  0  0  0  0  0  0  0  0  0  0  0
    5.7947   18.3356   71.0696 O   0  0  0  0  0  0  0  0  0  0  0  0
    7.4815   19.8099   67.7816 H   0  0  0  0  0  0  0  0  0  0  0  0
    7.3009   21.2209   66.9151 H   0  0  0  0  0  0  0  0  0  0  0  0
    8.6448   19.6504   68.6229 H   0  0  0  0  0  0  0  0  0  0  0  0
    9.8627   19.5941   69.7578 H   0  0  0  0  0  0  0  0  0  0  0  0
    5.3518   18.8253   71.7802 H   0  0  0  0  0  0  0  0  0  0  0  0
    4.7782   20.9121   70.5321 O   0  0  0  0  0  0  0  0  0  0  0  0
    1.3273   19.3567   70.4120 C   0  0  0  0  0  0  0  0  0  0  0  0
    2.8555   19.3474   70.5676 C   0  0  0  0  0  0  0  0  0  0  0  0
    3.4064   18.3872   69.7161 O   0  0  0  0  0  0  0  0  0  0  0  0
    3.4022   20.7508   70.2480 C   0  0  0  0  0  0  0  0  0  0  0  0
    3.0521   21.1672   68.9477 O   0  0  0  0  0  0  0  0  0  0  0  0
    1.6652   21.4067   68.9712 C   0  0  0  0  0  0  0  0  0  0  0  0
    0.8782   20.0968   69.1297 C   0  0  0  0  0  0  0  0  0  0  0  0
    1.1068   19.2133   67.9145 C   0  0  0  0  0  0  0  0  0  0  0  0
   -0.4845   20.3923   69.2011 O   0  0  0  0  0  0  0  0  0  0  0  0
    3.1742   18.5978   68.7981 H   0  0  0  0  0  0  0  0  0  0  0  0
   -0.7575   20.8558   68.3939 H   0  0  0  0  0  0  0  0  0  0  0  0
    0.3415   18.8754   72.4809 C   0  0  0  0  0  0  0  0  0  0  0  0
    0.7247   19.9603   71.5942 N   0  0  0  0  0  0  0  0  0  0  0  0
    1.3987   20.5694   72.0579 H   0  0  0  0  0  0  0  0  0  0  0  0
    7.0662   20.5931   72.1752 O   0  0  0  0  0  0  0  0  0  0  0  0
    7.2996   19.7348   73.2520 C   0  0  0  0  0  0  0  0  0  0  0  0
    8.4491   20.1500   73.9540 O   0  0  0  0  0  0  0  0  0  0  0  0
    8.8082   19.1518   74.8933 C   0  0  0  0  0  0  0  0  0  0  0  0
    7.7129   18.8420   75.9292 C   0  0  0  0  0  0  0  0  0  0  0  0
    7.6815   19.8559   76.8868 O   0  0  0  0  0  0  0  0  0  0  0  0
    6.3227   18.6878   75.2992 C   0  0  0  0  0  0  0  0  0  0  0  0
    6.1528   17.3863   74.8261 O   0  0  0  0  0  0  0  0  0  0  0  0
    6.0781   19.6895   74.1719 C   0  0  0  0  0  0  0  0  0  0  0  0
    5.8007   21.0071   74.7230 N   0  0  0  0  0  0  0  0  0  0  0  0
    7.4571   20.6973   76.4596 H   0  0  0  0  0  0  0  0  0  0  0  0
    6.8059   17.2069   74.1316 H   0  0  0  0  0  0  0  0  0  0  0  0
    6.6009   21.3214   75.2720 H   0  0  0  0  0  0  0  0  0  0  0  0
    4.9760   20.9587   75.3212 H   0  0  0  0  0  0  0  0  0  0  0  0
    9.4994   17.9195   74.2937 C   0  0  0  0  0  0  0  0  0  0  0  0
   10.9012   18.2697   73.8348 C   0  0  0  0  0  0  0  0  0  0  0  0
    8.7756   17.3865   73.2263 O   0  0  0  0  0  0  0  0  0  0  0  0
    8.7174   18.0435   72.5150 H   0  0  0  0  0  0  0  0  0  0  0  0
 27 28  1  0  0  0
 16 28  1  0  0  0
 16 17  1  0  0  0
 17 18  1  0  0  0
 17 19  1  0  0  0
 19 15  1  0  0  0
  1 15  1  0  0  0
  1  2  1  0  0  0
  2  3  1  0  0  0
  2  4  1  0  0  0
  4  5  1  0  0  0
  5  6  1  0  0  0
  5  7  1  0  0  0
  7 30  1  0  0  0
 31 30  1  0  0  0
 31 32  1  0  0  0
 33 32  1  0  0  0
 33 44  1  0  0  0
 44 45  1  0  0  0
 44 46  1  0  0  0
 33 34  1  0  0  0
 34 35  1  0  0  0
 34 36  1  0  0  0
 36 37  1  0  0  0
 36 38  1  0  0  0
 38 39  1  0  0  0
  7  8  1  0  0  0
  8  9  1  0  0  0
 19 20  1  0  0  0
 20 21  1  0  0  0
 21 22  1  0  0  0
 22 23  1  0  0  0
 22 24  1  0  0  0
 22 16  1  0  0  0
  8  1  1  0  0  0
 38 31  1  0  0  0
 28 29  1  0  0  0
 18 25  1  0  0  0
  3 10  1  0  0  0
  3 11  1  0  0  0
  6 12  1  0  0  0
  6 13  1  0  0  0
 46 47  1  0  0  0
 35 40  1  0  0  0
 37 41  1  0  0  0
 39 42  1  0  0  0
 39 43  1  0  0  0
  9 14  1  0  0  0
 24 26  1  0  0  0
M  END
>  <minimizedAffinity>
-6.62735

>  <minimizedRMSD>
2.46983

$$$$
MolPort-002-713-719 92616 CSSS00160786643 ChemDiv-8012-6949 MCULE-5514089663 PubChem-706447 ZINC000000092616 ZINC00092616


 29 31  0  0  0  0  0  0  0  0999 V2000
    0.3622   20.0091   70.5955 C   0  0  0  0  0  0  0  0  0  0  0  0
    0.0072   18.5669   70.1733 C   0  0  0  0  0  0  0  0  0  0  0  0
   -1.2134   18.0211   70.9165 C   0  0  0  0  0  0  0  0  0  0  0  0
   -0.9871   18.0841   72.4207 C   0  0  0  0  0  0  0  0  0  0  0  0
   -0.7298   19.5239   72.8431 C   0  0  0  0  0  0  0  0  0  0  0  0
    0.5057   20.0651   72.1247 C   0  0  0  0  0  0  0  0  0  0  0  0
    2.4679   19.4835   69.2231 C   0  0  0  0  0  0  0  0  0  0  0  0
    2.0855   18.3127   68.9582 O   0  0  0  0  0  0  0  0  0  0  0  0
    1.6600   20.3582   70.0200 N   0  0  0  0  0  0  0  0  0  0  0  0
    2.0053   21.2637   70.1934 H   0  0  0  0  0  0  0  0  0  0  0  0
    3.7953   19.9509   68.7378 C   0  0  0  0  0  0  0  0  0  0  0  0
    4.7532   21.0971   71.4057 N   0  0  0  0  0  0  0  0  0  0  0  0
    5.2617   19.9227   70.7816 C   0  0  0  0  0  0  0  0  0  0  0  0
    6.2118   19.1333   71.3097 N   0  0  0  0  0  0  0  0  0  0  0  0
    6.3609   18.1553   70.4228 N   0  0  0  0  0  0  0  0  0  0  0  0
    5.5373   18.3347   69.3977 N   0  0  0  0  0  0  0  0  0  0  0  0
    4.8478   19.4415   69.6028 N   0  0  0  0  0  0  0  0  0  0  0  0
    5.1110   21.3863   72.2761 H   0  0  0  0  0  0  0  0  0  0  0  0
    4.0439   21.6200   70.9668 H   0  0  0  0  0  0  0  0  0  0  0  0
   -0.6699   21.0220   70.1426 C   0  0  0  0  0  0  0  0  0  0  0  0
   -1.3464   21.6372   71.0114 O   0  0  0  0  0  0  0  0  0  0  0  0
   -0.8571   21.2982   68.7451 N   0  0  0  0  0  0  0  0  0  0  0  0
   -0.2882   20.7964   68.1176 H   0  0  0  0  0  0  0  0  0  0  0  0
   -1.7841   22.2265   68.1669 C   0  0  0  0  0  0  0  0  0  0  0  0
   -1.3396   23.0723   67.1446 C   0  0  0  0  0  0  0  0  0  0  0  0
   -2.2137   23.9907   66.5552 C   0  0  0  0  0  0  0  0  0  0  0  0
   -3.5408   24.0680   66.9862 C   0  0  0  0  0  0  0  0  0  0  0  0
   -3.9935   23.2270   68.0062 C   0  0  0  0  0  0  0  0  0  0  0  0
   -3.1184   22.3094   68.5946 C   0  0  0  0  0  0  0  0  0  0  0  0
 12 13  1  0  0  0
 13 14  2  0  0  0
 14 15  1  0  0  0
 15 16  2  0  0  0
 16 17  1  0  0  0
 17 11  1  0  0  0
 17 13  1  0  0  0
 11  7  1  0  0  0
  7  8  2  0  0  0
  7  9  1  0  0  0
  9  1  1  0  0  0
  1  2  1  0  0  0
  1 20  1  0  0  0
  2  3  1  0  0  0
  3  4  1  0  0  0
  4  5  1  0  0  0
  5  6  1  0  0  0
  6  1  1  0  0  0
 20 21  2  0  0  0
 20 22  1  0  0  0
 22 24  1  0  0  0
 24 25  2  0  0  0
 25 26  1  0  0  0
 26 27  2  0  0  0
 27 28  1  0  0  0
 28 29  2  0  0  0
 29 24  1  0  0  0
 12 18  1  0  0  0
 12 19  1  0  0  0
  9 10  1  0  0  0
 22 23  1  0  0  0
M  END
>  <minimizedAffinity>
-6.62037

>  <minimizedRMSD>
2.70469

$$$$
MolPort-035-385-137 CSSS00160106640 MCULE-8790690427 PubChem-77097902


 28 30  0  0  0  0  0  0  0  0999 V2000
   -0.2514   17.7154   71.9882 O   0  0  0  0  0  0  0  0  0  0  0  0
   -0.2903   18.9586   71.7872 C   0  0  0  0  0  0  0  0  0  0  0  0
    0.7565   19.8072   72.2630 N   0  0  0  0  0  0  0  0  0  0  0  0
    0.6689   20.7795   72.1352 H   0  0  0  0  0  0  0  0  0  0  0  0
   -1.4216   19.5458   71.0167 C   0  0  0  0  0  0  0  0  0  0  0  0
   -1.1227   20.9939   70.6538 C   0  0  0  0  0  0  0  0  0  0  0  0
   -0.2287   21.0482   69.5030 N   0  0  0  0  0  0  0  0  0  0  0  0
   -0.9331   21.7136   68.4629 C   0  0  0  0  0  0  0  0  0  0  0  0
   -0.4307   21.9269   67.3294 O   0  0  0  0  0  0  0  0  0  0  0  0
   -2.2478   22.1140   68.8056 N   0  0  0  0  0  0  0  0  0  0  0  0
   -2.3578   21.6665   70.1485 C   0  0  0  0  0  0  0  0  0  0  0  0
   -3.3949   21.8461   70.8394 O   0  0  0  0  0  0  0  0  0  0  0  0
    0.6878   20.6919   69.4555 H   0  0  0  0  0  0  0  0  0  0  0  0
   -2.9148   22.5828   68.2536 H   0  0  0  0  0  0  0  0  0  0  0  0
    1.9477   19.2968   72.9291 C   0  0  0  0  0  0  0  0  0  0  0  0
    2.8260   18.5197   71.9548 C   0  0  0  0  0  0  0  0  0  0  0  0
    3.4191   19.4148   70.9182 C   0  0  0  0  0  0  0  0  0  0  0  0
    4.7681   19.4603   70.7608 N   0  0  0  0  0  0  0  0  0  0  0  0
    5.3448   20.2521   69.8144 C   0  0  0  0  0  0  0  0  0  0  0  0
    4.5267   21.0288   68.9845 C   0  0  0  0  0  0  0  0  0  0  0  0
    3.1451   20.9637   69.1544 C   0  0  0  0  0  0  0  0  0  0  0  0
    2.6167   20.1597   70.1122 N   0  0  0  0  0  0  0  0  0  0  0  0
    6.8167   20.2823   69.6724 C   0  0  0  0  0  0  0  0  0  0  0  0
    7.4187   20.7522   68.4933 C   0  0  0  0  0  0  0  0  0  0  0  0
    8.8108   20.7767   68.3684 C   0  0  0  0  0  0  0  0  0  0  0  0
    9.6146   20.3315   69.4208 C   0  0  0  0  0  0  0  0  0  0  0  0
    9.0267   19.8621   70.5981 C   0  0  0  0  0  0  0  0  0  0  0  0
    7.6345   19.8377   70.7229 C   0  0  0  0  0  0  0  0  0  0  0  0
  1  2  2  0  0  0
  2  5  1  0  0  0
  2  3  1  0  0  0
  6  5  1  0  0  0
  6  7  1  0  0  0
  7  8  1  0  0  0
  8  9  2  0  0  0
  8 10  1  0  0  0
 10 11  1  0  0  0
 11 12  2  0  0  0
 11  6  1  0  0  0
  3 15  1  0  0  0
 15 16  1  0  0  0
 16 17  1  0  0  0
 17 18  2  0  0  0
 18 19  1  0  0  0
 19 20  2  0  0  0
 19 23  1  0  0  0
 20 21  1  0  0  0
 21 22  2  0  0  0
 22 17  1  0  0  0
 23 24  2  0  0  0
 24 25  1  0  0  0
 25 26  2  0  0  0
 26 27  1  0  0  0
 27 28  2  0  0  0
 28 23  1  0  0  0
  7 13  1  0  0  0
 10 14  1  0  0  0
  3  4  1  0  0  0
M  END
>  <minimizedAffinity>
-6.61484

>  <minimizedRMSD>
3.54520

$$$$
MolPort-039-193-841


 31 32  0  0  0  0  0  0  0  0999 V2000
    5.8673   20.6982   68.8381 C   0  0  0  0  0  0  0  0  0  0  0  0
    6.4948   21.4987   67.9623 N   0  0  0  0  0  0  0  0  0  0  0  0
    7.3003   22.2315   68.6794 O   0  0  0  0  0  0  0  0  0  0  0  0
    7.2514   21.9733   69.9571 N   0  0  0  0  0  0  0  0  0  0  0  0
    6.3493   20.9856   70.0992 C   0  0  0  0  0  0  0  0  0  0  0  0
    4.9385   19.6831   68.4438 N   0  0  0  0  0  0  0  0  0  0  0  0
    4.6739   19.6415   67.4964 H   0  0  0  0  0  0  0  0  0  0  0  0
    4.3619   18.7094   69.3571 C   0  0  0  0  0  0  0  0  0  0  0  0
    2.8489   18.7271   69.2471 C   0  0  0  0  0  0  0  0  0  0  0  0
    2.4329   19.7234   68.2730 N   0  0  0  0  0  0  0  0  0  0  0  0
    3.1546   20.4378   68.1765 H   0  0  0  0  0  0  0  0  0  0  0  0
   -0.0414   20.8309   67.5028 N   0  0  0  0  0  0  0  0  0  0  0  0
    0.9666   20.4402   68.8495 S   0  0  0  0  0  0  0  0  0  0  0  0
    1.2788   21.6961   69.6144 O   0  0  0  0  0  0  0  0  0  0  0  0
    0.2435   19.4727   69.7445 O   0  0  0  0  0  0  0  0  0  0  0  0
   -0.9072   21.2538   67.8375 H   0  0  0  0  0  0  0  0  0  0  0  0
   -0.2574   19.9810   66.9819 H   0  0  0  0  0  0  0  0  0  0  0  0
    5.9047   20.4605   71.4037 C   0  0  0  0  0  0  0  0  0  0  0  0
    6.7417   20.0633   72.3234 N   0  0  0  0  0  0  0  0  0  0  0  0
    8.1632   19.8801   72.2148 C   0  0  0  0  0  0  0  0  0  0  0  0
    8.8372   19.9890   70.9875 C   0  0  0  0  0  0  0  0  0  0  0  0
   10.2124   19.7551   70.9085 C   0  0  0  0  0  0  0  0  0  0  0  0
   11.0944   19.9344   69.2250 Br  0  0  0  0  0  0  0  0  0  0  0  0
   10.9242   19.3900   72.0583 C   0  0  0  0  0  0  0  0  0  0  0  0
   12.2590   19.1603   71.9989 F   0  0  0  0  0  0  0  0  0  0  0  0
   10.2540   19.2521   73.2769 C   0  0  0  0  0  0  0  0  0  0  0  0
    8.8785   19.4900   73.3520 C   0  0  0  0  0  0  0  0  0  0  0  0
    4.5112   20.5119   71.7101 N   0  0  0  0  0  0  0  0  0  0  0  0
    4.0769   20.6038   72.9890 O   0  0  0  0  0  0  0  0  0  0  0  0
    3.8540   20.4800   70.9778 H   0  0  0  0  0  0  0  0  0  0  0  0
    4.8391   20.6249   73.5886 H   0  0  0  0  0  0  0  0  0  0  0  0
 12 13  1  0  0  0
 13 14  2  0  0  0
 13 15  2  0  0  0
 13 10  1  0  0  0
 10  9  1  0  0  0
  9  8  1  0  0  0
  8  6  1  0  0  0
  6  1  1  0  0  0
  1  2  2  0  0  0
  2  3  1  0  0  0
  3  4  1  0  0  0
  4  5  2  0  0  0
  5 18  1  0  0  0
 18 28  1  0  0  0
 28 29  1  0  0  0
 18 19  2  0  0  0
 19 20  1  0  0  0
 20 21  2  0  0  0
 21 22  1  0  0  0
 22 23  1  0  0  0
 22 24  2  0  0  0
 24 25  1  0  0  0
 24 26  1  0  0  0
 26 27  2  0  0  0
  5  1  1  0  0  0
 27 20  1  0  0  0
 12 16  1  0  0  0
 12 17  1  0  0  0
 10 11  1  0  0  0
  6  7  1  0  0  0
 28 30  1  0  0  0
 29 31  1  0  0  0
M  END
>  <minimizedAffinity>
-6.60769

>  <minimizedRMSD>
2.41729

$$$$
MolPort-019-999-204 PubChem-4275593 PubChem-44134753


 29 31  0  0  0  0  0  0  0  0999 V2000
    2.8215   20.9696   69.9129 C   0  0  0  0  0  0  0  0  0  0  0  0
    2.0646   19.8680   70.6353 C   0  0  0  0  0  0  0  0  0  0  0  0
    0.6461   20.1173   70.2140 C   0  0  0  0  0  0  0  0  0  0  0  0
    0.7627   21.1166   69.0739 C   0  0  0  0  0  0  0  0  0  0  0  0
    2.1173   21.3000   68.7462 O   0  0  0  0  0  0  0  0  0  0  0  0
    2.4515   18.6069   70.1748 O   0  0  0  0  0  0  0  0  0  0  0  0
    2.3157   18.5572   69.2156 H   0  0  0  0  0  0  0  0  0  0  0  0
    4.6794   20.0289   68.4655 C   0  0  0  0  0  0  0  0  0  0  0  0
    6.0126   19.7523   68.5410 N   0  0  0  0  0  0  0  0  0  0  0  0
    6.3404   20.1607   69.7812 C   0  0  0  0  0  0  0  0  0  0  0  0
    5.2581   20.6576   70.4166 C   0  0  0  0  0  0  0  0  0  0  0  0
    4.1993   20.5936   69.6050 N   0  0  0  0  0  0  0  0  0  0  0  0
    5.3036   21.1236   71.6883 N   0  0  0  0  0  0  0  0  0  0  0  0
    6.5060   21.0870   72.3401 C   0  0  0  0  0  0  0  0  0  0  0  0
    7.6215   20.5883   71.7140 N   0  0  0  0  0  0  0  0  0  0  0  0
    7.5643   20.1174   70.4330 C   0  0  0  0  0  0  0  0  0  0  0  0
    8.5926   19.6589   69.8699 O   0  0  0  0  0  0  0  0  0  0  0  0
    6.6006   21.5675   73.6753 N   0  0  0  0  0  0  0  0  0  0  0  0
    4.4974   21.4772   72.1290 H   0  0  0  0  0  0  0  0  0  0  0  0
    5.8027   21.9258   74.1273 H   0  0  0  0  0  0  0  0  0  0  0  0
    7.4640   21.5419   74.1476 H   0  0  0  0  0  0  0  0  0  0  0  0
   -0.0192   20.6459   67.8554 C   0  0  0  0  0  0  0  0  0  0  0  0
    0.3996   19.3728   67.4622 O   0  0  0  0  0  0  0  0  0  0  0  0
    1.3411   19.3994   67.2304 H   0  0  0  0  0  0  0  0  0  0  0  0
   -0.0634   20.6958   71.2691 O   0  0  0  0  0  0  0  0  0  0  0  0
   -1.4679   19.7594   71.4369 P   0  0  0  0  0  0  0  0  0  0  0  0
   -1.6682   19.4239   72.8967 O   0  0  0  0  0  0  0  0  0  0  0  0
   -1.3135   18.3246   70.5533 O   0  0  0  0  0  0  0  0  0  0  0  0
   -2.8093   20.6256   70.8770 O   0  0  0  0  0  0  0  0  0  0  0  0
  8  9  2  0  0  0
  9 10  1  0  0  0
 10 11  2  0  0  0
 11 12  1  0  0  0
 11 13  1  0  0  0
 12  8  1  0  0  0
  1 12  1  0  0  0
  1  2  1  0  0  0
  2  3  1  0  0  0
  2  6  1  0  0  0
  3  4  1  0  0  0
  3 25  1  0  0  0
  4  5  1  0  0  0
  4 22  1  0  0  0
  5  1  1  0  0  0
 22 23  1  0  0  0
 25 26  1  0  0  0
 26 27  2  0  0  0
 26 28  1  0  0  0
 26 29  1  0  0  0
 13 14  1  0  0  0
 14 15  2  0  0  0
 14 18  1  0  0  0
 15 16  1  0  0  0
 16 17  2  0  0  0
 16 10  1  0  0  0
 23 24  1  0  0  0
  6  7  1  0  0  0
 13 19  1  0  0  0
 18 20  1  0  0  0
 18 21  1  0  0  0
M  CHG 1  28  -1
M  CHG 1  29  -1
M  END
>  <minimizedAffinity>
-6.57876

>  <minimizedRMSD>
2.01377

$$$$
Molport-004-285-276


 39 42  0  0  0  0  0  0  0  0999 V2000
   -1.5391   20.7260   70.8031 C   0  0  0  0  0  0  0  0  0  0  0  0
   -0.0198   20.8698   70.4888 C   0  0  0  0  0  0  0  0  0  0  0  0
    0.8351   19.9402   71.3534 C   0  0  0  0  0  0  0  0  0  0  0  0
    2.3359   20.2736   71.1725 C   0  0  0  0  0  0  0  0  0  0  0  0
    2.7154   20.5217   69.7151 C   0  0  0  0  0  0  0  0  0  0  0  0
    1.7887   20.6490   68.7259 C   0  0  0  0  0  0  0  0  0  0  0  0
    2.2174   20.7143   67.3962 O   0  0  0  0  0  0  0  0  0  0  0  0
    0.2829   20.6156   69.0014 C   0  0  0  0  0  0  0  0  0  0  0  0
   -0.2125   19.3464   68.6397 O   0  0  0  0  0  0  0  0  0  0  0  0
   -0.4900   21.6916   68.2627 C   0  0  0  0  0  0  0  0  0  0  0  0
    0.0690   22.4498   67.4233 O   0  0  0  0  0  0  0  0  0  0  0  0
   -1.9255   21.8690   68.5760 C   0  0  0  0  0  0  0  0  0  0  0  0
   -2.4358   21.3361   69.7098 C   0  0  0  0  0  0  0  0  0  0  0  0
   -3.8224   21.2774   69.8566 O   0  0  0  0  0  0  0  0  0  0  0  0
    4.1717   20.6744   69.4440 C   0  0  0  0  0  0  0  0  0  0  0  0
    4.5788   21.0114   68.2988 O   0  0  0  0  0  0  0  0  0  0  0  0
    5.1540   20.4439   70.5362 C   0  0  0  0  0  0  0  0  0  0  0  0
    6.4874   20.9071   70.4209 C   0  0  0  0  0  0  0  0  0  0  0  0
    6.9018   21.6203   69.2953 O   0  0  0  0  0  0  0  0  0  0  0  0
    7.4058   20.6613   71.4452 C   0  0  0  0  0  0  0  0  0  0  0  0
    7.0208   19.9582   72.5796 C   0  0  0  0  0  0  0  0  0  0  0  0
    5.7119   19.5013   72.7126 C   0  0  0  0  0  0  0  0  0  0  0  0
    4.7440   19.7565   71.7118 C   0  0  0  0  0  0  0  0  0  0  0  0
    3.3066   19.2098   71.8033 C   0  0  0  0  0  0  0  0  0  0  0  0
    2.9025   18.9014   73.2734 C   0  0  0  0  0  0  0  0  0  0  0  0
    3.2774   18.0188   71.0481 O   0  0  0  0  0  0  0  0  0  0  0  0
    1.5772   20.6564   66.6144 H   0  0  0  0  0  0  0  0  0  0  0  0
   -0.1182   19.2494   67.6557 H   0  0  0  0  0  0  0  0  0  0  0  0
   -4.2646   20.7795   70.6152 H   0  0  0  0  0  0  0  0  0  0  0  0
    7.8526   21.9580   69.1974 H   0  0  0  0  0  0  0  0  0  0  0  0
    2.4182   17.5532   71.2170 H   0  0  0  0  0  0  0  0  0  0  0  0
   -2.7927   22.5646   67.5949 C   0  0  0  0  0  0  0  0  0  0  0  0
   -3.8270   23.4535   68.0230 N   0  0  0  0  0  0  0  0  0  0  0  0
   -2.5972   22.3970   66.3612 O   0  0  0  0  0  0  0  0  0  0  0  0
   -4.4551   23.9030   67.3206 H   0  0  0  0  0  0  0  0  0  0  0  0
   -3.9231   23.7257   69.0263 H   0  0  0  0  0  0  0  0  0  0  0  0
   -1.6961   20.3133   73.2508 C   0  0  0  0  0  0  0  0  0  0  0  0
   -1.7775   21.2966   72.1601 N   0  0  0  0  0  0  0  0  0  0  0  0
   -2.9617   22.1626   72.2893 C   0  0  0  0  0  0  0  0  0  0  0  0
 37 38  1  0  0  0
 38 39  1  0  0  0
 38  1  1  0  0  0
  1  2  1  0  0  0
  2  3  1  0  0  0
  3  4  1  0  0  0
  4  5  1  0  0  0
  5  6  2  0  0  0
  6  7  1  0  0  0
  6  8  1  0  0  0
  8  9  1  0  0  0
  8 10  1  0  0  0
 10 11  2  0  0  0
 10 12  1  0  0  0
 12 32  1  0  0  0
 32 33  1  0  0  0
 32 34  2  0  0  0
 12 13  2  0  0  0
 13 14  1  0  0  0
  5 15  1  0  0  0
 15 16  2  0  0  0
 15 17  1  0  0  0
 17 18  2  0  0  0
 18 19  1  0  0  0
 18 20  1  0  0  0
 20 21  2  0  0  0
 21 22  1  0  0  0
 22 23  2  0  0  0
 23 24  1  0  0  0
 24 25  1  0  0  0
 24 26  1  0  0  0
 13  1  1  0  0  0
 23 17  1  0  0  0
  8  2  1  0  0  0
 24  4  1  0  0  0
  7 27  1  0  0  0
  9 28  1  0  0  0
 33 35  1  0  0  0
 33 36  1  0  0  0
 14 29  1  0  0  0
 19 30  1  0  0  0
 26 31  1  0  0  0
M  END
>  <minimizedAffinity>
-6.56876

>  <minimizedRMSD>
2.84940

$$$$
MolPort-046-940-413 MCULE-1070441656 MCULE-4187700588 PubChem-644112 ZINC000031439450 ZINC31439450


 31 31  0  0  0  0  0  0  0  0999 V2000
    4.2625   19.8351   68.6477 O   0  0  0  0  0  0  0  0  0  0  0  0
    0.7688   20.4211   68.5734 C   0  0  0  0  0  0  0  0  0  0  0  0
    0.2284   19.2854   69.4675 C   0  0  0  0  0  0  0  0  0  0  0  0
    1.2006   18.9369   70.5951 C   0  0  0  0  0  0  0  0  0  0  0  0
    2.6036   18.7608   70.0132 C   0  0  0  0  0  0  0  0  0  0  0  0
    2.9652   19.9757   69.1500 C   0  0  0  0  0  0  0  0  0  0  0  0
    2.0570   20.1100   68.0736 O   0  0  0  0  0  0  0  0  0  0  0  0
    3.5353   18.5921   71.0400 O   0  0  0  0  0  0  0  0  0  0  0  0
    1.1950   19.9385   71.5719 O   0  0  0  0  0  0  0  0  0  0  0  0
   -1.0439   19.5768   69.9641 O   0  0  0  0  0  0  0  0  0  0  0  0
    3.5348   19.3774   71.6093 H   0  0  0  0  0  0  0  0  0  0  0  0
    1.4704   20.7793   71.1744 H   0  0  0  0  0  0  0  0  0  0  0  0
   -0.9970   20.3606   70.5336 H   0  0  0  0  0  0  0  0  0  0  0  0
    0.7191   21.8171   69.2035 C   0  0  0  0  0  0  0  0  0  0  0  0
   -0.6028   22.1934   69.4401 O   0  0  0  0  0  0  0  0  0  0  0  0
   -1.0149   21.5610   70.0493 H   0  0  0  0  0  0  0  0  0  0  0  0
    5.0022   20.8502   69.2606 C   0  0  0  0  0  0  0  0  0  0  0  0
    6.4614   20.7745   68.8235 C   0  0  0  0  0  0  0  0  0  0  0  0
    6.8489   21.9788   68.2333 O   0  0  0  0  0  0  0  0  0  0  0  0
    6.7752   22.6956   68.8827 H   0  0  0  0  0  0  0  0  0  0  0  0
    7.3927   20.4435   69.9908 C   0  0  0  0  0  0  0  0  0  0  0  0
    8.5603   21.2086   69.9104 O   0  0  0  0  0  0  0  0  0  0  0  0
    8.3358   22.1495   69.9824 H   0  0  0  0  0  0  0  0  0  0  0  0
    6.7173   20.6410   71.3574 C   0  0  0  0  0  0  0  0  0  0  0  0
    7.2669   21.7473   72.0074 O   0  0  0  0  0  0  0  0  0  0  0  0
    8.2063   21.5839   72.1855 H   0  0  0  0  0  0  0  0  0  0  0  0
    6.8034   19.4200   72.2810 C   0  0  0  0  0  0  0  0  0  0  0  0
    5.5523   19.1134   72.8150 O   0  0  0  0  0  0  0  0  0  0  0  0
    4.9451   18.8717   72.0981 H   0  0  0  0  0  0  0  0  0  0  0  0
    7.3809   18.2193   71.6005 C   0  0  0  0  0  0  0  0  0  0  0  0
    7.7284   17.2533   72.2586 O   0  0  0  0  0  0  0  0  0  0  0  0
 14 15  1  0  0  0
  2 14  1  0  0  0
  2  3  1  0  0  0
  3  4  1  0  0  0
  3 10  1  0  0  0
  4  5  1  0  0  0
  4  9  1  0  0  0
  5  6  1  0  0  0
  5  8  1  0  0  0
  6  7  1  0  0  0
  6  1  1  0  0  0
  7  2  1  0  0  0
  1 17  1  0  0  0
 18 17  1  0  0  0
 18 21  1  0  0  0
 18 19  1  0  0  0
 21 24  1  0  0  0
 21 22  1  0  0  0
 24 27  1  0  0  0
 24 25  1  0  0  0
 27 30  1  0  0  0
 27 28  1  0  0  0
 30 31  2  0  0  0
 28 29  1  0  0  0
 25 26  1  0  0  0
 22 23  1  0  0  0
 19 20  1  0  0  0
  8 11  1  0  0  0
  9 12  1  0  0  0
 10 13  1  0  0  0
 15 16  1  0  0  0
M  END
>  <minimizedAffinity>
-6.56687

>  <minimizedRMSD>
2.34755

$$$$
MolPort-046-836-877 CSSS00161190099 MCULE-8100230467 MCULE-8490482627 PubChem-131637446


 38 39  0  0  0  0  0  0  0  0999 V2000
    6.2654   20.7972   73.6724 C   0  0  0  0  0  0  0  0  0  0  0  0
    5.4131   21.8044   73.4471 C   0  0  0  0  0  0  0  0  0  0  0  0
    4.8493   22.0270   72.1868 O   0  0  0  0  0  0  0  0  0  0  0  0
    4.9406   21.0632   71.1392 C   0  0  0  0  0  0  0  0  0  0  0  0
    6.3368   20.4241   71.1277 C   0  0  0  0  0  0  0  0  0  0  0  0
    6.6424   19.8505   72.5384 C   0  0  0  0  0  0  0  0  0  0  0  0
    6.3571   19.3814   70.1954 O   0  0  0  0  0  0  0  0  0  0  0  0
    5.6969   18.7147   70.4416 H   0  0  0  0  0  0  0  0  0  0  0  0
    6.6966   20.5533   75.0665 C   0  0  0  0  0  0  0  0  0  0  0  0
    6.2636   19.5520   75.7005 O   0  0  0  0  0  0  0  0  0  0  0  0
    7.1808   22.2135   76.8211 C   0  0  0  0  0  0  0  0  0  0  0  0
    7.5695   21.4503   75.6889 O   0  0  0  0  0  0  0  0  0  0  0  0
    8.0911   19.3590   72.6550 C   0  0  0  0  0  0  0  0  0  0  0  0
    8.1508   17.8730   72.7573 C   0  0  0  0  0  0  0  0  0  0  0  0
    8.9555   17.3236   73.5544 O   0  0  0  0  0  0  0  0  0  0  0  0
    7.3259   17.0924   71.9594 O   0  0  0  0  0  0  0  0  0  0  0  0
    6.7264   17.4998   71.3656 H   0  0  0  0  0  0  0  0  0  0  0  0
    7.3859   21.4814   70.7347 C   0  0  0  0  0  0  0  0  0  0  0  0
    7.7860   21.4186   69.2935 C   0  0  0  0  0  0  0  0  0  0  0  0
    7.1796   22.1062   68.4310 O   0  0  0  0  0  0  0  0  0  0  0  0
    8.8498   20.6136   68.9104 O   0  0  0  0  0  0  0  0  0  0  0  0
    9.3033   20.1005   69.5500 H   0  0  0  0  0  0  0  0  0  0  0  0
    3.9518   20.0875   71.3111 O   0  0  0  0  0  0  0  0  0  0  0  0
    3.1448   20.1929   70.1770 C   0  0  0  0  0  0  0  0  0  0  0  0
    3.2367   18.9000   69.3519 C   0  0  0  0  0  0  0  0  0  0  0  0
    1.8777   18.4705   68.7806 C   0  0  0  0  0  0  0  0  0  0  0  0
    0.9712   19.6594   68.4282 C   0  0  0  0  0  0  0  0  0  0  0  0
    1.1585   20.8485   69.3838 C   0  0  0  0  0  0  0  0  0  0  0  0
    1.8196   20.4568   70.5608 O   0  0  0  0  0  0  0  0  0  0  0  0
    1.2229   20.0718   67.1198 O   0  0  0  0  0  0  0  0  0  0  0  0
    1.2270   17.6497   69.7020 O   0  0  0  0  0  0  0  0  0  0  0  0
    4.1502   19.0775   68.3132 O   0  0  0  0  0  0  0  0  0  0  0  0
    2.1424   20.3719   67.0466 H   0  0  0  0  0  0  0  0  0  0  0  0
    1.0612   18.1474   70.5178 H   0  0  0  0  0  0  0  0  0  0  0  0
    3.8403   19.7860   67.7276 H   0  0  0  0  0  0  0  0  0  0  0  0
   -0.1928   21.4495   69.7222 C   0  0  0  0  0  0  0  0  0  0  0  0
   -0.1356   22.8382   69.6054 O   0  0  0  0  0  0  0  0  0  0  0  0
    0.5304   23.1871   70.2182 H   0  0  0  0  0  0  0  0  0  0  0  0
 11 12  1  0  0  0
 12  9  1  0  0  0
  9 10  2  0  0  0
  9  1  1  0  0  0
  1  2  2  0  0  0
  2  3  1  0  0  0
  3  4  1  0  0  0
  4  5  1  0  0  0
  5  6  1  0  0  0
  6 13  1  0  0  0
 13 14  1  0  0  0
 14 15  2  0  0  0
 14 16  1  0  0  0
  5 18  1  0  0  0
 18 19  1  0  0  0
 19 20  2  0  0  0
 19 21  1  0  0  0
  5  7  1  0  0  0
  4 23  1  0  0  0
 24 23  1  0  0  0
 24 25  1  0  0  0
 25 26  1  0  0  0
 26 27  1  0  0  0
 27 28  1  0  0  0
 28 29  1  0  0  0
 28 36  1  0  0  0
 36 37  1  0  0  0
 27 30  1  0  0  0
 26 31  1  0  0  0
 25 32  1  0  0  0
  6  1  1  0  0  0
 29 24  1  0  0  0
 16 17  1  0  0  0
 21 22  1  0  0  0
  7  8  1  0  0  0
 37 38  1  0  0  0
 30 33  1  0  0  0
 31 34  1  0  0  0
 32 35  1  0  0  0
M  END
>  <minimizedAffinity>
-6.54744

>  <minimizedRMSD>
2.49826

$$$$
Molport-053-210-514 4095892 MCULE-4138501911 PubChem-131878449 PubChem-439762 ZINC000004095892


 36 37  0  0  0  0  0  0  0  0999 V2000
   -0.3140   19.0295   70.8465 C   0  0  0  0  0  0  0  0  0  0  0  0
   -0.4113   20.4337   71.4617 C   0  0  0  0  0  0  0  0  0  0  0  0
   -1.7845   20.4598   72.0556 C   0  0  0  0  0  0  0  0  0  0  0  0
   -2.5121   19.3313   71.3529 C   0  0  0  0  0  0  0  0  0  0  0  0
   -1.6244   18.6596   70.4867 O   0  0  0  0  0  0  0  0  0  0  0  0
   -1.7097   20.1836   73.4207 O   0  0  0  0  0  0  0  0  0  0  0  0
   -0.3484   21.4164   70.4703 O   0  0  0  0  0  0  0  0  0  0  0  0
   -1.2732   19.3277   73.5540 H   0  0  0  0  0  0  0  0  0  0  0  0
   -1.0560   21.2689   69.8235 H   0  0  0  0  0  0  0  0  0  0  0  0
    0.1776   17.9894   71.8769 C   0  0  0  0  0  0  0  0  0  0  0  0
    0.7324   18.5958   73.0059 O   0  0  0  0  0  0  0  0  0  0  0  0
    1.5006   19.1266   72.7433 H   0  0  0  0  0  0  0  0  0  0  0  0
    0.4771   18.9959   69.6658 O   0  0  0  0  0  0  0  0  0  0  0  0
    3.9567   18.6634   70.3179 C   0  0  0  0  0  0  0  0  0  0  0  0
    4.5960   19.7129   69.3938 C   0  0  0  0  0  0  0  0  0  0  0  0
    3.6593   20.8968   69.1356 C   0  0  0  0  0  0  0  0  0  0  0  0
    2.2284   20.4370   68.8674 C   0  0  0  0  0  0  0  0  0  0  0  0
    1.8001   19.4099   69.9216 C   0  0  0  0  0  0  0  0  0  0  0  0
    2.6560   18.2853   69.9012 O   0  0  0  0  0  0  0  0  0  0  0  0
    2.1330   19.8912   67.5849 O   0  0  0  0  0  0  0  0  0  0  0  0
    3.6809   21.7685   70.2255 O   0  0  0  0  0  0  0  0  0  0  0  0
    4.9511   19.1173   68.1829 O   0  0  0  0  0  0  0  0  0  0  0  0
    2.7225   19.1241   67.5153 H   0  0  0  0  0  0  0  0  0  0  0  0
    3.3628   21.3054   71.0163 H   0  0  0  0  0  0  0  0  0  0  0  0
    4.1556   18.7763   67.7448 H   0  0  0  0  0  0  0  0  0  0  0  0
    4.0184   19.0474   71.7943 C   0  0  0  0  0  0  0  0  0  0  0  0
    5.3436   19.0583   72.2295 O   0  0  0  0  0  0  0  0  0  0  0  0
    5.8481   19.7063   71.7133 H   0  0  0  0  0  0  0  0  0  0  0  0
   -3.6792   19.8791   70.5497 C   0  0  0  0  0  0  0  0  0  0  0  0
   -3.8341   21.2448   70.7988 O   0  0  0  0  0  0  0  0  0  0  0  0
   -3.9893   21.9623   69.2711 P   0  0  0  0  0  0  0  0  0  0  0  0
   -4.5237   23.3663   69.4350 O   0  0  0  0  0  0  0  0  0  0  0  0
   -5.0639   21.0664   68.3194 O   0  0  0  0  0  0  0  0  0  0  0  0
   -2.4798   22.0283   68.5087 O   0  0  0  0  0  0  0  0  0  0  0  0
   -5.9289   21.0287   68.7567 H   0  0  0  0  0  0  0  0  0  0  0  0
   -1.8641   22.5419   69.0545 H   0  0  0  0  0  0  0  0  0  0  0  0
 26 27  1  0  0  0
 14 26  1  0  0  0
 14 15  1  0  0  0
 15 16  1  0  0  0
 15 22  1  0  0  0
 16 17  1  0  0  0
 16 21  1  0  0  0
 17 18  1  0  0  0
 17 20  1  0  0  0
 18 19  1  0  0  0
 18 13  1  0  0  0
 19 14  1  0  0  0
  1 13  1  0  0  0
  1  2  1  0  0  0
  1 10  1  0  0  0
  2  3  1  0  0  0
  2  7  1  0  0  0
  3  4  1  0  0  0
  3  6  1  0  0  0
  4  5  1  0  0  0
  4 29  1  0  0  0
  5  1  1  0  0  0
 29 30  1  0  0  0
 30 31  1  0  0  0
 31 32  2  0  0  0
 31 33  1  0  0  0
 31 34  1  0  0  0
 10 11  1  0  0  0
 33 35  1  0  0  0
 34 36  1  0  0  0
  6  8  1  0  0  0
  7  9  1  0  0  0
 11 12  1  0  0  0
 20 23  1  0  0  0
 21 24  1  0  0  0
 22 25  1  0  0  0
 27 28  1  0  0  0
M  END
>  <minimizedAffinity>
-6.54440

>  <minimizedRMSD>
6.89683

$$$$
MolPort-047-971-257


 33 32  0  0  0  0  0  0  0  0999 V2000
    4.4888   23.1048   66.9248 Ca  0  0  0  0  0  0  0  0  0  0  0  0
    2.4086   21.2719   69.7499 O   0  0  0  0  0  0  0  0  0  0  0  0
    1.6464   20.1176   69.8873 C   0  0  0  0  0  0  0  0  0  0  0  0
    2.1663   19.0917   70.4010 O   0  0  0  0  0  0  0  0  0  0  0  0
    0.2116   20.1025   69.4285 C   0  0  0  0  0  0  0  0  0  0  0  0
   -0.2575   18.7886   69.3228 O   0  0  0  0  0  0  0  0  0  0  0  0
   -1.1812   18.7979   69.0268 H   0  0  0  0  0  0  0  0  0  0  0  0
    0.1023   20.7757   68.0660 C   0  0  0  0  0  0  0  0  0  0  0  0
    1.0089   20.2191   67.1604 O   0  0  0  0  0  0  0  0  0  0  0  0
    1.9128   20.3453   67.4889 H   0  0  0  0  0  0  0  0  0  0  0  0
   -0.6677   20.8839   70.4076 C   0  0  0  0  0  0  0  0  0  0  0  0
   -1.5289   19.9879   71.2967 C   0  0  0  0  0  0  0  0  0  0  0  0
   -2.7653   19.7482   70.6940 O   0  0  0  0  0  0  0  0  0  0  0  0
   -3.2338   20.5887   70.5718 H   0  0  0  0  0  0  0  0  0  0  0  0
   -2.3398   21.8805   72.5346 O   0  0  0  0  0  0  0  0  0  0  0  0
   -1.7322   20.6293   72.6615 C   0  0  0  0  0  0  0  0  0  0  0  0
   -2.4604   22.2721   73.4138 H   0  0  0  0  0  0  0  0  0  0  0  0
    5.2039   21.6520   68.0359 O   0  0  0  0  0  0  0  0  0  0  0  0
    5.4250   20.4129   68.6265 C   0  0  0  0  0  0  0  0  0  0  0  0
    4.8369   19.3974   68.1666 O   0  0  0  0  0  0  0  0  0  0  0  0
    6.3176   20.2946   69.8311 C   0  0  0  0  0  0  0  0  0  0  0  0
    6.2961   21.4952   70.5489 O   0  0  0  0  0  0  0  0  0  0  0  0
    6.6366   22.2117   69.9907 H   0  0  0  0  0  0  0  0  0  0  0  0
    7.7530   19.9888   69.3986 C   0  0  0  0  0  0  0  0  0  0  0  0
    7.9465   20.3107   68.0528 O   0  0  0  0  0  0  0  0  0  0  0  0
    7.3451   19.7829   67.5044 H   0  0  0  0  0  0  0  0  0  0  0  0
    5.7799   19.1667   70.7143 C   0  0  0  0  0  0  0  0  0  0  0  0
    6.0258   19.3972   72.2025 C   0  0  0  0  0  0  0  0  0  0  0  0
    6.6634   18.2852   72.7511 O   0  0  0  0  0  0  0  0  0  0  0  0
    6.1011   17.5026   72.6403 H   0  0  0  0  0  0  0  0  0  0  0  0
    4.7045   19.6140   72.9149 C   0  0  0  0  0  0  0  0  0  0  0  0
    3.9952   20.6434   72.2967 O   0  0  0  0  0  0  0  0  0  0  0  0
    4.5143   21.4620   72.3347 H   0  0  0  0  0  0  0  0  0  0  0  0
 15 16  1  0  0  0
 16 12  1  0  0  0
 12 13  1  0  0  0
 12 11  1  0  0  0
 11  5  1  0  0  0
  5  6  1  0  0  0
  5  8  1  0  0  0
  8  9  1  0  0  0
  5  3  1  0  0  0
  3  4  2  0  0  0
  3  2  1  0  0  0
  2  1  1  0  0  0
  1 18  1  0  0  0
 18 19  1  0  0  0
 19 20  2  0  0  0
 19 21  1  0  0  0
 21 22  1  0  0  0
 21 24  1  0  0  0
 24 25  1  0  0  0
 21 27  1  0  0  0
 27 28  1  0  0  0
 28 29  1  0  0  0
 28 31  1  0  0  0
 31 32  1  0  0  0
 15 17  1  0  0  0
 13 14  1  0  0  0
  6  7  1  0  0  0
  9 10  1  0  0  0
 22 23  1  0  0  0
 25 26  1  0  0  0
 29 30  1  0  0  0
 32 33  1  0  0  0
M  END
>  <minimizedAffinity>
-6.53439

>  <minimizedRMSD>
3.63643

$$$$
MolPort-002-322-364 CHEMBL3217818 CSSS02125566021 MCULE-4885321029 PubChem-3419432


 26 26  0  0  0  0  0  0  0  0999 V2000
    0.7631   20.9782   69.3294 C   0  0  0  0  0  0  0  0  0  0  0  0
    0.7293   20.7815   70.7132 O   0  0  0  0  0  0  0  0  0  0  0  0
    0.0976   20.0763   70.9242 H   0  0  0  0  0  0  0  0  0  0  0  0
   -0.6242   21.4069   68.8424 C   0  0  0  0  0  0  0  0  0  0  0  0
   -0.5380   21.9608   67.4846 N   0  0  0  0  0  0  0  0  0  0  0  0
   -1.8392   22.2526   67.0295 N   0  0  0  0  0  0  0  0  0  0  0  0
   -2.8153   22.7525   67.9405 C   0  0  0  0  0  0  0  0  0  0  0  0
   -4.3274   23.0988   67.4341 S   0  0  0  0  0  0  0  0  0  0  0  0
   -2.5082   22.6988   69.3313 N   0  0  0  0  0  0  0  0  0  0  0  0
   -1.1906   22.4200   69.7430 N   0  0  0  0  0  0  0  0  0  0  0  0
   -0.1024   21.2792   66.8633 H   0  0  0  0  0  0  0  0  0  0  0  0
   -2.0739   22.1115   66.0839 H   0  0  0  0  0  0  0  0  0  0  0  0
   -3.2131   22.8558   70.0004 H   0  0  0  0  0  0  0  0  0  0  0  0
   -1.1969   22.0651   70.6992 H   0  0  0  0  0  0  0  0  0  0  0  0
    1.2312   19.6856   68.6354 C   0  0  0  0  0  0  0  0  0  0  0  0
    1.1900   19.8203   67.2460 O   0  0  0  0  0  0  0  0  0  0  0  0
    1.8169   20.5067   66.9690 H   0  0  0  0  0  0  0  0  0  0  0  0
    2.6337   19.2244   69.0613 C   0  0  0  0  0  0  0  0  0  0  0  0
    2.5796   18.6678   70.3416 O   0  0  0  0  0  0  0  0  0  0  0  0
    2.2979   19.3446   70.9768 H   0  0  0  0  0  0  0  0  0  0  0  0
    3.6903   20.3338   69.0006 C   0  0  0  0  0  0  0  0  0  0  0  0
    4.2697   20.3802   67.7308 O   0  0  0  0  0  0  0  0  0  0  0  0
    4.7065   19.5346   67.5436 H   0  0  0  0  0  0  0  0  0  0  0  0
    5.7625   21.0691   69.9298 O   0  0  0  0  0  0  0  0  0  0  0  0
    4.7768   20.0879   70.0350 C   0  0  0  0  0  0  0  0  0  0  0  0
    6.4524   20.9067   70.5920 H   0  0  0  0  0  0  0  0  0  0  0  0
 24 25  1  0  0  0
 21 25  1  0  0  0
 21 22  1  0  0  0
 21 18  1  0  0  0
 18 19  1  0  0  0
 18 15  1  0  0  0
 15 16  1  0  0  0
 15  1  1  0  0  0
  1  2  1  0  0  0
  1  4  1  0  0  0
  4  5  1  0  0  0
  5  6  1  0  0  0
  6  7  1  0  0  0
  7  8  2  0  0  0
  7  9  1  0  0  0
  9 10  1  0  0  0
 10  4  1  0  0  0
 24 26  1  0  0  0
 22 23  1  0  0  0
 19 20  1  0  0  0
 16 17  1  0  0  0
  2  3  1  0  0  0
  5 11  1  0  0  0
  6 12  1  0  0  0
  9 13  1  0  0  0
 10 14  1  0  0  0
M  END
>  <minimizedAffinity>
-6.53326

>  <minimizedRMSD>
1.51132

$$$$
MolPort-005-980-009 MCULE-4833478306 PubChem-42569046


 24 26  0  0  0  0  0  0  0  0999 V2000
    3.2726   19.4702   69.7622 C   0  0  0  0  0  0  0  0  0  0  0  0
    4.3276   19.6094   68.7690 N   0  0  0  0  0  0  0  0  0  0  0  0
    4.1177   19.3672   67.8382 H   0  0  0  0  0  0  0  0  0  0  0  0
    5.6508   20.0755   69.0568 C   0  0  0  0  0  0  0  0  0  0  0  0
    6.1301   21.1800   68.4115 N   0  0  0  0  0  0  0  0  0  0  0  0
    7.3895   21.6643   68.6556 C   0  0  0  0  0  0  0  0  0  0  0  0
    8.2063   21.0476   69.5611 N   0  0  0  0  0  0  0  0  0  0  0  0
    7.7343   19.9526   70.2028 C   0  0  0  0  0  0  0  0  0  0  0  0
    6.4984   19.4572   69.9793 C   0  0  0  0  0  0  0  0  0  0  0  0
    6.2962   18.3768   70.7467 N   0  0  0  0  0  0  0  0  0  0  0  0
    7.4690   18.2627   71.4285 C   0  0  0  0  0  0  0  0  0  0  0  0
    8.3831   19.2217   71.1171 N   0  0  0  0  0  0  0  0  0  0  0  0
    5.4961   17.8060   70.8034 H   0  0  0  0  0  0  0  0  0  0  0  0
    1.9760   19.0516   69.0903 C   0  0  0  0  0  0  0  0  0  0  0  0
    0.4749   20.6529   67.8480 N   0  0  0  0  0  0  0  0  0  0  0  0
    0.9971   20.1751   69.0931 C   0  0  0  0  0  0  0  0  0  0  0  0
    0.6661   20.7033   70.1873 O   0  0  0  0  0  0  0  0  0  0  0  0
    0.7721   20.1860   67.0338 H   0  0  0  0  0  0  0  0  0  0  0  0
   -0.4372   21.7433   67.6703 C   0  0  0  0  0  0  0  0  0  0  0  0
   -2.0991   21.7060   67.9568 S   0  0  0  0  0  0  0  0  0  0  0  0
   -2.2901   23.3144   67.5104 C   0  0  0  0  0  0  0  0  0  0  0  0
   -1.0583   23.8427   67.1503 C   0  0  0  0  0  0  0  0  0  0  0  0
   -0.0293   22.9581   67.2431 N   0  0  0  0  0  0  0  0  0  0  0  0
   -3.5784   24.0548   67.5038 C   0  0  0  0  0  0  0  0  0  0  0  0
 19 20  1  0  0  0
 20 21  1  0  0  0
 21 22  2  0  0  0
 22 23  1  0  0  0
 21 24  1  0  0  0
 19 15  1  0  0  0
 15 16  1  0  0  0
 16 17  2  0  0  0
 16 14  1  0  0  0
 14  1  1  0  0  0
  1  2  1  0  0  0
  2  4  1  0  0  0
  4  5  2  0  0  0
  5  6  1  0  0  0
  6  7  2  0  0  0
  7  8  1  0  0  0
  8  9  2  0  0  0
  9 10  1  0  0  0
 10 11  1  0  0  0
 11 12  2  0  0  0
 23 19  2  0  0  0
  9  4  1  0  0  0
 12  8  1  0  0  0
 15 18  1  0  0  0
  2  3  1  0  0  0
 10 13  1  0  0  0
M  END
>  <minimizedAffinity>
-6.52918

>  <minimizedRMSD>
1.96078

$$$$
Molport-046-935-292


 31 31  0  0  0  0  0  0  0  0999 V2000
    1.4777   20.1206   70.7472 O   0  0  0  0  0  0  0  0  0  0  0  0
    2.2767   18.9596   70.5262 C   0  0  0  0  0  0  0  0  0  0  0  0
    3.0685   19.1335   69.3612 O   0  0  0  0  0  0  0  0  0  0  0  0
    3.9436   20.2476   69.4772 C   0  0  0  0  0  0  0  0  0  0  0  0
    4.9516   20.0481   70.6347 C   0  0  0  0  0  0  0  0  0  0  0  0
    5.7452   21.1995   70.7715 O   0  0  0  0  0  0  0  0  0  0  0  0
    4.1947   19.7837   71.9469 C   0  0  0  0  0  0  0  0  0  0  0  0
    5.1131   19.4292   72.9489 O   0  0  0  0  0  0  0  0  0  0  0  0
    3.1835   18.6470   71.7376 C   0  0  0  0  0  0  0  0  0  0  0  0
    2.4208   18.4656   72.9010 O   0  0  0  0  0  0  0  0  0  0  0  0
    6.5696   20.9266   71.2527 H   0  0  0  0  0  0  0  0  0  0  0  0
    4.6671   19.5947   73.8204 H   0  0  0  0  0  0  0  0  0  0  0  0
    1.9956   17.5715   72.8273 H   0  0  0  0  0  0  0  0  0  0  0  0
    4.6648   20.4379   68.1363 C   0  0  0  0  0  0  0  0  0  0  0  0
    4.9665   21.7911   67.9303 O   0  0  0  0  0  0  0  0  0  0  0  0
    5.4266   21.8399   67.0524 H   0  0  0  0  0  0  0  0  0  0  0  0
    0.1197   19.9613   70.3536 C   0  0  0  0  0  0  0  0  0  0  0  0
   -0.3132   21.1731   69.4787 C   0  0  0  0  0  0  0  0  0  0  0  0
   -1.7109   21.3145   69.5285 O   0  0  0  0  0  0  0  0  0  0  0  0
   -1.9130   22.2781   69.4005 H   0  0  0  0  0  0  0  0  0  0  0  0
   -0.2296   22.1586   67.2701 O   0  0  0  0  0  0  0  0  0  0  0  0
    0.1130   21.0162   68.0080 C   0  0  0  0  0  0  0  0  0  0  0  0
    0.4150   22.8683   67.5288 H   0  0  0  0  0  0  0  0  0  0  0  0
   -0.7309   19.8827   71.6507 C   0  0  0  0  0  0  0  0  0  0  0  0
    0.0732   20.1608   72.7676 O   0  0  0  0  0  0  0  0  0  0  0  0
   -0.5395   20.3550   73.5248 H   0  0  0  0  0  0  0  0  0  0  0  0
   -1.4079   18.5352   71.8317 C   0  0  0  0  0  0  0  0  0  0  0  0
   -2.5493   18.3941   71.4189 O   0  0  0  0  0  0  0  0  0  0  0  0
   -0.7308   17.3471   72.4739 C   0  0  0  0  0  0  0  0  0  0  0  0
   -0.2868   17.6294   73.7735 O   0  0  0  0  0  0  0  0  0  0  0  0
   -1.0614   17.4867   74.3779 H   0  0  0  0  0  0  0  0  0  0  0  0
 21 22  1  0  0  0
 22 18  1  0  0  0
 18 19  1  0  0  0
 18 17  1  0  0  0
 17  1  1  0  0  0
  1  2  1  0  0  0
  2  3  1  0  0  0
  3  4  1  0  0  0
  4 14  1  0  0  0
 14 15  1  0  0  0
  4  5  1  0  0  0
  5  6  1  0  0  0
  5  7  1  0  0  0
  7  8  1  0  0  0
  7  9  1  0  0  0
  9 10  1  0  0  0
 17 24  1  0  0  0
 24 25  1  0  0  0
 24 27  1  0  0  0
 27 28  2  0  0  0
 27 29  1  0  0  0
 29 30  1  0  0  0
  9  2  1  0  0  0
 21 23  1  0  0  0
 19 20  1  0  0  0
 15 16  1  0  0  0
  6 11  1  0  0  0
  8 12  1  0  0  0
 10 13  1  0  0  0
 25 26  1  0  0  0
 30 31  1  0  0  0
M  END
>  <minimizedAffinity>
-6.50800

>  <minimizedRMSD>
4.47507

$$$$
MolPort-002-745-915 5679011 CSSS00159741416 ChemDiv-8018-7226 LN01833080 MCULE-9167706816 PubChem-5116902 ZINC000005679011 ZINC05679011


 26 27  0  0  0  0  0  0  0  0999 V2000
    4.4844   19.3872   73.8461 C   0  0  0  0  0  0  0  0  0  0  0  0
    2.3843   19.1313   72.4682 C   0  0  0  0  0  0  0  0  0  0  0  0
    1.7438   18.7748   73.4945 O   0  0  0  0  0  0  0  0  0  0  0  0
    3.7743   19.4494   72.5785 N   0  0  0  0  0  0  0  0  0  0  0  0
    4.2666   19.7194   71.7697 H   0  0  0  0  0  0  0  0  0  0  0  0
   -0.2044   20.4501   72.0515 O   0  0  0  0  0  0  0  0  0  0  0  0
    0.4632   19.8680   70.9802 C   0  0  0  0  0  0  0  0  0  0  0  0
    1.7112   19.2255   71.1516 C   0  0  0  0  0  0  0  0  0  0  0  0
    2.3372   18.6559   70.0315 C   0  0  0  0  0  0  0  0  0  0  0  0
    1.7430   18.7195   68.7693 C   0  0  0  0  0  0  0  0  0  0  0  0
    0.5116   19.3555   68.6099 C   0  0  0  0  0  0  0  0  0  0  0  0
   -0.1252   19.9275   69.7126 C   0  0  0  0  0  0  0  0  0  0  0  0
    0.1718   20.4217   72.9092 H   0  0  0  0  0  0  0  0  0  0  0  0
    5.9170   19.8481   73.6576 C   0  0  0  0  0  0  0  0  0  0  0  0
    6.0556   20.5183   72.3727 N   0  0  0  0  0  0  0  0  0  0  0  0
    5.3077   21.0723   72.0518 H   0  0  0  0  0  0  0  0  0  0  0  0
    7.2241   20.4131   71.5516 C   0  0  0  0  0  0  0  0  0  0  0  0
    8.4505   20.0481   72.1303 C   0  0  0  0  0  0  0  0  0  0  0  0
    9.6034   19.9418   71.3525 C   0  0  0  0  0  0  0  0  0  0  0  0
    9.5445   20.1998   69.9844 C   0  0  0  0  0  0  0  0  0  0  0  0
   10.9891   20.0681   69.0057 Cl  0  0  0  0  0  0  0  0  0  0  0  0
    8.3331   20.5628   69.3948 C   0  0  0  0  0  0  0  0  0  0  0  0
    7.1607   20.6747   70.1589 C   0  0  0  0  0  0  0  0  0  0  0  0
    5.9383   21.0509   69.4939 N   0  0  0  0  0  0  0  0  0  0  0  0
    5.9759   21.4905   68.1901 O   0  0  0  0  0  0  0  0  0  0  0  0
    4.8325   20.9796   70.0682 O   0  0  0  0  0  0  0  0  0  0  0  0
  6  7  1  0  0  0
  7  8  2  0  0  0
  8  9  1  0  0  0
  9 10  2  0  0  0
 10 11  1  0  0  0
 11 12  2  0  0  0
  8  2  1  0  0  0
  2  3  2  0  0  0
  2  4  1  0  0  0
  4  1  1  0  0  0
  1 14  1  0  0  0
 14 15  1  0  0  0
 15 17  1  0  0  0
 17 18  2  0  0  0
 18 19  1  0  0  0
 19 20  2  0  0  0
 20 21  1  0  0  0
 20 22  1  0  0  0
 22 23  2  0  0  0
 23 24  1  0  0  0
 24 25  1  0  0  0
 24 26  2  0  0  0
 12  7  1  0  0  0
 23 17  1  0  0  0
  6 13  1  0  0  0
  4  5  1  0  0  0
 15 16  1  0  0  0
M  CHG 1  24   1
M  CHG 1  25  -1
M  END
>  <minimizedAffinity>
-6.50439

>  <minimizedRMSD>
3.54115

$$$$
MolPort-044-561-492 MolPort-046-795-587 MolPort-047-115-734 CSSS00159254955 MCULE-1269854484 MCULE-4612944962 ZINC000100545802


 32 33  0  0  0  0  0  0  0  0999 V2000
    1.7231   20.4567   68.9024 O   0  0  0  0  0  0  0  0  0  0  0  0
    3.0842   20.2798   69.2387 C   0  0  0  0  0  0  0  0  0  0  0  0
    3.7735   19.0884   68.5600 C   0  0  0  0  0  0  0  0  0  0  0  0
    3.1033   17.8925   68.8262 O   0  0  0  0  0  0  0  0  0  0  0  0
    5.2213   19.0058   69.0386 C   0  0  0  0  0  0  0  0  0  0  0  0
    5.8967   17.9855   68.3681 O   0  0  0  0  0  0  0  0  0  0  0  0
    5.3428   18.8074   70.5574 C   0  0  0  0  0  0  0  0  0  0  0  0
    6.5598   19.3260   70.9984 O   0  0  0  0  0  0  0  0  0  0  0  0
    4.1934   19.4108   71.3833 C   0  0  0  0  0  0  0  0  0  0  0  0
    3.2764   18.4146   71.7184 O   0  0  0  0  0  0  0  0  0  0  0  0
    3.4731   20.5803   70.7017 C   0  0  0  0  0  0  0  0  0  0  0  0
    4.2757   21.7202   70.7454 O   0  0  0  0  0  0  0  0  0  0  0  0
    3.1049   17.7268   69.7820 H   0  0  0  0  0  0  0  0  0  0  0  0
    5.4846   17.1328   68.5778 H   0  0  0  0  0  0  0  0  0  0  0  0
    6.5798   20.2828   70.8403 H   0  0  0  0  0  0  0  0  0  0  0  0
    2.8778   18.0568   70.9097 H   0  0  0  0  0  0  0  0  0  0  0  0
    5.0945   21.5582   70.2511 H   0  0  0  0  0  0  0  0  0  0  0  0
   -0.0336   18.5231   71.3177 C   0  0  0  0  0  0  0  0  0  0  0  0
    0.6721   18.8165   70.1221 O   0  0  0  0  0  0  0  0  0  0  0  0
    0.9251   20.2058   70.0324 C   0  0  0  0  0  0  0  0  0  0  0  0
   -0.3883   20.9863   69.9086 C   0  0  0  0  0  0  0  0  0  0  0  0
   -0.1247   22.3537   69.8120 O   0  0  0  0  0  0  0  0  0  0  0  0
   -1.2401   20.7199   71.1437 C   0  0  0  0  0  0  0  0  0  0  0  0
   -2.4907   21.3274   71.0132 O   0  0  0  0  0  0  0  0  0  0  0  0
   -1.3988   19.2168   71.3754 C   0  0  0  0  0  0  0  0  0  0  0  0
   -2.2433   18.6594   70.4118 O   0  0  0  0  0  0  0  0  0  0  0  0
    0.3476   22.6489   70.6061 H   0  0  0  0  0  0  0  0  0  0  0  0
   -2.9528   20.9546   70.2462 H   0  0  0  0  0  0  0  0  0  0  0  0
   -1.8581   18.7879   69.5310 H   0  0  0  0  0  0  0  0  0  0  0  0
    1.1087   17.5444   73.1752 O   0  0  0  0  0  0  0  0  0  0  0  0
    0.7930   18.7638   72.5778 C   0  0  0  0  0  0  0  0  0  0  0  0
    1.6339   17.7026   73.9753 H   0  0  0  0  0  0  0  0  0  0  0  0
 30 31  1  0  0  0
 18 31  1  0  0  0
 18 19  1  0  0  0
 19 20  1  0  0  0
 20  1  1  0  0  0
  2  1  1  0  0  0
  2  3  1  0  0  0
  3  4  1  0  0  0
  3  5  1  0  0  0
  5  6  1  0  0  0
  5  7  1  0  0  0
  7  8  1  0  0  0
  7  9  1  0  0  0
  9 10  1  0  0  0
  9 11  1  0  0  0
 11 12  1  0  0  0
 20 21  1  0  0  0
 21 22  1  0  0  0
 21 23  1  0  0  0
 23 24  1  0  0  0
 23 25  1  0  0  0
 25 26  1  0  0  0
 25 18  1  0  0  0
 11  2  1  0  0  0
 30 32  1  0  0  0
  4 13  1  0  0  0
  6 14  1  0  0  0
  8 15  1  0  0  0
 10 16  1  0  0  0
 12 17  1  0  0  0
 22 27  1  0  0  0
 24 28  1  0  0  0
 26 29  1  0  0  0
M  END
>  <minimizedAffinity>
-6.49718

>  <minimizedRMSD>
6.55029

$$$$
Molport-051-854-410 MCULE-2976250337 MCULE-6382101586 PubChem-164618


 28 29  0  0  0  0  0  0  0  0999 V2000
    1.2793   19.8796   70.4664 C   0  0  0  0  0  0  0  0  0  0  0  0
    0.2079   19.4750   71.4878 C   0  0  0  0  0  0  0  0  0  0  0  0
   -0.5384   18.3917   71.0196 O   0  0  0  0  0  0  0  0  0  0  0  0
    0.0455   17.6276   70.8926 H   0  0  0  0  0  0  0  0  0  0  0  0
    0.8300   19.1208   72.7992 C   0  0  0  0  0  0  0  0  0  0  0  0
    1.5809   19.9029   73.3594 O   0  0  0  0  0  0  0  0  0  0  0  0
    0.6963   20.3325   69.1239 C   0  0  0  0  0  0  0  0  0  0  0  0
    0.1529   19.2599   68.4093 O   0  0  0  0  0  0  0  0  0  0  0  0
   -0.5908   18.8842   68.9059 H   0  0  0  0  0  0  0  0  0  0  0  0
   -0.3145   21.4657   69.2863 C   0  0  0  0  0  0  0  0  0  0  0  0
   -1.6103   20.9601   69.4205 O   0  0  0  0  0  0  0  0  0  0  0  0
   -1.8476   20.4626   68.6224 H   0  0  0  0  0  0  0  0  0  0  0  0
   -0.2458   22.3970   68.0895 C   0  0  0  0  0  0  0  0  0  0  0  0
   -1.0603   23.5084   68.3062 O   0  0  0  0  0  0  0  0  0  0  0  0
   -1.9774   23.2178   68.4304 H   0  0  0  0  0  0  0  0  0  0  0  0
    2.1987   18.8426   70.2679 O   0  0  0  0  0  0  0  0  0  0  0  0
    5.4170   20.6048   68.3675 C   0  0  0  0  0  0  0  0  0  0  0  0
    5.4211   19.1116   68.6981 C   0  0  0  0  0  0  0  0  0  0  0  0
    6.2484   19.1347   69.9423 C   0  0  0  0  0  0  0  0  0  0  0  0
    5.6185   20.3429   70.6039 C   0  0  0  0  0  0  0  0  0  0  0  0
    5.5485   21.3205   69.5859 O   0  0  0  0  0  0  0  0  0  0  0  0
    4.1773   20.0184   71.0476 C   0  0  0  0  0  0  0  0  0  0  0  0
    3.3714   19.4744   69.8434 C   0  0  0  0  0  0  0  0  0  0  0  0
    4.1154   18.6065   68.9902 O   0  0  0  0  0  0  0  0  0  0  0  0
    4.1713   19.1183   72.1167 O   0  0  0  0  0  0  0  0  0  0  0  0
    6.1179   17.9586   70.6876 O   0  0  0  0  0  0  0  0  0  0  0  0
    4.5898   18.2874   71.8421 H   0  0  0  0  0  0  0  0  0  0  0  0
    5.1802   17.7979   70.8765 H   0  0  0  0  0  0  0  0  0  0  0  0
 18 17  1  0  0  0
 18 19  1  0  0  0
 19 20  1  0  0  0
 19 26  1  0  0  0
 20 21  1  0  0  0
 20 22  1  0  0  0
 21 17  1  0  0  0
 22 23  1  0  0  0
 22 25  1  0  0  0
 23 24  1  0  0  0
 23 16  1  0  0  0
 24 18  1  0  0  0
  1 16  1  0  0  0
  1  2  1  0  0  0
  1  7  1  0  0  0
  2  5  1  0  0  0
  2  3  1  0  0  0
  5  6  2  0  0  0
  7 10  1  0  0  0
  7  8  1  0  0  0
 10 13  1  0  0  0
 10 11  1  0  0  0
 13 14  1  0  0  0
  3  4  1  0  0  0
 14 15  1  0  0  0
 11 12  1  0  0  0
  8  9  1  0  0  0
 25 27  1  0  0  0
 26 28  1  0  0  0
M  END
>  <minimizedAffinity>
-6.49122

>  <minimizedRMSD>
4.12465

$$$$
Molport-006-392-628 CHEMBL424426 LN01268810 PubChem-3413551


 31 31  0  0  0  0  0  0  0  0999 V2000
   -0.3352   21.2711   69.8818 C   0  0  0  0  0  0  0  0  0  0  0  0
    0.2555   22.3844   69.9284 O   0  0  0  0  0  0  0  0  0  0  0  0
    0.3967   20.0557   70.0439 N   0  0  0  0  0  0  0  0  0  0  0  0
   -0.0981   19.2049   70.0658 H   0  0  0  0  0  0  0  0  0  0  0  0
    1.8457   20.0258   70.1779 C   0  0  0  0  0  0  0  0  0  0  0  0
    2.3062   18.5672   70.3805 C   0  0  0  0  0  0  0  0  0  0  0  0
    2.4762   18.2965   71.7399 O   0  0  0  0  0  0  0  0  0  0  0  0
    3.4677   18.2049   69.6530 O   0  0  0  0  0  0  0  0  0  0  0  0
    4.4198   19.2317   69.7944 C   0  0  0  0  0  0  0  0  0  0  0  0
    4.0299   20.4569   68.9476 C   0  0  0  0  0  0  0  0  0  0  0  0
    4.4673   20.3239   67.6279 O   0  0  0  0  0  0  0  0  0  0  0  0
    2.5103   20.6521   68.9447 C   0  0  0  0  0  0  0  0  0  0  0  0
    2.2174   22.0142   68.8708 O   0  0  0  0  0  0  0  0  0  0  0  0
    3.1895   18.8507   72.0932 H   0  0  0  0  0  0  0  0  0  0  0  0
    4.0404   19.5533   67.2219 H   0  0  0  0  0  0  0  0  0  0  0  0
    2.5793   22.4655   69.6495 H   0  0  0  0  0  0  0  0  0  0  0  0
    5.8368   18.7220   69.5460 C   0  0  0  0  0  0  0  0  0  0  0  0
    5.8948   17.9643   68.3745 O   0  0  0  0  0  0  0  0  0  0  0  0
    5.3064   17.1975   68.4560 H   0  0  0  0  0  0  0  0  0  0  0  0
   -1.8172   21.2051   69.6428 C   0  0  0  0  0  0  0  0  0  0  0  0
   -2.6798   24.0374   67.1341 C   0  0  0  0  0  0  0  0  0  0  0  0
   -2.1952   22.7341   67.6573 C   0  0  0  0  0  0  0  0  0  0  0  0
   -1.7060   21.8867   66.8640 O   0  0  0  0  0  0  0  0  0  0  0  0
   -2.2940   22.4537   69.0546 N   0  0  0  0  0  0  0  0  0  0  0  0
   -2.6998   23.1294   69.6446 H   0  0  0  0  0  0  0  0  0  0  0  0
   -2.6397   20.8231   70.8933 C   0  0  0  0  0  0  0  0  0  0  0  0
   -3.0355   19.3541   70.8484 C   0  0  0  0  0  0  0  0  0  0  0  0
   -1.8410   21.0597   72.1659 C   0  0  0  0  0  0  0  0  0  0  0  0
   -4.1610   21.8382   70.9914 S   0  0  0  0  0  0  0  0  0  0  0  0
   -4.8863   21.1613   69.5446 N   0  0  0  0  0  0  0  0  0  0  0  0
   -5.2487   21.8793   68.6637 O   0  0  0  0  0  0  0  0  0  0  0  0
 21 22  1  0  0  0
 22 23  2  0  0  0
 22 24  1  0  0  0
 20 24  1  0  0  0
 20  1  1  0  0  0
 20 26  1  0  0  0
  1  2  2  0  0  0
  1  3  1  0  0  0
  5  3  1  0  0  0
  5  6  1  0  0  0
  6  7  1  0  0  0
  6  8  1  0  0  0
  8  9  1  0  0  0
  9 17  1  0  0  0
  9 10  1  0  0  0
 17 18  1  0  0  0
 10 11  1  0  0  0
 10 12  1  0  0  0
 12 13  1  0  0  0
 12  5  1  0  0  0
 26 27  1  0  0  0
 26 28  1  0  0  0
 26 29  1  0  0  0
 29 30  1  0  0  0
 30 31  2  0  0  0
 24 25  1  0  0  0
  3  4  1  0  0  0
  7 14  1  0  0  0
 18 19  1  0  0  0
 11 15  1  0  0  0
 13 16  1  0  0  0
M  END
>  <minimizedAffinity>
-6.49060

>  <minimizedRMSD>
2.54578

$$$$
MolPort-039-330-732


 31 32  0  0  0  0  0  0  0  0999 V2000
    5.0300   20.9005   69.2494 C   0  0  0  0  0  0  0  0  0  0  0  0
    5.2275   21.5981   68.1187 N   0  0  0  0  0  0  0  0  0  0  0  0
    6.4957   21.9024   68.1261 O   0  0  0  0  0  0  0  0  0  0  0  0
    7.1369   21.4679   69.1767 N   0  0  0  0  0  0  0  0  0  0  0  0
    6.2292   20.8067   69.9165 C   0  0  0  0  0  0  0  0  0  0  0  0
    6.5165   20.2153   71.2380 C   0  0  0  0  0  0  0  0  0  0  0  0
    6.2236   18.9793   71.5154 N   0  0  0  0  0  0  0  0  0  0  0  0
    5.6548   18.1207   70.6028 O   0  0  0  0  0  0  0  0  0  0  0  0
    5.4610   17.2374   70.8482 H   0  0  0  0  0  0  0  0  0  0  0  0
    7.2028   21.0317   72.1992 N   0  0  0  0  0  0  0  0  0  0  0  0
    8.1856   21.0357   72.1416 H   0  0  0  0  0  0  0  0  0  0  0  0
    6.6271   21.8426   73.2339 C   0  0  0  0  0  0  0  0  0  0  0  0
    5.2799   21.7295   73.6091 C   0  0  0  0  0  0  0  0  0  0  0  0
    4.7555   22.5426   74.6173 C   0  0  0  0  0  0  0  0  0  0  0  0
    5.5725   23.4773   75.2585 C   0  0  0  0  0  0  0  0  0  0  0  0
    5.0534   24.2610   76.2352 F   0  0  0  0  0  0  0  0  0  0  0  0
    6.9181   23.5984   74.8878 C   0  0  0  0  0  0  0  0  0  0  0  0
    8.0576   24.8680   75.7445 Br  0  0  0  0  0  0  0  0  0  0  0  0
    7.4384   22.7827   73.8783 C   0  0  0  0  0  0  0  0  0  0  0  0
    3.7545   20.4653   69.7192 N   0  0  0  0  0  0  0  0  0  0  0  0
    3.4450   20.7586   70.6065 H   0  0  0  0  0  0  0  0  0  0  0  0
    2.9006   19.6005   68.9221 C   0  0  0  0  0  0  0  0  0  0  0  0
    2.2382   18.5690   69.8147 C   0  0  0  0  0  0  0  0  0  0  0  0
    2.7720   18.6660   71.1638 N   0  0  0  0  0  0  0  0  0  0  0  0
    3.4009   17.8839   71.3461 H   0  0  0  0  0  0  0  0  0  0  0  0
   -0.0303   18.3364   71.3865 N   0  0  0  0  0  0  0  0  0  0  0  0
    1.4343   18.6155   72.2602 S   0  0  0  0  0  0  0  0  0  0  0  0
    1.3351   19.9186   73.0028 O   0  0  0  0  0  0  0  0  0  0  0  0
    1.6438   17.4997   73.2439 O   0  0  0  0  0  0  0  0  0  0  0  0
   -0.8146   18.3077   72.0380 H   0  0  0  0  0  0  0  0  0  0  0  0
    0.0332   17.4468   70.8916 H   0  0  0  0  0  0  0  0  0  0  0  0
 26 27  1  0  0  0
 27 28  2  0  0  0
 27 29  2  0  0  0
 27 24  1  0  0  0
 24 23  1  0  0  0
 23 22  1  0  0  0
 22 20  1  0  0  0
 20  1  1  0  0  0
  1  2  2  0  0  0
  2  3  1  0  0  0
  3  4  1  0  0  0
  4  5  2  0  0  0
  5  6  1  0  0  0
  6 10  1  0  0  0
 10 12  1  0  0  0
 12 13  2  0  0  0
 13 14  1  0  0  0
 14 15  2  0  0  0
 15 16  1  0  0  0
 15 17  1  0  0  0
 17 18  1  0  0  0
 17 19  2  0  0  0
  6  7  2  0  0  0
  7  8  1  0  0  0
  5  1  1  0  0  0
 19 12  1  0  0  0
 26 30  1  0  0  0
 26 31  1  0  0  0
 24 25  1  0  0  0
 20 21  1  0  0  0
 10 11  1  0  0  0
  8  9  1  0  0  0
M  END
>  <minimizedAffinity>
-6.46622

>  <minimizedRMSD>
2.47971

$$$$
MolPort-047-153-185 Molport-051-557-299 5132038 MCULE-1235469708 MCULE-5833902319 PubChem-117819290 PubChem-122553289 PubChem-165007 PubChem-87606958 PubChem-88385585 PubChem-90237760


 25 24  0  0  0  0  0  0  0  0999 V2000
    2.2156   18.9145   69.9211 C   0  0  0  0  0  0  0  0  0  0  0  0
    1.0346   18.5466   70.5740 O   0  0  0  0  0  0  0  0  0  0  0  0
    0.7239   19.2850   71.1209 H   0  0  0  0  0  0  0  0  0  0  0  0
    3.2948   19.2371   70.9593 C   0  0  0  0  0  0  0  0  0  0  0  0
    2.9922   18.6260   72.1790 O   0  0  0  0  0  0  0  0  0  0  0  0
    2.9659   17.6636   72.0606 H   0  0  0  0  0  0  0  0  0  0  0  0
    4.6527   18.7442   70.4878 C   0  0  0  0  0  0  0  0  0  0  0  0
    5.5467   19.8139   70.4132 O   0  0  0  0  0  0  0  0  0  0  0  0
    6.1937   19.7449   68.8480 P   0  0  0  0  0  0  0  0  0  0  0  0
    7.6704   20.0604   68.9079 O   0  0  0  0  0  0  0  0  0  0  0  0
    5.4234   20.8789   67.8554 O   0  0  0  0  0  0  0  0  0  0  0  0
    5.9826   18.1943   68.2035 O   0  0  0  0  0  0  0  0  0  0  0  0
    5.5447   21.7674   68.2250 H   0  0  0  0  0  0  0  0  0  0  0  0
    6.4242   17.5447   68.7727 H   0  0  0  0  0  0  0  0  0  0  0  0
    1.9373   20.1180   69.0108 C   0  0  0  0  0  0  0  0  0  0  0  0
    2.6450   20.0072   67.8098 O   0  0  0  0  0  0  0  0  0  0  0  0
    2.3512   19.2150   67.3333 H   0  0  0  0  0  0  0  0  0  0  0  0
    0.4413   20.2636   68.7209 C   0  0  0  0  0  0  0  0  0  0  0  0
    0.1299   19.7322   67.4648 O   0  0  0  0  0  0  0  0  0  0  0  0
    0.6103   20.2214   66.7786 H   0  0  0  0  0  0  0  0  0  0  0  0
    0.0091   21.6999   68.8312 C   0  0  0  0  0  0  0  0  0  0  0  0
    0.4643   22.3959   69.7253 O   0  0  0  0  0  0  0  0  0  0  0  0
   -0.9848   22.2881   67.8797 C   0  0  0  0  0  0  0  0  0  0  0  0
   -0.3270   22.7777   66.7513 O   0  0  0  0  0  0  0  0  0  0  0  0
    0.3041   23.4646   67.0176 H   0  0  0  0  0  0  0  0  0  0  0  0
  7  8  1  0  0  0
  4  7  1  0  0  0
  4  1  1  0  0  0
  4  5  1  0  0  0
  1 15  1  0  0  0
  1  2  1  0  0  0
 15 18  1  0  0  0
 15 16  1  0  0  0
 18 21  1  0  0  0
 18 19  1  0  0  0
 21 22  2  0  0  0
 21 23  1  0  0  0
 23 24  1  0  0  0
  8  9  1  0  0  0
  9 10  2  0  0  0
  9 11  1  0  0  0
  9 12  1  0  0  0
 24 25  1  0  0  0
 19 20  1  0  0  0
 16 17  1  0  0  0
  2  3  1  0  0  0
  5  6  1  0  0  0
 11 13  1  0  0  0
 12 14  1  0  0  0
M  END
>  <minimizedAffinity>
-6.46366

>  <minimizedRMSD>
1.23872

$$$$
MolPort-035-912-325 PubChem-90482875


 29 29  0  0  0  0  0  0  0  0999 V2000
    2.2394   19.4919   70.8359 C   0  0  0  0  0  0  0  0  0  0  0  0
    3.2946   18.7693   70.5958 N   0  0  0  0  0  0  0  0  0  0  0  0
    1.9592   20.7865   70.1132 C   0  0  0  0  0  0  0  0  0  0  0  0
    3.1288   21.5080   69.8562 O   0  0  0  0  0  0  0  0  0  0  0  0
    3.6967   21.0001   69.2558 H   0  0  0  0  0  0  0  0  0  0  0  0
    1.1238   20.5797   68.8472 C   0  0  0  0  0  0  0  0  0  0  0  0
    1.9223   20.0968   67.8064 O   0  0  0  0  0  0  0  0  0  0  0  0
    2.6127   20.7464   67.6005 H   0  0  0  0  0  0  0  0  0  0  0  0
    0.4409   21.8791   68.4267 C   0  0  0  0  0  0  0  0  0  0  0  0
    0.2481   22.6984   69.5417 O   0  0  0  0  0  0  0  0  0  0  0  0
   -0.3208   22.2437   70.1825 H   0  0  0  0  0  0  0  0  0  0  0  0
   -0.9053   21.5843   67.7853 C   0  0  0  0  0  0  0  0  0  0  0  0
   -1.1476   22.4910   66.7534 O   0  0  0  0  0  0  0  0  0  0  0  0
   -1.1567   23.3927   67.1109 H   0  0  0  0  0  0  0  0  0  0  0  0
    1.2590   19.0045   71.8180 C   0  0  0  0  0  0  0  0  0  0  0  0
    1.1344   19.5891   72.9294 O   0  0  0  0  0  0  0  0  0  0  0  0
   -0.2356   17.1764   72.5148 C   0  0  0  0  0  0  0  0  0  0  0  0
    0.4695   17.8933   71.5130 O   0  0  0  0  0  0  0  0  0  0  0  0
    4.2802   19.1385   69.6684 N   0  0  0  0  0  0  0  0  0  0  0  0
    4.0167   19.3248   68.7383 H   0  0  0  0  0  0  0  0  0  0  0  0
    5.6575   19.2517   70.0371 C   0  0  0  0  0  0  0  0  0  0  0  0
    6.1861   18.3813   71.0025 C   0  0  0  0  0  0  0  0  0  0  0  0
    7.5278   18.4609   71.3761 C   0  0  0  0  0  0  0  0  0  0  0  0
    8.3581   19.4125   70.7867 C   0  0  0  0  0  0  0  0  0  0  0  0
    7.8458   20.2848   69.8253 C   0  0  0  0  0  0  0  0  0  0  0  0
    6.4980   20.2232   69.4366 C   0  0  0  0  0  0  0  0  0  0  0  0
    6.0243   21.1516   68.4410 N   0  0  0  0  0  0  0  0  0  0  0  0
    4.9691   20.9479   67.8066 O   0  0  0  0  0  0  0  0  0  0  0  0
    6.7296   22.3070   68.1921 O   0  0  0  0  0  0  0  0  0  0  0  0
 17 18  1  0  0  0
 18 15  1  0  0  0
 15 16  2  0  0  0
 15  1  1  0  0  0
  1  2  2  0  0  0
  2 19  1  0  0  0
 19 21  1  0  0  0
 21 22  2  0  0  0
 22 23  1  0  0  0
 23 24  2  0  0  0
 24 25  1  0  0  0
 25 26  2  0  0  0
 26 27  1  0  0  0
 27 28  2  0  0  0
 27 29  1  0  0  0
  3  1  1  0  0  0
  3  6  1  0  0  0
  6  9  1  0  0  0
  9 12  1  0  0  0
 12 13  1  0  0  0
  9 10  1  0  0  0
  6  7  1  0  0  0
  3  4  1  0  0  0
 26 21  1  0  0  0
 19 20  1  0  0  0
 13 14  1  0  0  0
 10 11  1  0  0  0
  7  8  1  0  0  0
  4  5  1  0  0  0
M  CHG 1  27   1
M  CHG 1  29  -1
M  END
>  <minimizedAffinity>
-6.45526

>  <minimizedRMSD>
1.34320

$$$$
MolPort-046-794-789


 27 28  0  0  0  0  0  0  0  0999 V2000
    1.4956   19.6000   68.8555 C   0  0  0  0  0  0  0  0  0  0  0  0
    1.3900   21.0452   69.2411 C   0  0  0  0  0  0  0  0  0  0  0  0
    2.3916   21.6809   69.6707 O   0  0  0  0  0  0  0  0  0  0  0  0
    0.1287   21.6986   69.1211 N   0  0  0  0  0  0  0  0  0  0  0  0
   -0.6480   21.1940   68.7874 H   0  0  0  0  0  0  0  0  0  0  0  0
   -0.0242   23.0476   69.4701 N   0  0  0  0  0  0  0  0  0  0  0  0
   -1.1398   23.7036   69.3387 C   0  0  0  0  0  0  0  0  0  0  0  0
   -2.4098   23.1599   68.8128 C   0  0  0  0  0  0  0  0  0  0  0  0
   -2.8553   23.6252   67.5699 C   0  0  0  0  0  0  0  0  0  0  0  0
   -4.0490   23.1488   67.0195 C   0  0  0  0  0  0  0  0  0  0  0  0
   -4.8072   22.2007   67.7110 C   0  0  0  0  0  0  0  0  0  0  0  0
   -6.4339   21.5508   66.9619 Br  0  0  0  0  0  0  0  0  0  0  0  0
   -4.3719   21.7296   68.9520 C   0  0  0  0  0  0  0  0  0  0  0  0
   -3.1783   22.2075   69.5000 C   0  0  0  0  0  0  0  0  0  0  0  0
    2.9228   19.0711   68.8943 C   0  0  0  0  0  0  0  0  0  0  0  0
    3.7673   19.8546   68.0050 N   0  0  0  0  0  0  0  0  0  0  0  0
    3.3641   20.1781   67.1671 H   0  0  0  0  0  0  0  0  0  0  0  0
    5.8838   17.8712   68.4001 O   0  0  0  0  0  0  0  0  0  0  0  0
    6.1512   19.2339   68.4391 C   0  0  0  0  0  0  0  0  0  0  0  0
    7.4229   19.6498   68.6663 N   0  0  0  0  0  0  0  0  0  0  0  0
    7.7227   20.9711   68.7124 C   0  0  0  0  0  0  0  0  0  0  0  0
    8.9053   21.3440   68.9237 O   0  0  0  0  0  0  0  0  0  0  0  0
    6.7410   21.8890   68.5294 N   0  0  0  0  0  0  0  0  0  0  0  0
    5.4837   21.5066   68.3045 N   0  0  0  0  0  0  0  0  0  0  0  0
    5.1388   20.1938   68.2498 C   0  0  0  0  0  0  0  0  0  0  0  0
    6.5767   17.2539   68.5294 H   0  0  0  0  0  0  0  0  0  0  0  0
    6.9594   22.8484   68.5631 H   0  0  0  0  0  0  0  0  0  0  0  0
 18 19  1  0  0  0
 19 20  2  0  0  0
 20 21  1  0  0  0
 21 22  2  0  0  0
 21 23  1  0  0  0
 23 24  1  0  0  0
 24 25  2  0  0  0
 25 16  1  0  0  0
 16 15  1  0  0  0
 15  1  1  0  0  0
  1  2  1  0  0  0
  2  3  2  0  0  0
  2  4  1  0  0  0
  4  6  1  0  0  0
  6  7  2  0  0  0
  7  8  1  0  0  0
  8  9  2  0  0  0
  9 10  1  0  0  0
 10 11  2  0  0  0
 11 12  1  0  0  0
 11 13  1  0  0  0
 13 14  2  0  0  0
 25 19  1  0  0  0
 14  8  1  0  0  0
 18 26  1  0  0  0
 23 27  1  0  0  0
 16 17  1  0  0  0
  4  5  1  0  0  0
M  END
>  <minimizedAffinity>
-6.45221

>  <minimizedRMSD>
2.42646

$$$$
MolPort-046-627-323 1549161868 CSSS00159283377 MCULE-3823055378 PubChem-137918299 ZINC001549161868


 28 30  0  0  0  0  0  0  0  0999 V2000
    3.8523   20.9303   69.3101 C   0  0  0  0  0  0  0  0  0  0  0  0
    4.2346   21.1053   70.6498 O   0  0  0  0  0  0  0  0  0  0  0  0
    3.1559   20.6314   71.4145 C   0  0  0  0  0  0  0  0  0  0  0  0
    2.4452   19.5413   70.6418 C   0  0  0  0  0  0  0  0  0  0  0  0
    2.8933   18.2963   71.0813 O   0  0  0  0  0  0  0  0  0  0  0  0
    2.8983   19.7567   69.2278 C   0  0  0  0  0  0  0  0  0  0  0  0
    3.8576   18.2481   70.9874 H   0  0  0  0  0  0  0  0  0  0  0  0
    1.7733   20.0426   68.3388 N   0  0  0  0  0  0  0  0  0  0  0  0
    0.8115   21.0875   68.5260 C   0  0  0  0  0  0  0  0  0  0  0  0
    0.8952   21.8591   69.5194 O   0  0  0  0  0  0  0  0  0  0  0  0
   -0.2415   21.2382   67.5659 N   0  0  0  0  0  0  0  0  0  0  0  0
    1.6681   19.4692   67.5454 H   0  0  0  0  0  0  0  0  0  0  0  0
   -0.2480   20.6019   66.8147 H   0  0  0  0  0  0  0  0  0  0  0  0
   -1.2870   22.2198   67.5857 C   0  0  0  0  0  0  0  0  0  0  0  0
   -2.2955   22.2193   68.5582 C   0  0  0  0  0  0  0  0  0  0  0  0
   -3.2918   23.1962   68.5357 C   0  0  0  0  0  0  0  0  0  0  0  0
   -3.2681   24.1689   67.5347 C   0  0  0  0  0  0  0  0  0  0  0  0
   -2.2834   24.1576   66.5966 N   0  0  0  0  0  0  0  0  0  0  0  0
   -1.3042   23.2132   66.6026 C   0  0  0  0  0  0  0  0  0  0  0  0
    5.0758   20.7182   68.4211 C   0  0  0  0  0  0  0  0  0  0  0  0
    8.0039   20.1521   70.3970 C   0  0  0  0  0  0  0  0  0  0  0  0
    7.1669   21.0355   69.7463 C   0  0  0  0  0  0  0  0  0  0  0  0
    6.2216   20.2558   69.1922 N   0  0  0  0  0  0  0  0  0  0  0  0
    6.4579   18.9892   69.4882 N   0  0  0  0  0  0  0  0  0  0  0  0
    7.5508   18.8935   70.2271 N   0  0  0  0  0  0  0  0  0  0  0  0
    9.2212   20.5281   71.1747 C   0  0  0  0  0  0  0  0  0  0  0  0
   11.2329   19.6988   71.5396 C   0  0  0  0  0  0  0  0  0  0  0  0
   10.3762   20.1025   70.5168 O   0  0  0  0  0  0  0  0  0  0  0  0
 27 28  1  0  0  0
 28 26  1  0  0  0
 26 21  1  0  0  0
 21 22  2  0  0  0
 22 23  1  0  0  0
 23 20  1  0  0  0
  1 20  1  0  0  0
  1  2  1  0  0  0
  2  3  1  0  0  0
  3  4  1  0  0  0
  4  5  1  0  0  0
  4  6  1  0  0  0
  6  8  1  0  0  0
  8  9  1  0  0  0
  9 10  2  0  0  0
  9 11  1  0  0  0
 11 14  1  0  0  0
 14 15  2  0  0  0
 15 16  1  0  0  0
 16 17  2  0  0  0
 17 18  1  0  0  0
 18 19  2  0  0  0
 23 24  1  0  0  0
 24 25  2  0  0  0
 25 21  1  0  0  0
  6  1  1  0  0  0
 19 14  1  0  0  0
  5  7  1  0  0  0
  8 12  1  0  0  0
 11 13  1  0  0  0
M  END
>  <minimizedAffinity>
-6.42395

>  <minimizedRMSD>
1.96236

$$$$
MolPort-051-786-227 13455558 CSSS14929383719 MCULE-2473348309 MCULE-8613614561 PubChem-123811 PubChem-139035033 ZINC000013455558


 47 46  0  0  0  0  0  0  0  0999 V2000
   -0.9653   20.0855   71.4424 C   0  0  0  0  0  0  0  0  0  0  0  0
   -0.7278   20.2464   72.6722 O   0  0  0  0  0  0  0  0  0  0  0  0
   -0.1856   19.1687   70.6679 N   0  0  0  0  0  0  0  0  0  0  0  0
   -0.4505   18.9900   69.7367 H   0  0  0  0  0  0  0  0  0  0  0  0
    0.9848   18.4904   71.2062 C   0  0  0  0  0  0  0  0  0  0  0  0
    2.1607   19.4008   71.1654 C   0  0  0  0  0  0  0  0  0  0  0  0
    2.5467   19.9715   72.2214 O   0  0  0  0  0  0  0  0  0  0  0  0
    2.8134   19.6523   69.9182 N   0  0  0  0  0  0  0  0  0  0  0  0
    2.5230   19.1488   69.1236 H   0  0  0  0  0  0  0  0  0  0  0  0
    3.8926   20.6251   69.7745 C   0  0  0  0  0  0  0  0  0  0  0  0
    4.7991   20.6275   70.9671 C   0  0  0  0  0  0  0  0  0  0  0  0
    4.8702   21.6611   71.6842 O   0  0  0  0  0  0  0  0  0  0  0  0
    5.5951   19.4787   71.2770 N   0  0  0  0  0  0  0  0  0  0  0  0
    5.5015   18.6761   70.7145 H   0  0  0  0  0  0  0  0  0  0  0  0
    6.5392   19.4442   72.3899 C   0  0  0  0  0  0  0  0  0  0  0  0
    7.7064   20.3497   72.1315 C   0  0  0  0  0  0  0  0  0  0  0  0
    8.5771   20.0532   71.2693 O   0  0  0  0  0  0  0  0  0  0  0  0
    7.8169   21.5364   72.8407 O   0  0  0  0  0  0  0  0  0  0  0  0
    7.1719   21.7605   73.4823 H   0  0  0  0  0  0  0  0  0  0  0  0
    6.9912   18.0136   72.6658 C   0  0  0  0  0  0  0  0  0  0  0  0
    7.3042   17.3505   71.4764 O   0  0  0  0  0  0  0  0  0  0  0  0
    6.5181   17.3153   70.9093 H   0  0  0  0  0  0  0  0  0  0  0  0
    4.6716   20.4192   68.4652 C   0  0  0  0  0  0  0  0  0  0  0  0
    5.7615   19.3834   68.5120 C   0  0  0  0  0  0  0  0  0  0  0  0
    5.5004   18.1500   68.5061 O   0  0  0  0  0  0  0  0  0  0  0  0
    7.0869   19.7998   68.5460 O   0  0  0  0  0  0  0  0  0  0  0  0
    7.2907   20.7143   68.5507 H   0  0  0  0  0  0  0  0  0  0  0  0
   -2.0540   20.8623   70.7798 C   0  0  0  0  0  0  0  0  0  0  0  0
   -2.6898   21.7437   71.7487 N   0  0  0  0  0  0  0  0  0  0  0  0
   -4.0980   21.9795   71.7435 C   0  0  0  0  0  0  0  0  0  0  0  0
   -4.8355   21.4506   70.8689 O   0  0  0  0  0  0  0  0  0  0  0  0
   -2.1328   22.1899   72.4269 H   0  0  0  0  0  0  0  0  0  0  0  0
   -4.7021   22.8388   72.7956 C   0  0  0  0  0  0  0  0  0  0  0  0
   -3.7194   23.1112   73.8290 N   0  0  0  0  0  0  0  0  0  0  0  0
   -3.4129   22.2327   74.2469 H   0  0  0  0  0  0  0  0  0  0  0  0
   -4.1369   23.7023   74.5479 H   0  0  0  0  0  0  0  0  0  0  0  0
   -1.4765   21.6715   69.6330 C   0  0  0  0  0  0  0  0  0  0  0  0
   -2.0184   23.0888   69.6588 C   0  0  0  0  0  0  0  0  0  0  0  0
   -2.1672   23.6151   68.2427 C   0  0  0  0  0  0  0  0  0  0  0  0
   -0.8540   23.8721   67.6653 N   0  0  0  0  0  0  0  0  0  0  0  0
   -0.6565   23.9565   66.3864 C   0  0  0  0  0  0  0  0  0  0  0  0
   -1.7277   23.7747   65.4624 N   0  0  0  0  0  0  0  0  0  0  0  0
    0.6525   24.2195   65.8959 N   0  0  0  0  0  0  0  0  0  0  0  0
   -2.6370   23.5922   65.7927 H   0  0  0  0  0  0  0  0  0  0  0  0
   -1.5578   23.8316   64.4943 H   0  0  0  0  0  0  0  0  0  0  0  0
    1.3981   24.3464   66.5262 H   0  0  0  0  0  0  0  0  0  0  0  0
    0.8129   24.2747   64.9261 H   0  0  0  0  0  0  0  0  0  0  0  0
 38 37  1  0  0  0
 38 39  1  0  0  0
 28 37  1  0  0  0
 28  1  1  0  0  0
 28 29  1  0  0  0
  1  2  2  0  0  0
  1  3  1  0  0  0
  3  5  1  0  0  0
  5  6  1  0  0  0
  6  7  2  0  0  0
  6  8  1  0  0  0
 10  8  1  0  0  0
 10 23  1  0  0  0
 10 11  1  0  0  0
 23 24  1  0  0  0
 24 25  2  0  0  0
 24 26  1  0  0  0
 11 12  2  0  0  0
 11 13  1  0  0  0
 15 13  1  0  0  0
 15 20  1  0  0  0
 15 16  1  0  0  0
 20 21  1  0  0  0
 16 17  2  0  0  0
 16 18  1  0  0  0
 29 30  1  0  0  0
 30 31  2  0  0  0
 30 33  1  0  0  0
 33 34  1  0  0  0
 39 40  1  0  0  0
 40 41  2  0  0  0
 41 42  1  0  0  0
 41 43  1  0  0  0
  3  4  1  0  0  0
  8  9  1  0  0  0
 26 27  1  0  0  0
 13 14  1  0  0  0
 21 22  1  0  0  0
 18 19  1  0  0  0
 29 32  1  0  0  0
 34 35  1  0  0  0
 34 36  1  0  0  0
 42 44  1  0  0  0
 42 45  1  0  0  0
 43 46  1  0  0  0
 43 47  1  0  0  0
M  END
>  <minimizedAffinity>
-6.39577

>  <minimizedRMSD>
4.14736

$$$$
MolPort-007-824-080 ChemDiv-G070-1642 MCULE-9003555391 PubChem-20938670 ZINC000007007132 ZINC07007132


 31 32  0  0  0  0  0  0  0  0999 V2000
    3.8727   20.1753   69.3558 S   0  0  0  0  0  0  0  0  0  0  0  0
    4.4855   21.3318   68.6149 O   0  0  0  0  0  0  0  0  0  0  0  0
    3.7630   18.9954   68.4324 O   0  0  0  0  0  0  0  0  0  0  0  0
    6.2797   19.6443   70.7577 C   0  0  0  0  0  0  0  0  0  0  0  0
    6.6075   19.2965   72.0606 C   0  0  0  0  0  0  0  0  0  0  0  0
    7.9804   19.0581   72.5884 C   0  0  0  0  0  0  0  0  0  0  0  0
    5.5065   19.1483   72.8215 N   0  0  0  0  0  0  0  0  0  0  0  0
    4.4653   19.4138   72.0107 C   0  0  0  0  0  0  0  0  0  0  0  0
    3.0523   19.3189   72.4704 C   0  0  0  0  0  0  0  0  0  0  0  0
    4.8936   19.7350   70.7321 C   0  0  0  0  0  0  0  0  0  0  0  0
    5.4705   18.8979   73.7729 H   0  0  0  0  0  0  0  0  0  0  0  0
    7.2261   19.8247   69.6361 C   0  0  0  0  0  0  0  0  0  0  0  0
    7.0730   19.1778   68.5650 O   0  0  0  0  0  0  0  0  0  0  0  0
    8.3112   20.6957   69.7773 O   0  0  0  0  0  0  0  0  0  0  0  0
    9.7238   21.4342   67.9630 C   0  0  0  0  0  0  0  0  0  0  0  0
    9.5603   20.4794   69.1315 C   0  0  0  0  0  0  0  0  0  0  0  0
    2.2839   20.6270   69.8786 N   0  0  0  0  0  0  0  0  0  0  0  0
    2.2906   20.8207   70.8800 H   0  0  0  0  0  0  0  0  0  0  0  0
    1.8956   21.8224   69.1466 C   0  0  0  0  0  0  0  0  0  0  0  0
    0.4149   21.9615   69.1584 C   0  0  0  0  0  0  0  0  0  0  0  0
   -0.2283   21.5976   70.1780 O   0  0  0  0  0  0  0  0  0  0  0  0
   -0.2516   22.5156   68.0161 N   0  0  0  0  0  0  0  0  0  0  0  0
    0.3193   22.7925   67.2633 H   0  0  0  0  0  0  0  0  0  0  0  0
   -1.6637   22.7081   67.8568 C   0  0  0  0  0  0  0  0  0  0  0  0
   -2.1129   23.7453   67.0321 C   0  0  0  0  0  0  0  0  0  0  0  0
   -3.4819   23.9632   66.8508 C   0  0  0  0  0  0  0  0  0  0  0  0
   -4.4123   23.1428   67.4944 C   0  0  0  0  0  0  0  0  0  0  0  0
   -5.7383   23.3589   67.3148 F   0  0  0  0  0  0  0  0  0  0  0  0
   -3.9721   22.1029   68.3205 C   0  0  0  0  0  0  0  0  0  0  0  0
   -4.8677   21.3024   68.9483 F   0  0  0  0  0  0  0  0  0  0  0  0
   -2.6028   21.8872   68.5001 C   0  0  0  0  0  0  0  0  0  0  0  0
 15 16  1  0  0  0
 16 14  1  0  0  0
 14 12  1  0  0  0
 12 13  2  0  0  0
 12  4  1  0  0  0
  4  5  2  0  0  0
  5  6  1  0  0  0
  5  7  1  0  0  0
  7  8  1  0  0  0
  8  9  1  0  0  0
  8 10  2  0  0  0
 10  1  1  0  0  0
 10  4  1  0  0  0
  1  2  2  0  0  0
  1  3  2  0  0  0
  1 17  1  0  0  0
 17 19  1  0  0  0
 19 20  1  0  0  0
 20 21  2  0  0  0
 20 22  1  0  0  0
 22 24  1  0  0  0
 24 25  2  0  0  0
 25 26  1  0  0  0
 26 27  2  0  0  0
 27 28  1  0  0  0
 27 29  1  0  0  0
 29 30  1  0  0  0
 29 31  2  0  0  0
 31 24  1  0  0  0
  7 11  1  0  0  0
 17 18  1  0  0  0
 22 23  1  0  0  0
M  END
>  <minimizedAffinity>
-6.37449

>  <minimizedRMSD>
1.35512

$$$$
MolPort-006-069-166 MolPort-006-167-728 Molport-028-744-675 CHEMBL1384 CHEMBL1446 CHEMBL3350455 CHEMBL4751482 CSSS00016993417 CSSS00020617760 MCULE-3837635030 MCULE-3884050306 MCULE-4019143662 MCULE-4545756301 MCULE-6303570389 MCULE-9298883641 PubChem-10974151 PubChem-11181278 PubChem-118718933 PubChem-122198767 PubChem-131732461 PubChem-16213067 PubChem-205390 PubChem-205392 PubChem-24721551 PubChem-3001389 PubChem-3007990 PubChem-441374 PubChem-465107 PubChem-471659 PubChem-480055 PubChem-56841484 PubChem-56841497 PubChem-56841873 PubChem-6032 PubChem-71300614 PubChem-88635764 PubChem-89923252 ZINC000008214590


 48 50  0  0  0  0  0  0  0  0999 V2000
    2.5778   19.8024   69.5430 C   0  0  0  0  0  0  0  0  0  0  0  0
    1.9108   21.1690   69.3760 C   0  0  0  0  0  0  0  0  0  0  0  0
    2.8938   22.1689   68.9956 N   0  0  0  0  0  0  0  0  0  0  0  0
    0.8097   21.1196   68.3129 C   0  0  0  0  0  0  0  0  0  0  0  0
    0.0065   19.8103   68.2982 C   0  0  0  0  0  0  0  0  0  0  0  0
    0.4264   18.9884   67.1761 N   0  0  0  0  0  0  0  0  0  0  0  0
    0.1168   19.0146   69.6049 C   0  0  0  0  0  0  0  0  0  0  0  0
    1.5728   18.7430   70.0195 C   0  0  0  0  0  0  0  0  0  0  0  0
    1.9659   17.4855   69.5622 O   0  0  0  0  0  0  0  0  0  0  0  0
    3.3082   21.9145   68.0990 H   0  0  0  0  0  0  0  0  0  0  0  0
    3.6238   22.2157   69.7065 H   0  0  0  0  0  0  0  0  0  0  0  0
    1.4089   18.7378   67.2871 H   0  0  0  0  0  0  0  0  0  0  0  0
    0.3046   19.5102   66.3081 H   0  0  0  0  0  0  0  0  0  0  0  0
    1.9464   17.4734   68.5925 H   0  0  0  0  0  0  0  0  0  0  0  0
    3.6257   19.8869   70.4649 O   0  0  0  0  0  0  0  0  0  0  0  0
    6.3648   19.6277   71.3507 C   0  0  0  0  0  0  0  0  0  0  0  0
    5.4313   18.5747   71.1539 O   0  0  0  0  0  0  0  0  0  0  0  0
    4.5114   18.8613   70.1106 C   0  0  0  0  0  0  0  0  0  0  0  0
    5.1860   19.1418   68.7649 C   0  0  0  0  0  0  0  0  0  0  0  0
    5.7569   17.9691   68.2691 O   0  0  0  0  0  0  0  0  0  0  0  0
    6.2486   20.2309   68.8874 C   0  0  0  0  0  0  0  0  0  0  0  0
    5.6428   21.4852   68.9766 O   0  0  0  0  0  0  0  0  0  0  0  0
    7.1579   19.9986   70.0927 C   0  0  0  0  0  0  0  0  0  0  0  0
    8.0802   18.9916   69.8053 O   0  0  0  0  0  0  0  0  0  0  0  0
    6.4353   17.6536   68.8864 H   0  0  0  0  0  0  0  0  0  0  0  0
    5.0904   21.5215   69.7731 H   0  0  0  0  0  0  0  0  0  0  0  0
    7.6090   18.1626   69.6277 H   0  0  0  0  0  0  0  0  0  0  0  0
    5.5366   20.5263   73.4603 N   0  0  0  0  0  0  0  0  0  0  0  0
    5.7755   20.8410   72.0630 C   0  0  0  0  0  0  0  0  0  0  0  0
    5.1428   21.3416   73.9300 H   0  0  0  0  0  0  0  0  0  0  0  0
    6.4172   20.2693   73.9063 H   0  0  0  0  0  0  0  0  0  0  0  0
   -0.5497   19.6912   70.6309 O   0  0  0  0  0  0  0  0  0  0  0  0
   -0.0147   19.1713   71.8122 C   0  0  0  0  0  0  0  0  0  0  0  0
    0.0117   20.1734   72.8058 O   0  0  0  0  0  0  0  0  0  0  0  0
    0.7652   19.7112   73.9114 C   0  0  0  0  0  0  0  0  0  0  0  0
    0.1441   18.4653   74.5691 C   0  0  0  0  0  0  0  0  0  0  0  0
   -1.0013   18.8328   75.2759 O   0  0  0  0  0  0  0  0  0  0  0  0
   -0.2069   17.3784   73.5447 C   0  0  0  0  0  0  0  0  0  0  0  0
    0.9796   16.6102   73.2064 N   0  0  0  0  0  0  0  0  0  0  0  0
   -0.8302   17.9626   72.2768 C   0  0  0  0  0  0  0  0  0  0  0  0
   -2.1544   18.3334   72.5227 O   0  0  0  0  0  0  0  0  0  0  0  0
   -1.6546   19.2039   74.6624 H   0  0  0  0  0  0  0  0  0  0  0  0
    1.6715   17.2246   72.7773 H   0  0  0  0  0  0  0  0  0  0  0  0
    0.7297   15.8696   72.5511 H   0  0  0  0  0  0  0  0  0  0  0  0
   -2.1775   19.0055   73.2218 H   0  0  0  0  0  0  0  0  0  0  0  0
    2.2493   19.5478   73.5846 C   0  0  0  0  0  0  0  0  0  0  0  0
    2.8733   18.7833   74.5705 O   0  0  0  0  0  0  0  0  0  0  0  0
    2.7857   19.2278   75.4281 H   0  0  0  0  0  0  0  0  0  0  0  0
 28 29  1  0  0  0
 16 29  1  0  0  0
 16 17  1  0  0  0
 17 18  1  0  0  0
 18 15  1  0  0  0
 18 19  1  0  0  0
  1 15  1  0  0  0
  1  2  1  0  0  0
  2  3  1  0  0  0
  2  4  1  0  0  0
  4  5  1  0  0  0
  5  6  1  0  0  0
  5  7  1  0  0  0
  7 32  1  0  0  0
  7  8  1  0  0  0
 33 32  1  0  0  0
 33 34  1  0  0  0
 34 35  1  0  0  0
 35 46  1  0  0  0
 35 36  1  0  0  0
 46 47  1  0  0  0
 36 37  1  0  0  0
 36 38  1  0  0  0
 38 39  1  0  0  0
 38 40  1  0  0  0
 40 41  1  0  0  0
 40 33  1  0  0  0
  8  9  1  0  0  0
  8  1  1  0  0  0
 19 20  1  0  0  0
 19 21  1  0  0  0
 21 22  1  0  0  0
 21 23  1  0  0  0
 23 24  1  0  0  0
 23 16  1  0  0  0
 28 30  1  0  0  0
 28 31  1  0  0  0
  3 10  1  0  0  0
  3 11  1  0  0  0
  6 12  1  0  0  0
  6 13  1  0  0  0
 47 48  1  0  0  0
 37 42  1  0  0  0
 39 43  1  0  0  0
 39 44  1  0  0  0
 41 45  1  0  0  0
  9 14  1  0  0  0
 20 25  1  0  0  0
 22 26  1  0  0  0
 24 27  1  0  0  0
M  END
>  <minimizedAffinity>
-6.35264

>  <minimizedRMSD>
3.23825

$$$$
MolPort-023-279-262 100022089 CHEMBL2011961 CSSS00016989701 LN00192837 MCULE-1542412918 MCULE-2457265106 PubChem-54693473 PubChem-67824366 PubChem-76684153 ZINC000100022089


 30 31  0  0  0  0  0  0  0  0999 V2000
    4.6567   19.9458   69.2091 O   0  0  0  0  0  0  0  0  0  0  0  0
    5.9203   20.1468   69.8399 C   0  0  0  0  0  0  0  0  0  0  0  0
    6.6374   18.9313   69.8733 O   0  0  0  0  0  0  0  0  0  0  0  0
    7.7905   19.0625   70.6945 C   0  0  0  0  0  0  0  0  0  0  0  0
    8.5647   20.3855   70.5515 C   0  0  0  0  0  0  0  0  0  0  0  0
    9.9356   20.1333   70.6164 O   0  0  0  0  0  0  0  0  0  0  0  0
    8.2209   21.0650   69.2341 C   0  0  0  0  0  0  0  0  0  0  0  0
    8.8361   22.3154   69.1652 O   0  0  0  0  0  0  0  0  0  0  0  0
    6.7100   21.2294   69.0740 C   0  0  0  0  0  0  0  0  0  0  0  0
    6.3977   21.2083   67.7124 O   0  0  0  0  0  0  0  0  0  0  0  0
   10.1901   19.5409   69.8917 H   0  0  0  0  0  0  0  0  0  0  0  0
    8.5092   22.8768   69.8855 H   0  0  0  0  0  0  0  0  0  0  0  0
    6.6617   20.3555   67.3332 H   0  0  0  0  0  0  0  0  0  0  0  0
    7.5233   18.6948   72.1507 C   0  0  0  0  0  0  0  0  0  0  0  0
    7.2129   19.8306   72.9013 O   0  0  0  0  0  0  0  0  0  0  0  0
    7.9599   20.4488   72.8762 H   0  0  0  0  0  0  0  0  0  0  0  0
    1.9183   18.6885   71.3854 C   0  0  0  0  0  0  0  0  0  0  0  0
    1.2530   19.0342   70.1694 O   0  0  0  0  0  0  0  0  0  0  0  0
    2.1784   19.5255   69.2678 C   0  0  0  0  0  0  0  0  0  0  0  0
    1.8953   19.9186   68.1063 O   0  0  0  0  0  0  0  0  0  0  0  0
    3.4923   19.5136   69.8555 C   0  0  0  0  0  0  0  0  0  0  0  0
    3.3583   19.0332   71.0867 C   0  0  0  0  0  0  0  0  0  0  0  0
    4.4034   18.8510   71.9794 O   0  0  0  0  0  0  0  0  0  0  0  0
    5.2764   19.0855   71.7329 H   0  0  0  0  0  0  0  0  0  0  0  0
    1.3603   19.5255   72.5384 C   0  0  0  0  0  0  0  0  0  0  0  0
    0.1410   20.0893   72.1606 O   0  0  0  0  0  0  0  0  0  0  0  0
   -0.4920   19.3833   71.9561 H   0  0  0  0  0  0  0  0  0  0  0  0
    2.1133   17.6769   73.8454 O   0  0  0  0  0  0  0  0  0  0  0  0
    1.1356   18.6684   73.7722 C   0  0  0  0  0  0  0  0  0  0  0  0
    1.9642   17.1335   74.6349 H   0  0  0  0  0  0  0  0  0  0  0  0
 28 29  1  0  0  0
 25 29  1  0  0  0
 25 26  1  0  0  0
 25 17  1  0  0  0
 17 18  1  0  0  0
 18 19  1  0  0  0
 19 20  2  0  0  0
 19 21  1  0  0  0
 21  1  1  0  0  0
 21 22  2  0  0  0
  2  1  1  0  0  0
  2  3  1  0  0  0
  3  4  1  0  0  0
  4 14  1  0  0  0
  4  5  1  0  0  0
 14 15  1  0  0  0
  5  6  1  0  0  0
  5  7  1  0  0  0
  7  8  1  0  0  0
  7  9  1  0  0  0
  9 10  1  0  0  0
  9  2  1  0  0  0
 22 23  1  0  0  0
 22 17  1  0  0  0
 28 30  1  0  0  0
 26 27  1  0  0  0
 15 16  1  0  0  0
  6 11  1  0  0  0
  8 12  1  0  0  0
 10 13  1  0  0  0
 23 24  1  0  0  0
M  END
>  <minimizedAffinity>
-6.34380

>  <minimizedRMSD>
3.66467

$$$$
Molport-051-934-174 PubChem-78092327


 31 31  0  0  0  0  0  0  0  0999 V2000
   -2.1349   23.4643   67.6640 C   0  0  0  0  0  0  0  0  0  0  0  0
   -0.6342   23.2800   67.8755 C   0  0  0  0  0  0  0  0  0  0  0  0
   -0.3390   21.9722   68.5922 C   0  0  0  0  0  0  0  0  0  0  0  0
   -1.1118   21.9407   69.9186 C   0  0  0  0  0  0  0  0  0  0  0  0
   -2.4150   22.5220   69.9104 O   0  0  0  0  0  0  0  0  0  0  0  0
   -2.9941   22.6169   68.6164 C   0  0  0  0  0  0  0  0  0  0  0  0
   -3.1696   21.3415   68.0667 O   0  0  0  0  0  0  0  0  0  0  0  0
    0.0125   23.3092   66.6397 O   0  0  0  0  0  0  0  0  0  0  0  0
   -3.7114   20.8034   68.6648 H   0  0  0  0  0  0  0  0  0  0  0  0
   -0.3170   22.5847   66.0852 H   0  0  0  0  0  0  0  0  0  0  0  0
   -4.3338   23.2780   68.7488 C   0  0  0  0  0  0  0  0  0  0  0  0
   -4.6336   23.8898   69.8087 O   0  0  0  0  0  0  0  0  0  0  0  0
   -5.2595   23.2170   67.7129 O   0  0  0  0  0  0  0  0  0  0  0  0
   -5.0466   22.7645   66.9205 H   0  0  0  0  0  0  0  0  0  0  0  0
    1.0877   21.8614   68.8581 N   0  0  0  0  0  0  0  0  0  0  0  0
    1.8396   20.7119   68.4694 C   0  0  0  0  0  0  0  0  0  0  0  0
    1.2834   19.7537   67.8695 O   0  0  0  0  0  0  0  0  0  0  0  0
    1.5471   22.6001   69.3190 H   0  0  0  0  0  0  0  0  0  0  0  0
    3.2829   20.6263   68.8152 C   0  0  0  0  0  0  0  0  0  0  0  0
    3.5247   21.3173   70.0681 N   0  0  0  0  0  0  0  0  0  0  0  0
    4.6115   21.2066   70.6334 N   0  0  0  0  0  0  0  0  0  0  0  0
    5.6981   21.0963   71.1992 N   0  0  0  0  0  0  0  0  0  0  0  0
   -1.0892   20.5581   70.5732 C   0  0  0  0  0  0  0  0  0  0  0  0
   -0.9283   19.5451   69.6242 O   0  0  0  0  0  0  0  0  0  0  0  0
   -1.6857   19.5465   69.0182 H   0  0  0  0  0  0  0  0  0  0  0  0
   -2.3330   20.3210   71.4284 C   0  0  0  0  0  0  0  0  0  0  0  0
   -3.3847   19.8380   70.6469 O   0  0  0  0  0  0  0  0  0  0  0  0
   -3.1320   18.9875   70.2548 H   0  0  0  0  0  0  0  0  0  0  0  0
   -2.0368   19.3344   72.5449 C   0  0  0  0  0  0  0  0  0  0  0  0
   -0.8027   19.6281   73.1259 O   0  0  0  0  0  0  0  0  0  0  0  0
   -0.1057   19.5640   72.4543 H   0  0  0  0  0  0  0  0  0  0  0  0
  1  2  1  0  0  0
  2  3  1  0  0  0
  3  4  1  0  0  0
  4  5  1  0  0  0
  5  6  1  0  0  0
  6 11  1  0  0  0
 11 12  2  0  0  0
 11 13  1  0  0  0
  6  7  1  0  0  0
  4 23  1  0  0  0
 23 26  1  0  0  0
 26 29  1  0  0  0
 29 30  1  0  0  0
 26 27  1  0  0  0
 23 24  1  0  0  0
  3 15  1  0  0  0
 15 16  1  0  0  0
 16 17  2  0  0  0
 16 19  1  0  0  0
 19 20  1  0  0  0
 20 21  2  0  0  0
 21 22  2  0  0  0
  2  8  1  0  0  0
  6  1  1  0  0  0
 13 14  1  0  0  0
  7  9  1  0  0  0
 30 31  1  0  0  0
 27 28  1  0  0  0
 24 25  1  0  0  0
 15 18  1  0  0  0
  8 10  1  0  0  0
M  CHG 1  21   1
M  CHG 1  22  -1
M  END
>  <minimizedAffinity>
-6.34203

>  <minimizedRMSD>
3.08158

$$$$
MolPort-047-585-721 PubChem-154831919


 36 38  0  0  0  0  0  0  0  0999 V2000
    4.1069   19.9525   69.9031 C   0  0  0  0  0  0  0  0  0  0  0  0
    3.4083   21.2217   69.4065 C   0  0  0  0  0  0  0  0  0  0  0  0
    2.1545   21.3583   70.0284 O   0  0  0  0  0  0  0  0  0  0  0  0
    1.2619   20.4248   69.4465 C   0  0  0  0  0  0  0  0  0  0  0  0
    1.8217   18.9796   69.3476 C   0  0  0  0  0  0  0  0  0  0  0  0
    2.0722   18.6255   68.0189 O   0  0  0  0  0  0  0  0  0  0  0  0
    3.1052   18.8187   70.1678 C   0  0  0  0  0  0  0  0  0  0  0  0
    2.7927   18.7803   71.5272 O   0  0  0  0  0  0  0  0  0  0  0  0
    2.7501   19.2131   67.6500 H   0  0  0  0  0  0  0  0  0  0  0  0
    2.3759   19.6167   71.7869 H   0  0  0  0  0  0  0  0  0  0  0  0
    5.0503   19.5414   68.9586 O   0  0  0  0  0  0  0  0  0  0  0  0
   10.3128   20.3479   69.6000 O   0  0  0  0  0  0  0  0  0  0  0  0
    8.9672   20.7152   69.6447 C   0  0  0  0  0  0  0  0  0  0  0  0
    8.1708   19.7160   70.5038 C   0  0  0  0  0  0  0  0  0  0  0  0
    7.1440   19.0870   69.7724 O   0  0  0  0  0  0  0  0  0  0  0  0
    6.2561   20.1048   69.3821 C   0  0  0  0  0  0  0  0  0  0  0  0
    6.8611   20.9478   68.2490 C   0  0  0  0  0  0  0  0  0  0  0  0
    6.4645   22.2765   68.3965 O   0  0  0  0  0  0  0  0  0  0  0  0
    8.3922   20.8627   68.2259 C   0  0  0  0  0  0  0  0  0  0  0  0
    8.7794   19.7824   67.4288 O   0  0  0  0  0  0  0  0  0  0  0  0
   10.6543   20.2607   70.5037 H   0  0  0  0  0  0  0  0  0  0  0  0
    6.7950   22.6207   69.2410 H   0  0  0  0  0  0  0  0  0  0  0  0
    8.4257   18.9607   67.8038 H   0  0  0  0  0  0  0  0  0  0  0  0
    0.7798   20.8964   68.2180 O   0  0  0  0  0  0  0  0  0  0  0  0
   -0.0242   21.9936   68.5407 C   0  0  0  0  0  0  0  0  0  0  0  0
    0.3508   23.2060   67.6663 C   0  0  0  0  0  0  0  0  0  0  0  0
   -0.7383   23.6704   66.9026 O   0  0  0  0  0  0  0  0  0  0  0  0
   -1.7157   24.0923   67.8201 C   0  0  0  0  0  0  0  0  0  0  0  0
   -2.6689   24.8719   67.1664 O   0  0  0  0  0  0  0  0  0  0  0  0
   -2.3986   22.8859   68.4802 C   0  0  0  0  0  0  0  0  0  0  0  0
   -2.7109   23.1957   69.8035 O   0  0  0  0  0  0  0  0  0  0  0  0
   -1.5163   21.6321   68.4351 C   0  0  0  0  0  0  0  0  0  0  0  0
   -1.7661   20.9361   67.2495 O   0  0  0  0  0  0  0  0  0  0  0  0
   -3.1001   24.3441   66.4761 H   0  0  0  0  0  0  0  0  0  0  0  0
   -1.8950   23.3874   70.2919 H   0  0  0  0  0  0  0  0  0  0  0  0
   -1.5467   21.5000   66.4913 H   0  0  0  0  0  0  0  0  0  0  0  0
 12 13  1  0  0  0
 13 14  1  0  0  0
 14 15  1  0  0  0
 15 16  1  0  0  0
 16 11  1  0  0  0
 11  1  1  0  0  0
  1  2  1  0  0  0
  2  3  1  0  0  0
  3  4  1  0  0  0
  4 24  1  0  0  0
 25 24  1  0  0  0
 25 26  1  0  0  0
 26 27  1  0  0  0
 27 28  1  0  0  0
 28 29  1  0  0  0
 28 30  1  0  0  0
 30 31  1  0  0  0
 30 32  1  0  0  0
 32 33  1  0  0  0
  4  5  1  0  0  0
  5  6  1  0  0  0
  5  7  1  0  0  0
  7  8  1  0  0  0
 16 17  1  0  0  0
 17 18  1  0  0  0
 17 19  1  0  0  0
 19 20  1  0  0  0
 19 13  1  0  0  0
  7  1  1  0  0  0
 32 25  1  0  0  0
 12 21  1  0  0  0
 29 34  1  0  0  0
 31 35  1  0  0  0
 33 36  1  0  0  0
  6  9  1  0  0  0
  8 10  1  0  0  0
 18 22  1  0  0  0
 20 23  1  0  0  0
M  END
>  <minimizedAffinity>
-6.34189

>  <minimizedRMSD>
2.31829

$$$$
Molport-053-120-689 4533848 CHEMBL17411 LN02181569 MCULE-3273897169 PubChem-10028036 ZINC000004533848


 43 42  0  0  0  0  0  0  0  0999 V2000
    0.7471   19.8590   70.6810 C   0  0  0  0  0  0  0  0  0  0  0  0
    1.0792   19.9243   71.8962 O   0  0  0  0  0  0  0  0  0  0  0  0
   -0.6287   19.7804   70.3098 N   0  0  0  0  0  0  0  0  0  0  0  0
   -0.8582   19.6862   69.3571 H   0  0  0  0  0  0  0  0  0  0  0  0
    1.7908   19.8435   69.6127 C   0  0  0  0  0  0  0  0  0  0  0  0
    4.3133   19.6368   69.4570 C   0  0  0  0  0  0  0  0  0  0  0  0
    4.2925   19.8796   68.2214 O   0  0  0  0  0  0  0  0  0  0  0  0
    3.0976   19.6053   70.2118 N   0  0  0  0  0  0  0  0  0  0  0  0
    3.1463   19.4146   71.1765 H   0  0  0  0  0  0  0  0  0  0  0  0
    5.3991   18.6878   71.3866 N   0  0  0  0  0  0  0  0  0  0  0  0
    5.6227   19.3890   70.1338 C   0  0  0  0  0  0  0  0  0  0  0  0
    6.2939   18.5198   71.8466 H   0  0  0  0  0  0  0  0  0  0  0  0
    4.9401   17.7962   71.2000 H   0  0  0  0  0  0  0  0  0  0  0  0
    6.3530   20.6972   70.4051 C   0  0  0  0  0  0  0  0  0  0  0  0
    7.2452   21.0612   69.2651 C   0  0  0  0  0  0  0  0  0  0  0  0
    6.9077   21.9787   68.4733 O   0  0  0  0  0  0  0  0  0  0  0  0
    8.4573   20.4051   69.0880 O   0  0  0  0  0  0  0  0  0  0  0  0
    8.7105   19.7215   69.6767 H   0  0  0  0  0  0  0  0  0  0  0  0
    1.4910   18.7675   68.5729 C   0  0  0  0  0  0  0  0  0  0  0  0
    0.6053   19.2922   67.4921 C   0  0  0  0  0  0  0  0  0  0  0  0
    0.3004   20.5130   67.4525 O   0  0  0  0  0  0  0  0  0  0  0  0
    0.1014   18.4246   66.5338 O   0  0  0  0  0  0  0  0  0  0  0  0
    0.3263   17.5154   66.5604 H   0  0  0  0  0  0  0  0  0  0  0  0
   -1.7047   19.8342   71.2879 C   0  0  0  0  0  0  0  0  0  0  0  0
   -2.8636   20.5817   70.7159 C   0  0  0  0  0  0  0  0  0  0  0  0
   -4.0211   20.3613   71.1621 O   0  0  0  0  0  0  0  0  0  0  0  0
   -2.6584   21.5365   69.6706 N   0  0  0  0  0  0  0  0  0  0  0  0
   -1.7369   21.7377   69.3886 H   0  0  0  0  0  0  0  0  0  0  0  0
   -3.7602   22.2243   69.0053 C   0  0  0  0  0  0  0  0  0  0  0  0
   -4.0769   21.5901   67.6760 C   0  0  0  0  0  0  0  0  0  0  0  0
   -5.2306   21.1312   67.4598 O   0  0  0  0  0  0  0  0  0  0  0  0
   -3.1284   21.5492   66.6583 O   0  0  0  0  0  0  0  0  0  0  0  0
   -2.2672   21.8872   66.8067 H   0  0  0  0  0  0  0  0  0  0  0  0
   -3.4892   23.7314   68.9144 C   0  0  0  0  0  0  0  0  0  0  0  0
   -2.1161   24.0615   68.4159 C   0  0  0  0  0  0  0  0  0  0  0  0
   -1.1090   23.8742   69.1481 O   0  0  0  0  0  0  0  0  0  0  0  0
   -1.9567   24.6104   67.1508 O   0  0  0  0  0  0  0  0  0  0  0  0
   -2.7041   24.7511   66.6036 H   0  0  0  0  0  0  0  0  0  0  0  0
   -1.2073   20.4985   72.5665 C   0  0  0  0  0  0  0  0  0  0  0  0
   -2.1720   21.5325   73.0405 C   0  0  0  0  0  0  0  0  0  0  0  0
   -2.7226   21.4175   74.1670 O   0  0  0  0  0  0  0  0  0  0  0  0
   -2.4566   22.6297   72.2388 O   0  0  0  0  0  0  0  0  0  0  0  0
   -2.0473   22.7161   71.4004 H   0  0  0  0  0  0  0  0  0  0  0  0
 11 10  1  0  0  0
 11 14  1  0  0  0
 11  6  1  0  0  0
 14 15  1  0  0  0
 15 16  2  0  0  0
 15 17  1  0  0  0
  6  7  2  0  0  0
  6  8  1  0  0  0
  5  8  1  0  0  0
  5 19  1  0  0  0
  5  1  1  0  0  0
 19 20  1  0  0  0
 20 21  2  0  0  0
 20 22  1  0  0  0
  1  2  2  0  0  0
  1  3  1  0  0  0
 24  3  1  0  0  0
 24 39  1  0  0  0
 24 25  1  0  0  0
 39 40  1  0  0  0
 40 41  2  0  0  0
 40 42  1  0  0  0
 25 26  2  0  0  0
 25 27  1  0  0  0
 29 27  1  0  0  0
 29 34  1  0  0  0
 29 30  1  0  0  0
 34 35  1  0  0  0
 35 36  2  0  0  0
 35 37  1  0  0  0
 30 31  2  0  0  0
 30 32  1  0  0  0
 10 12  1  0  0  0
 10 13  1  0  0  0
 17 18  1  0  0  0
  8  9  1  0  0  0
 22 23  1  0  0  0
  3  4  1  0  0  0
 42 43  1  0  0  0
 27 28  1  0  0  0
 37 38  1  0  0  0
 32 33  1  0  0  0
M  END
>  <minimizedAffinity>
-6.31789

>  <minimizedRMSD>
4.34520

$$$$
MolPort-035-912-953 PubChem-43835046


 33 34  0  0  0  0  0  0  0  0999 V2000
    4.1047   18.8811   70.7144 O   0  0  0  0  0  0  0  0  0  0  0  0
    1.9417   19.8629   71.3983 C   0  0  0  0  0  0  0  0  0  0  0  0
    3.0548   19.7190   70.3169 C   0  0  0  0  0  0  0  0  0  0  0  0
    2.4852   19.2774   68.9623 C   0  0  0  0  0  0  0  0  0  0  0  0
    1.2558   20.1311   68.5973 C   0  0  0  0  0  0  0  0  0  0  0  0
    0.4298   20.5068   69.8487 C   0  0  0  0  0  0  0  0  0  0  0  0
    0.6524   19.5912   70.8909 O   0  0  0  0  0  0  0  0  0  0  0  0
   -0.9358   20.5929   69.5685 O   0  0  0  0  0  0  0  0  0  0  0  0
    0.4460   19.4650   67.5853 N   0  0  0  0  0  0  0  0  0  0  0  0
    2.1478   17.9199   69.0122 O   0  0  0  0  0  0  0  0  0  0  0  0
   -1.2625   19.7256   69.2824 H   0  0  0  0  0  0  0  0  0  0  0  0
    0.0963   18.5818   67.9568 H   0  0  0  0  0  0  0  0  0  0  0  0
    1.0158   19.2843   66.7587 H   0  0  0  0  0  0  0  0  0  0  0  0
    1.4746   17.7790   69.6962 H   0  0  0  0  0  0  0  0  0  0  0  0
    2.1876   19.0514   72.6679 C   0  0  0  0  0  0  0  0  0  0  0  0
    1.8554   17.7108   72.4635 O   0  0  0  0  0  0  0  0  0  0  0  0
    2.4055   17.3461   71.7527 H   0  0  0  0  0  0  0  0  0  0  0  0
    5.2473   19.6821   70.6496 C   0  0  0  0  0  0  0  0  0  0  0  0
    5.9755   19.6838   71.9966 C   0  0  0  0  0  0  0  0  0  0  0  0
    7.1982   20.5986   71.9185 C   0  0  0  0  0  0  0  0  0  0  0  0
    8.0149   20.3664   70.6403 C   0  0  0  0  0  0  0  0  0  0  0  0
    7.1215   20.1779   69.4038 C   0  0  0  0  0  0  0  0  0  0  0  0
    6.0940   19.2261   69.6166 O   0  0  0  0  0  0  0  0  0  0  0  0
    8.8344   19.2486   70.8001 O   0  0  0  0  0  0  0  0  0  0  0  0
    6.7950   21.9330   71.9880 O   0  0  0  0  0  0  0  0  0  0  0  0
    6.3808   18.3353   72.3633 N   0  0  0  0  0  0  0  0  0  0  0  0
    8.2846   18.4629   70.9462 H   0  0  0  0  0  0  0  0  0  0  0  0
    6.2232   22.1377   71.2317 H   0  0  0  0  0  0  0  0  0  0  0  0
    7.0192   17.9683   71.6575 H   0  0  0  0  0  0  0  0  0  0  0  0
    5.5571   17.7366   72.4210 H   0  0  0  0  0  0  0  0  0  0  0  0
    6.6041   21.5029   68.8468 C   0  0  0  0  0  0  0  0  0  0  0  0
    5.5321   21.2683   67.9861 O   0  0  0  0  0  0  0  0  0  0  0  0
    5.8244   20.7066   67.2513 H   0  0  0  0  0  0  0  0  0  0  0  0
 15 16  1  0  0  0
  2 15  1  0  0  0
  2  3  1  0  0  0
  3  4  1  0  0  0
  3  1  1  0  0  0
  4  5  1  0  0  0
  4 10  1  0  0  0
  5  6  1  0  0  0
  5  9  1  0  0  0
  6  7  1  0  0  0
  6  8  1  0  0  0
  7  2  1  0  0  0
 18  1  1  0  0  0
 18 19  1  0  0  0
 19 20  1  0  0  0
 19 26  1  0  0  0
 20 21  1  0  0  0
 20 25  1  0  0  0
 21 22  1  0  0  0
 21 24  1  0  0  0
 22 23  1  0  0  0
 22 31  1  0  0  0
 23 18  1  0  0  0
 31 32  1  0  0  0
  8 11  1  0  0  0
  9 12  1  0  0  0
  9 13  1  0  0  0
 10 14  1  0  0  0
 32 33  1  0  0  0
 24 27  1  0  0  0
 25 28  1  0  0  0
 26 29  1  0  0  0
 26 30  1  0  0  0
 16 17  1  0  0  0
M  END
>  <minimizedAffinity>
-6.30748

>  <minimizedRMSD>
3.69433

$$$$
MolPort-003-940-873 MolPort-042-675-902 MCULE-5300185876 NSC231323 NSC231900 PubChem-161150408 PubChem-17860101 PubChem-21909805 PubChem-22450212 PubChem-22450213 PubChem-22506408 PubChem-3871 PubChem-59872359 PubChem-72584149 PubChem-77186230 PubChem-77195206 PubChem-77216432 PubChem-77218526 PubChem-77274235 PubChem-77305204 PubChem-77309108 PubChem-77312342 PubChem-77316441 PubChem-77317202 PubChem-77317993 PubChem-77334505 PubChem-77345302 PubChem-77360668 PubChem-77383083 PubChem-77498220 PubChem-77507183 PubChem-77523926 PubChem-77583797 PubChem-77612759 PubChem-77677672 PubChem-77799379 PubChem-77804039 PubChem-77812529 PubChem-77817073 PubChem-77837340 PubChem-77841789 PubChem-85844876 PubChem-85847761


 32 32  0  0  0  0  0  0  0  0999 V2000
    2.9560   18.7810   71.3012 O   0  0  0  0  0  0  0  0  0  0  0  0
    4.3231   19.8262   69.1649 C   0  0  0  0  0  0  0  0  0  0  0  0
    5.7688   19.3428   69.3250 C   0  0  0  0  0  0  0  0  0  0  0  0
    5.8769   18.5240   70.6097 C   0  0  0  0  0  0  0  0  0  0  0  0
    5.2742   19.2742   71.8009 C   0  0  0  0  0  0  0  0  0  0  0  0
    3.8904   19.8194   71.4326 C   0  0  0  0  0  0  0  0  0  0  0  0
    3.9420   20.6232   70.2674 O   0  0  0  0  0  0  0  0  0  0  0  0
    6.1032   20.3315   72.1844 O   0  0  0  0  0  0  0  0  0  0  0  0
    7.2090   18.1919   70.8649 O   0  0  0  0  0  0  0  0  0  0  0  0
    6.1273   18.5418   68.2384 O   0  0  0  0  0  0  0  0  0  0  0  0
    6.1916   20.9565   71.4479 H   0  0  0  0  0  0  0  0  0  0  0  0
    7.7261   19.0029   70.9904 H   0  0  0  0  0  0  0  0  0  0  0  0
    5.5363   17.7739   68.1939 H   0  0  0  0  0  0  0  0  0  0  0  0
    4.1723   20.6359   67.8879 C   0  0  0  0  0  0  0  0  0  0  0  0
    5.1837   21.5937   67.8137 O   0  0  0  0  0  0  0  0  0  0  0  0
    6.0475   21.1523   67.8113 H   0  0  0  0  0  0  0  0  0  0  0  0
    1.7606   19.2953   71.8172 C   0  0  0  0  0  0  0  0  0  0  0  0
    1.4589   18.6865   73.1937 C   0  0  0  0  0  0  0  0  0  0  0  0
    1.9429   17.3775   73.2690 O   0  0  0  0  0  0  0  0  0  0  0  0
    2.9051   17.3810   73.1460 H   0  0  0  0  0  0  0  0  0  0  0  0
    2.1153   19.5154   74.2838 C   0  0  0  0  0  0  0  0  0  0  0  0
    1.3340   20.6369   74.5618 O   0  0  0  0  0  0  0  0  0  0  0  0
    1.2470   21.1770   73.7608 H   0  0  0  0  0  0  0  0  0  0  0  0
    0.6402   19.0494   70.7995 C   0  0  0  0  0  0  0  0  0  0  0  0
   -0.2887   18.1164   71.2727 O   0  0  0  0  0  0  0  0  0  0  0  0
   -0.7313   18.4712   72.0596 H   0  0  0  0  0  0  0  0  0  0  0  0
   -0.0354   20.3362   70.3243 C   0  0  0  0  0  0  0  0  0  0  0  0
   -1.4144   20.1642   70.1745 O   0  0  0  0  0  0  0  0  0  0  0  0
   -1.5846   19.4944   69.4939 H   0  0  0  0  0  0  0  0  0  0  0  0
    0.5786   20.8274   69.0204 C   0  0  0  0  0  0  0  0  0  0  0  0
    1.4014   21.9333   69.2448 O   0  0  0  0  0  0  0  0  0  0  0  0
    0.8764   22.6551   69.6247 H   0  0  0  0  0  0  0  0  0  0  0  0
 14 15  1  0  0  0
  2 14  1  0  0  0
  2  3  1  0  0  0
  3  4  1  0  0  0
  3 10  1  0  0  0
  4  5  1  0  0  0
  4  9  1  0  0  0
  5  6  1  0  0  0
  5  8  1  0  0  0
  6  7  1  0  0  0
  6  1  1  0  0  0
  7  2  1  0  0  0
 17  1  1  0  0  0
 17 18  1  0  0  0
 17 24  1  0  0  0
 18 21  1  0  0  0
 18 19  1  0  0  0
 21 22  1  0  0  0
 24 27  1  0  0  0
 24 25  1  0  0  0
 27 30  1  0  0  0
 27 28  1  0  0  0
 30 31  1  0  0  0
 22 23  1  0  0  0
 19 20  1  0  0  0
 31 32  1  0  0  0
 28 29  1  0  0  0
 25 26  1  0  0  0
  8 11  1  0  0  0
  9 12  1  0  0  0
 10 13  1  0  0  0
 15 16  1  0  0  0
M  END
>  <minimizedAffinity>
-6.29766

>  <minimizedRMSD>
2.99615

$$$$
Molport-053-146-343 MCULE-5259258955 MCULE-7735213848 PubChem-18486959


 36 35  0  0  0  0  0  0  0  0999 V2000
    2.1887   20.2227   69.7670 N   0  0  0  0  0  0  0  0  0  0  0  0
    3.1975   19.2097   69.7078 C   0  0  0  0  0  0  0  0  0  0  0  0
    3.0393   18.1913   68.9833 O   0  0  0  0  0  0  0  0  0  0  0  0
    2.3693   21.0382   70.2881 H   0  0  0  0  0  0  0  0  0  0  0  0
    0.9043   20.0976   69.0878 C   0  0  0  0  0  0  0  0  0  0  0  0
    0.3321   21.4475   68.7939 C   0  0  0  0  0  0  0  0  0  0  0  0
    0.3946   22.3686   69.6536 O   0  0  0  0  0  0  0  0  0  0  0  0
   -0.2719   21.6853   67.5211 N   0  0  0  0  0  0  0  0  0  0  0  0
   -0.2703   20.9597   66.8556 H   0  0  0  0  0  0  0  0  0  0  0  0
   -0.8895   22.9552   67.1666 C   0  0  0  0  0  0  0  0  0  0  0  0
   -2.2110   23.0924   67.8413 C   0  0  0  0  0  0  0  0  0  0  0  0
   -3.1950   22.4172   67.4423 O   0  0  0  0  0  0  0  0  0  0  0  0
   -2.3498   23.9411   68.9311 O   0  0  0  0  0  0  0  0  0  0  0  0
   -1.6178   24.4444   69.2292 H   0  0  0  0  0  0  0  0  0  0  0  0
   -0.0645   19.2189   69.8832 C   0  0  0  0  0  0  0  0  0  0  0  0
    0.1618   19.3146   71.3871 C   0  0  0  0  0  0  0  0  0  0  0  0
   -0.6766   18.2792   72.1172 C   0  0  0  0  0  0  0  0  0  0  0  0
    0.2068   17.2632   72.8248 C   0  0  0  0  0  0  0  0  0  0  0  0
   -0.4819   15.9894   72.9414 N   0  0  0  0  0  0  0  0  0  0  0  0
   -1.3367   16.1135   73.4838 H   0  0  0  0  0  0  0  0  0  0  0  0
    0.1243   15.3169   73.4112 H   0  0  0  0  0  0  0  0  0  0  0  0
    4.4446   19.3460   70.5178 C   0  0  0  0  0  0  0  0  0  0  0  0
    4.0944   19.5075   71.9222 N   0  0  0  0  0  0  0  0  0  0  0  0
    5.0580   19.4298   72.9745 C   0  0  0  0  0  0  0  0  0  0  0  0
    6.2656   19.1741   72.7223 O   0  0  0  0  0  0  0  0  0  0  0  0
    3.1534   19.6775   72.1566 H   0  0  0  0  0  0  0  0  0  0  0  0
    4.6223   19.6111   74.3847 C   0  0  0  0  0  0  0  0  0  0  0  0
    4.3957   18.3140   74.9963 N   0  0  0  0  0  0  0  0  0  0  0  0
    3.6698   17.8169   74.4802 H   0  0  0  0  0  0  0  0  0  0  0  0
    4.0985   18.4416   75.9636 H   0  0  0  0  0  0  0  0  0  0  0  0
    5.2719   20.5340   70.0441 C   0  0  0  0  0  0  0  0  0  0  0  0
    5.9576   20.2123   68.7271 C   0  0  0  0  0  0  0  0  0  0  0  0
    7.1863   21.0388   68.5720 C   0  0  0  0  0  0  0  0  0  0  0  0
    7.0971   22.2643   68.2977 O   0  0  0  0  0  0  0  0  0  0  0  0
    8.4358   20.4509   68.7129 O   0  0  0  0  0  0  0  0  0  0  0  0
    8.5041   19.5390   68.9170 H   0  0  0  0  0  0  0  0  0  0  0  0
 16 17  1  0  0  0
 16 15  1  0  0  0
 17 18  1  0  0  0
 18 19  1  0  0  0
  5 15  1  0  0  0
  5  6  1  0  0  0
  5  1  1  0  0  0
  6  7  2  0  0  0
  6  8  1  0  0  0
  8 10  1  0  0  0
 10 11  1  0  0  0
 11 12  2  0  0  0
 11 13  1  0  0  0
  1  2  1  0  0  0
  2  3  2  0  0  0
 22  2  1  0  0  0
 22 31  1  0  0  0
 22 23  1  0  0  0
 31 32  1  0  0  0
 32 33  1  0  0  0
 33 34  2  0  0  0
 33 35  1  0  0  0
 23 24  1  0  0  0
 24 25  2  0  0  0
 24 27  1  0  0  0
 27 28  1  0  0  0
 19 20  1  0  0  0
 19 21  1  0  0  0
  8  9  1  0  0  0
 13 14  1  0  0  0
  1  4  1  0  0  0
 35 36  1  0  0  0
 23 26  1  0  0  0
 28 29  1  0  0  0
 28 30  1  0  0  0
M  END
>  <minimizedAffinity>
-6.28724

>  <minimizedRMSD>
0.94336

$$$$
MolPort-006-110-875 CHEMBL2105945 CSSS00020657509 MCULE-8723310029 PubChem-117834351 PubChem-134265401 PubChem-14017587 PubChem-66629442 PubChem-67343352 PubChem-67356128 PubChem-67703259 PubChem-67721751 PubChem-68625001 PubChem-68787360 PubChem-70197812 PubChem-70222833 PubChem-87075534 PubChem-87087885 PubChem-87106607 PubChem-87184299 PubChem-87250223 PubChem-87330018 PubChem-87351023 PubChem-87389677 PubChem-87501081 PubChem-87527443 PubChem-87560115 PubChem-87617406 PubChem-87618517 PubChem-87655537 PubChem-87667404 PubChem-87745699 PubChem-88048566 PubChem-88156105 PubChem-88197137 PubChem-88466295 PubChem-88469012 PubChem-89598140 PubChem-89620401 PubChem-90300361 PubChem-90300447 ZINC000004214715


 28 27  0  0  0  0  0  0  0  0999 V2000
    3.4780   19.6014   70.7818 C   0  0  0  0  0  0  0  0  0  0  0  0
    1.5059   17.9090   73.6638 C   0  0  0  0  0  0  0  0  0  0  0  0
    2.2964   18.9248   72.9212 C   0  0  0  0  0  0  0  0  0  0  0  0
    2.5770   20.0243   73.4703 O   0  0  0  0  0  0  0  0  0  0  0  0
    2.7391   18.6395   71.5936 N   0  0  0  0  0  0  0  0  0  0  0  0
    2.5372   17.7558   71.2095 H   0  0  0  0  0  0  0  0  0  0  0  0
    4.3908   18.8788   69.7784 C   0  0  0  0  0  0  0  0  0  0  0  0
    5.4532   18.2361   70.4230 O   0  0  0  0  0  0  0  0  0  0  0  0
    6.0082   18.8957   70.8677 H   0  0  0  0  0  0  0  0  0  0  0  0
    4.9182   19.8339   68.7032 C   0  0  0  0  0  0  0  0  0  0  0  0
    6.3642   19.6031   68.3862 C   0  0  0  0  0  0  0  0  0  0  0  0
    6.7351   18.4606   68.0036 O   0  0  0  0  0  0  0  0  0  0  0  0
    7.3458   20.6932   68.4886 C   0  0  0  0  0  0  0  0  0  0  0  0
    6.9343   22.0192   68.4346 O   0  0  0  0  0  0  0  0  0  0  0  0
    8.5674   20.4302   68.6355 O   0  0  0  0  0  0  0  0  0  0  0  0
    6.0265   22.2240   68.3253 H   0  0  0  0  0  0  0  0  0  0  0  0
    2.4913   20.5551   70.0859 C   0  0  0  0  0  0  0  0  0  0  0  0
    3.1568   21.4661   69.2605 O   0  0  0  0  0  0  0  0  0  0  0  0
    3.6024   20.9875   68.5440 H   0  0  0  0  0  0  0  0  0  0  0  0
    1.3775   19.8228   69.3279 C   0  0  0  0  0  0  0  0  0  0  0  0
    1.5435   19.9231   67.9437 O   0  0  0  0  0  0  0  0  0  0  0  0
    1.4742   20.8529   67.6763 H   0  0  0  0  0  0  0  0  0  0  0  0
   -0.0196   20.2796   69.7596 C   0  0  0  0  0  0  0  0  0  0  0  0
   -0.9107   19.2058   69.7033 O   0  0  0  0  0  0  0  0  0  0  0  0
   -0.9903   18.8994   68.7864 H   0  0  0  0  0  0  0  0  0  0  0  0
   -0.5630   21.4656   68.9608 C   0  0  0  0  0  0  0  0  0  0  0  0
   -0.8999   21.0821   67.6594 O   0  0  0  0  0  0  0  0  0  0  0  0
   -0.1096   20.7500   67.2054 H   0  0  0  0  0  0  0  0  0  0  0  0
  2  3  1  0  0  0
  3  4  2  0  0  0
  3  5  1  0  0  0
  1  5  1  0  0  0
  1  7  1  0  0  0
  1 17  1  0  0  0
  7  8  1  0  0  0
  7 10  1  0  0  0
 10 11  1  0  0  0
 11 12  2  0  0  0
 11 13  1  0  0  0
 13 14  1  0  0  0
 13 15  2  0  0  0
 17 18  1  0  0  0
 17 20  1  0  0  0
 20 21  1  0  0  0
 20 23  1  0  0  0
 23 24  1  0  0  0
 23 26  1  0  0  0
 26 27  1  0  0  0
  5  6  1  0  0  0
  8  9  1  0  0  0
 14 16  1  0  0  0
 18 19  1  0  0  0
 21 22  1  0  0  0
 24 25  1  0  0  0
 27 28  1  0  0  0
M  END
>  <minimizedAffinity>
-6.27209

>  <minimizedRMSD>
2.47322

$$$$
MolPort-046-690-876 Molport-051-906-858 CSSS06741677631 MCULE-5481102058 MCULE-6033252936 MCULE-8937164897 MCULE-9636231868 PubChem-114881 PubChem-131886270 PubChem-46895879


 27 29  0  0  0  0  0  0  0  0999 V2000
    2.3856   19.4603   69.7147 C   0  0  0  0  0  0  0  0  0  0  0  0
    2.1173   18.2169   69.1398 C   0  0  0  0  0  0  0  0  0  0  0  0
    1.0961   18.3146   68.2499 N   0  0  0  0  0  0  0  0  0  0  0  0
    0.7391   19.6100   68.2778 C   0  0  0  0  0  0  0  0  0  0  0  0
    1.4912   20.3354   69.1478 C   0  0  0  0  0  0  0  0  0  0  0  0
    1.2553   21.6981   69.2992 C   0  0  0  0  0  0  0  0  0  0  0  0
    1.9338   22.3996   70.0946 O   0  0  0  0  0  0  0  0  0  0  0  0
    0.2598   22.2618   68.5557 N   0  0  0  0  0  0  0  0  0  0  0  0
   -0.4877   21.5130   67.6844 C   0  0  0  0  0  0  0  0  0  0  0  0
   -0.2487   20.1747   67.5412 N   0  0  0  0  0  0  0  0  0  0  0  0
   -1.5180   22.1321   66.9245 N   0  0  0  0  0  0  0  0  0  0  0  0
    0.7038   17.5950   67.7045 H   0  0  0  0  0  0  0  0  0  0  0  0
   -0.7827   19.6327   66.9165 H   0  0  0  0  0  0  0  0  0  0  0  0
   -1.6927   23.0958   67.0253 H   0  0  0  0  0  0  0  0  0  0  0  0
   -2.0566   21.5972   66.2976 H   0  0  0  0  0  0  0  0  0  0  0  0
    3.4314   19.7887   70.7364 C   0  0  0  0  0  0  0  0  0  0  0  0
    4.7293   19.2517   70.3528 N   0  0  0  0  0  0  0  0  0  0  0  0
    5.1313   18.7236   71.1273 H   0  0  0  0  0  0  0  0  0  0  0  0
    6.9569   20.1405   70.5440 C   0  0  0  0  0  0  0  0  0  0  0  0
    7.8768   20.3108   69.6052 C   0  0  0  0  0  0  0  0  0  0  0  0
    7.2756   20.6967   68.3002 C   0  0  0  0  0  0  0  0  0  0  0  0
    5.7765   20.4707   68.5154 C   0  0  0  0  0  0  0  0  0  0  0  0
    5.5846   20.3811   70.0235 C   0  0  0  0  0  0  0  0  0  0  0  0
    5.0055   21.5089   67.9863 O   0  0  0  0  0  0  0  0  0  0  0  0
    7.5536   22.0441   68.0534 O   0  0  0  0  0  0  0  0  0  0  0  0
    5.2559   22.3453   68.4089 H   0  0  0  0  0  0  0  0  0  0  0  0
    7.2287   22.5819   68.7924 H   0  0  0  0  0  0  0  0  0  0  0  0
 19 20  2  0  0  0
 20 21  1  0  0  0
 21 22  1  0  0  0
 21 25  1  0  0  0
 22 23  1  0  0  0
 22 24  1  0  0  0
 23 17  1  0  0  0
 23 19  1  0  0  0
 17 16  1  0  0  0
 16  1  1  0  0  0
  1  2  2  0  0  0
  2  3  1  0  0  0
  3  4  1  0  0  0
  4  5  2  0  0  0
  5  6  1  0  0  0
  5  1  1  0  0  0
  6  7  2  0  0  0
  6  8  1  0  0  0
  8  9  2  0  0  0
  9 10  1  0  0  0
  9 11  1  0  0  0
 10  4  1  0  0  0
 17 18  1  0  0  0
  3 12  1  0  0  0
 10 13  1  0  0  0
 11 14  1  0  0  0
 11 15  1  0  0  0
 24 26  1  0  0  0
 25 27  1  0  0  0
M  END
>  <minimizedAffinity>
-6.26713

>  <minimizedRMSD>
1.18653

$$$$
MolPort-004-953-624 1085874 MCULE-1871116264 PubChem-566616 ZINC000001085874 ZINC01085874


 31 33  0  0  0  0  0  0  0  0999 V2000
    0.1629   20.3611   70.6166 C   0  0  0  0  0  0  0  0  0  0  0  0
   -0.1382   20.2478   72.1229 C   0  0  0  0  0  0  0  0  0  0  0  0
   -1.1539   19.1488   72.4293 C   0  0  0  0  0  0  0  0  0  0  0  0
   -0.6272   17.7732   72.0018 C   0  0  0  0  0  0  0  0  0  0  0  0
    0.3055   17.8270   70.7851 C   0  0  0  0  0  0  0  0  0  0  0  0
   -0.0293   19.0131   69.8846 C   0  0  0  0  0  0  0  0  0  0  0  0
   -2.0982   21.0307   69.6550 N   0  0  0  0  0  0  0  0  0  0  0  0
   -0.7652   21.3977   70.0343 C   0  0  0  0  0  0  0  0  0  0  0  0
   -0.4071   22.6071   69.9867 O   0  0  0  0  0  0  0  0  0  0  0  0
   -2.4070   20.1274   69.8959 H   0  0  0  0  0  0  0  0  0  0  0  0
   -1.3028   22.3874   67.1431 C   0  0  0  0  0  0  0  0  0  0  0  0
   -2.6459   22.5590   67.7668 C   0  0  0  0  0  0  0  0  0  0  0  0
   -3.5760   23.3665   67.1058 C   0  0  0  0  0  0  0  0  0  0  0  0
   -4.8742   23.4993   67.5992 C   0  0  0  0  0  0  0  0  0  0  0  0
   -5.2556   22.8104   68.7506 C   0  0  0  0  0  0  0  0  0  0  0  0
   -4.3397   21.9944   69.4198 C   0  0  0  0  0  0  0  0  0  0  0  0
   -3.0173   21.8799   68.9506 C   0  0  0  0  0  0  0  0  0  0  0  0
   -4.7865   21.2740   70.6461 C   0  0  0  0  0  0  0  0  0  0  0  0
    1.5565   20.7866   70.4750 N   0  0  0  0  0  0  0  0  0  0  0  0
    2.2955   20.7939   69.2475 C   0  0  0  0  0  0  0  0  0  0  0  0
    1.7556   20.4406   68.1657 O   0  0  0  0  0  0  0  0  0  0  0  0
    2.0225   21.0915   71.2869 H   0  0  0  0  0  0  0  0  0  0  0  0
    3.7328   21.1810   69.2602 C   0  0  0  0  0  0  0  0  0  0  0  0
    4.5666   19.9896   69.2891 N   0  0  0  0  0  0  0  0  0  0  0  0
    5.0197   19.3168   70.3544 C   0  0  0  0  0  0  0  0  0  0  0  0
    5.6985   18.2225   69.9715 N   0  0  0  0  0  0  0  0  0  0  0  0
    5.6412   18.2446   68.6443 N   0  0  0  0  0  0  0  0  0  0  0  0
    4.9553   19.3029   68.2310 N   0  0  0  0  0  0  0  0  0  0  0  0
    4.7952   19.6907   71.7098 N   0  0  0  0  0  0  0  0  0  0  0  0
    4.2875   20.5083   71.9173 H   0  0  0  0  0  0  0  0  0  0  0  0
    5.1476   19.1315   72.4395 H   0  0  0  0  0  0  0  0  0  0  0  0
 11 12  1  0  0  0
 12 13  2  0  0  0
 13 14  1  0  0  0
 14 15  2  0  0  0
 15 16  1  0  0  0
 16 17  2  0  0  0
 16 18  1  0  0  0
 17  7  1  0  0  0
 17 12  1  0  0  0
  7  8  1  0  0  0
  8  9  2  0  0  0
  8  1  1  0  0  0
  1  2  1  0  0  0
  1 19  1  0  0  0
  2  3  1  0  0  0
  3  4  1  0  0  0
  4  5  1  0  0  0
  5  6  1  0  0  0
  6  1  1  0  0  0
 19 20  1  0  0  0
 20 21  2  0  0  0
 20 23  1  0  0  0
 23 24  1  0  0  0
 24 25  1  0  0  0
 25 26  2  0  0  0
 25 29  1  0  0  0
 26 27  1  0  0  0
 27 28  2  0  0  0
 28 24  1  0  0  0
  7 10  1  0  0  0
 19 22  1  0  0  0
 29 30  1  0  0  0
 29 31  1  0  0  0
M  END
>  <minimizedAffinity>
-6.23911

>  <minimizedRMSD>
2.61199

$$$$
MolPort-006-110-405 33913793 LN04641328 MCULE-6935263469 MCULE-9692462083 PubChem-5460038 ZINC000033913793 ZINC33913793


 29 29  0  0  0  0  0  0  0  0999 V2000
    5.3061   20.3548   68.3393 C   0  0  0  0  0  0  0  0  0  0  0  0
    6.7587   20.8118   68.4157 C   0  0  0  0  0  0  0  0  0  0  0  0
    6.8378   22.1900   68.6335 O   0  0  0  0  0  0  0  0  0  0  0  0
    6.4387   22.4053   69.4909 H   0  0  0  0  0  0  0  0  0  0  0  0
    7.5686   20.0266   69.4506 C   0  0  0  0  0  0  0  0  0  0  0  0
    8.9342   20.2275   69.2355 O   0  0  0  0  0  0  0  0  0  0  0  0
    9.1461   21.1661   69.3580 H   0  0  0  0  0  0  0  0  0  0  0  0
    7.1845   20.3600   70.9016 C   0  0  0  0  0  0  0  0  0  0  0  0
    7.9344   21.4315   71.3952 O   0  0  0  0  0  0  0  0  0  0  0  0
    8.8713   21.1824   71.4281 H   0  0  0  0  0  0  0  0  0  0  0  0
    7.2735   19.1578   71.8448 C   0  0  0  0  0  0  0  0  0  0  0  0
    6.8508   17.9989   71.1911 O   0  0  0  0  0  0  0  0  0  0  0  0
    7.4388   17.8180   70.4411 H   0  0  0  0  0  0  0  0  0  0  0  0
    8.6515   18.9639   72.3976 C   0  0  0  0  0  0  0  0  0  0  0  0
    8.8517   18.1471   73.2815 O   0  0  0  0  0  0  0  0  0  0  0  0
    4.4942   21.1324   69.1698 O   0  0  0  0  0  0  0  0  0  0  0  0
    0.7694   19.8161   68.0711 C   0  0  0  0  0  0  0  0  0  0  0  0
    1.0777   20.3021   69.4789 C   0  0  0  0  0  0  0  0  0  0  0  0
    1.1234   19.1318   70.4781 C   0  0  0  0  0  0  0  0  0  0  0  0
    2.2712   19.3189   71.4682 C   0  0  0  0  0  0  0  0  0  0  0  0
    3.6005   19.5495   70.7330 C   0  0  0  0  0  0  0  0  0  0  0  0
    3.3821   20.3321   69.4314 C   0  0  0  0  0  0  0  0  0  0  0  0
    2.2251   21.1360   69.5072 O   0  0  0  0  0  0  0  0  0  0  0  0
    4.2168   18.3330   70.4303 O   0  0  0  0  0  0  0  0  0  0  0  0
    2.3587   18.2273   72.3357 O   0  0  0  0  0  0  0  0  0  0  0  0
   -0.0904   19.0570   71.1620 O   0  0  0  0  0  0  0  0  0  0  0  0
    3.6449   17.8190   69.8390 H   0  0  0  0  0  0  0  0  0  0  0  0
    2.5437   17.4231   71.8259 H   0  0  0  0  0  0  0  0  0  0  0  0
   -0.2383   19.8825   71.6494 H   0  0  0  0  0  0  0  0  0  0  0  0
 18 17  1  0  0  0
 18 19  1  0  0  0
 19 20  1  0  0  0
 19 26  1  0  0  0
 20 21  1  0  0  0
 20 25  1  0  0  0
 21 22  1  0  0  0
 21 24  1  0  0  0
 22 23  1  0  0  0
 22 16  1  0  0  0
 23 18  1  0  0  0
 16  1  1  0  0  0
  2  1  1  0  0  0
  2  5  1  0  0  0
  2  3  1  0  0  0
  5  8  1  0  0  0
  5  6  1  0  0  0
  8 11  1  0  0  0
  8  9  1  0  0  0
 11 14  1  0  0  0
 11 12  1  0  0  0
 14 15  2  0  0  0
 12 13  1  0  0  0
  9 10  1  0  0  0
  6  7  1  0  0  0
  3  4  1  0  0  0
 24 27  1  0  0  0
 25 28  1  0  0  0
 26 29  1  0  0  0
M  END
>  <minimizedAffinity>
-6.21974

>  <minimizedRMSD>
2.85253

$$$$
MolPort-044-544-730 604406403 MCULE-4653435377 PubChem-127253986 ZINC000604406403


 34 37  0  0  0  0  0  0  0  0999 V2000
    3.4384   20.2158   70.6807 O   0  0  0  0  0  0  0  0  0  0  0  0
    3.1161   19.3986   71.5851 C   0  0  0  0  0  0  0  0  0  0  0  0
    4.0618   19.0021   72.5793 N   0  0  0  0  0  0  0  0  0  0  0  0
    3.7467   18.5000   73.3653 H   0  0  0  0  0  0  0  0  0  0  0  0
    1.7547   18.7930   71.5836 C   0  0  0  0  0  0  0  0  0  0  0  0
    0.7894   19.6735   70.7934 C   0  0  0  0  0  0  0  0  0  0  0  0
    1.0325   19.5189   69.3719 N   0  0  0  0  0  0  0  0  0  0  0  0
    0.4456   20.3642   68.3821 C   0  0  0  0  0  0  0  0  0  0  0  0
    0.8017   20.2138   67.1823 O   0  0  0  0  0  0  0  0  0  0  0  0
   -0.5154   21.4428   68.7199 C   0  0  0  0  0  0  0  0  0  0  0  0
   -0.4839   22.5962   67.9189 C   0  0  0  0  0  0  0  0  0  0  0  0
   -1.3981   23.6327   68.1082 C   0  0  0  0  0  0  0  0  0  0  0  0
   -2.3733   23.5254   69.0967 C   0  0  0  0  0  0  0  0  0  0  0  0
   -2.4290   22.3851   69.8977 C   0  0  0  0  0  0  0  0  0  0  0  0
   -1.5056   21.3445   69.7387 C   0  0  0  0  0  0  0  0  0  0  0  0
   -1.6764   20.1948   70.5790 N   0  0  0  0  0  0  0  0  0  0  0  0
   -0.6411   19.3431   71.0686 C   0  0  0  0  0  0  0  0  0  0  0  0
   -0.9526   18.3204   71.7365 O   0  0  0  0  0  0  0  0  0  0  0  0
    1.6313   18.7960   69.0750 H   0  0  0  0  0  0  0  0  0  0  0  0
   -2.5979   19.9714   70.8441 H   0  0  0  0  0  0  0  0  0  0  0  0
    5.4774   19.3188   72.4645 C   0  0  0  0  0  0  0  0  0  0  0  0
    6.2576   18.6383   73.5827 C   0  0  0  0  0  0  0  0  0  0  0  0
    7.4304   17.8279   73.0433 C   0  0  0  0  0  0  0  0  0  0  0  0
    8.3168   18.6718   72.1918 C   0  0  0  0  0  0  0  0  0  0  0  0
    7.9650   19.1420   70.9803 N   0  0  0  0  0  0  0  0  0  0  0  0
    9.0753   19.8277   70.6320 C   0  0  0  0  0  0  0  0  0  0  0  0
   10.0359   19.7697   71.5774 N   0  0  0  0  0  0  0  0  0  0  0  0
    9.5269   19.0446   72.5261 O   0  0  0  0  0  0  0  0  0  0  0  0
    9.2181   20.5623   69.3650 C   0  0  0  0  0  0  0  0  0  0  0  0
   10.4872   20.9484   68.9101 C   0  0  0  0  0  0  0  0  0  0  0  0
   10.6226   21.6509   67.7089 C   0  0  0  0  0  0  0  0  0  0  0  0
    9.4899   21.9716   66.9552 C   0  0  0  0  0  0  0  0  0  0  0  0
    8.2220   21.5875   67.4013 C   0  0  0  0  0  0  0  0  0  0  0  0
    8.0865   20.8834   68.6021 C   0  0  0  0  0  0  0  0  0  0  0  0
  1  2  2  0  0  0
  2  5  1  0  0  0
  6  5  1  0  0  0
  6  7  1  0  0  0
  7  8  1  0  0  0
  8  9  2  0  0  0
  8 10  1  0  0  0
 10 11  2  0  0  0
 11 12  1  0  0  0
 12 13  2  0  0  0
 13 14  1  0  0  0
 14 15  2  0  0  0
 15 16  1  0  0  0
 16 17  1  0  0  0
 17 18  2  0  0  0
  2  3  1  0  0  0
  3 21  1  0  0  0
 21 22  1  0  0  0
 22 23  1  0  0  0
 23 24  1  0  0  0
 24 25  2  0  0  0
 25 26  1  0  0  0
 26 29  1  0  0  0
 29 30  2  0  0  0
 30 31  1  0  0  0
 31 32  2  0  0  0
 32 33  1  0  0  0
 33 34  2  0  0  0
 26 27  2  0  0  0
 27 28  1  0  0  0
 17  6  1  0  0  0
 28 24  1  0  0  0
 15 10  1  0  0  0
 34 29  1  0  0  0
  7 19  1  0  0  0
 16 20  1  0  0  0
  3  4  1  0  0  0
M  END
>  <minimizedAffinity>
-6.21034

>  <minimizedRMSD>
3.81778

$$$$
MolPort-002-329-633 71418197 CSSS00132363402 LN01059038 MCULE-2814531923 PubChem-24207196 ZINC000071418197 ZINC71418197


 42 44  0  0  0  0  0  0  0  0999 V2000
    1.0063   19.9207   70.9162 C   0  0  0  0  0  0  0  0  0  0  0  0
    1.7028   20.8197   70.0911 O   0  0  0  0  0  0  0  0  0  0  0  0
    2.9683   20.2435   69.8940 C   0  0  0  0  0  0  0  0  0  0  0  0
    2.8800   18.9983   68.9926 C   0  0  0  0  0  0  0  0  0  0  0  0
    3.7113   17.9991   69.4997 O   0  0  0  0  0  0  0  0  0  0  0  0
    1.4465   18.4637   68.8653 C   0  0  0  0  0  0  0  0  0  0  0  0
    0.8058   19.1068   67.8057 O   0  0  0  0  0  0  0  0  0  0  0  0
    0.6207   18.6476   70.1472 C   0  0  0  0  0  0  0  0  0  0  0  0
    0.7833   17.5391   70.9773 O   0  0  0  0  0  0  0  0  0  0  0  0
    3.4108   17.7481   70.3872 H   0  0  0  0  0  0  0  0  0  0  0  0
    0.7524   20.0577   67.9893 H   0  0  0  0  0  0  0  0  0  0  0  0
    1.7149   17.4634   71.2368 H   0  0  0  0  0  0  0  0  0  0  0  0
   -0.1421   20.5343   71.4205 O   0  0  0  0  0  0  0  0  0  0  0  0
   -1.0534   20.6349   74.7444 C   0  0  0  0  0  0  0  0  0  0  0  0
   -0.5064   21.2095   73.5858 O   0  0  0  0  0  0  0  0  0  0  0  0
   -0.2132   20.1207   72.7550 C   0  0  0  0  0  0  0  0  0  0  0  0
   -1.2875   19.0703   72.9623 C   0  0  0  0  0  0  0  0  0  0  0  0
   -2.3623   19.2837   72.0952 O   0  0  0  0  0  0  0  0  0  0  0  0
   -1.7421   19.3381   74.3672 C   0  0  0  0  0  0  0  0  0  0  0  0
   -1.2988   18.3159   75.2064 O   0  0  0  0  0  0  0  0  0  0  0  0
   -2.7098   20.1799   72.2255 H   0  0  0  0  0  0  0  0  0  0  0  0
   -0.3332   18.2451   75.1475 H   0  0  0  0  0  0  0  0  0  0  0  0
   -2.5934   22.4188   74.3957 O   0  0  0  0  0  0  0  0  0  0  0  0
   -2.0540   21.5854   75.3751 C   0  0  0  0  0  0  0  0  0  0  0  0
   -3.2323   23.0246   74.8028 H   0  0  0  0  0  0  0  0  0  0  0  0
    3.9096   21.2740   69.2918 C   0  0  0  0  0  0  0  0  0  0  0  0
    4.9417   20.6356   68.5993 O   0  0  0  0  0  0  0  0  0  0  0  0
    6.1239   21.1790   69.1206 C   0  0  0  0  0  0  0  0  0  0  0  0
    6.1110   21.1425   70.5377 O   0  0  0  0  0  0  0  0  0  0  0  0
    6.3908   19.8242   70.9409 C   0  0  0  0  0  0  0  0  0  0  0  0
    7.8863   19.5052   70.7468 C   0  0  0  0  0  0  0  0  0  0  0  0
    8.6318   19.7725   71.9009 O   0  0  0  0  0  0  0  0  0  0  0  0
    8.4681   20.2651   69.5360 C   0  0  0  0  0  0  0  0  0  0  0  0
    9.0490   21.4725   69.9359 O   0  0  0  0  0  0  0  0  0  0  0  0
    7.3928   20.5480   68.4822 C   0  0  0  0  0  0  0  0  0  0  0  0
    7.0840   19.3663   67.8020 O   0  0  0  0  0  0  0  0  0  0  0  0
    8.5853   20.7199   72.1036 H   0  0  0  0  0  0  0  0  0  0  0  0
    8.3702   22.0435   70.3284 H   0  0  0  0  0  0  0  0  0  0  0  0
    6.7356   18.7137   68.4294 H   0  0  0  0  0  0  0  0  0  0  0  0
    5.9033   19.5760   72.3606 C   0  0  0  0  0  0  0  0  0  0  0  0
    4.6618   18.9419   72.3294 O   0  0  0  0  0  0  0  0  0  0  0  0
    4.0223   19.5056   71.8666 H   0  0  0  0  0  0  0  0  0  0  0  0
 23 24  1  0  0  0
 14 24  1  0  0  0
 14 15  1  0  0  0
 15 16  1  0  0  0
 16 13  1  0  0  0
 16 17  1  0  0  0
  1 13  1  0  0  0
  1  2  1  0  0  0
  2  3  1  0  0  0
  3 26  1  0  0  0
  3  4  1  0  0  0
 26 27  1  0  0  0
 28 27  1  0  0  0
 28 29  1  0  0  0
 29 30  1  0  0  0
 30 40  1  0  0  0
 30 31  1  0  0  0
 40 41  1  0  0  0
 31 32  1  0  0  0
 31 33  1  0  0  0
 33 34  1  0  0  0
 33 35  1  0  0  0
 35 36  1  0  0  0
 35 28  1  0  0  0
  4  5  1  0  0  0
  4  6  1  0  0  0
  6  7  1  0  0  0
  6  8  1  0  0  0
  8  9  1  0  0  0
  8  1  1  0  0  0
 17 18  1  0  0  0
 17 19  1  0  0  0
 19 20  1  0  0  0
 19 14  1  0  0  0
 23 25  1  0  0  0
 41 42  1  0  0  0
 32 37  1  0  0  0
 34 38  1  0  0  0
 36 39  1  0  0  0
  5 10  1  0  0  0
  7 11  1  0  0  0
  9 12  1  0  0  0
 18 21  1  0  0  0
 20 22  1  0  0  0
M  END
>  <minimizedAffinity>
-6.20020

>  <minimizedRMSD>
4.88897

$$$$
MolPort-001-937-633 MCULE-5160001740 PubChem-118032


 22 22  0  0  0  0  0  0  0  0999 V2000
    2.8697   20.8169   69.4654 C   0  0  0  0  0  0  0  0  0  0  0  0
    4.2274   20.4308   68.8647 C   0  0  0  0  0  0  0  0  0  0  0  0
    4.5860   21.3452   67.8737 O   0  0  0  0  0  0  0  0  0  0  0  0
    5.2099   20.4336   69.8720 O   0  0  0  0  0  0  0  0  0  0  0  0
    4.9462   19.3393   70.7187 C   0  0  0  0  0  0  0  0  0  0  0  0
    3.6592   19.5992   71.5166 C   0  0  0  0  0  0  0  0  0  0  0  0
    3.3904   18.5359   72.3829 O   0  0  0  0  0  0  0  0  0  0  0  0
    2.4854   19.8018   70.5519 C   0  0  0  0  0  0  0  0  0  0  0  0
    2.1221   18.5813   69.9702 O   0  0  0  0  0  0  0  0  0  0  0  0
    4.6544   22.2318   68.2612 H   0  0  0  0  0  0  0  0  0  0  0  0
    3.2660   17.7231   71.8683 H   0  0  0  0  0  0  0  0  0  0  0  0
    2.8733   18.2248   69.4707 H   0  0  0  0  0  0  0  0  0  0  0  0
   -0.2988   21.6589   67.5053 N   0  0  0  0  0  0  0  0  0  0  0  0
    0.6660   21.6660   68.5499 C   0  0  0  0  0  0  0  0  0  0  0  0
    0.4718   22.3728   69.5743 O   0  0  0  0  0  0  0  0  0  0  0  0
    1.8488   20.8746   68.4251 N   0  0  0  0  0  0  0  0  0  0  0  0
   -1.1157   22.2024   67.5861 H   0  0  0  0  0  0  0  0  0  0  0  0
   -0.1499   21.1105   66.7014 H   0  0  0  0  0  0  0  0  0  0  0  0
    1.9801   20.3471   67.6043 H   0  0  0  0  0  0  0  0  0  0  0  0
    6.1208   19.1439   71.6633 C   0  0  0  0  0  0  0  0  0  0  0  0
    6.7123   17.9019   71.4326 O   0  0  0  0  0  0  0  0  0  0  0  0
    6.0606   17.2000   71.5858 H   0  0  0  0  0  0  0  0  0  0  0  0
 13 14  1  0  0  0
 14 15  2  0  0  0
 14 16  1  0  0  0
  1 16  1  0  0  0
  1  2  1  0  0  0
  2  3  1  0  0  0
  2  4  1  0  0  0
  4  5  1  0  0  0
  5 20  1  0  0  0
  5  6  1  0  0  0
 20 21  1  0  0  0
  6  7  1  0  0  0
  6  8  1  0  0  0
  8  9  1  0  0  0
  8  1  1  0  0  0
 13 17  1  0  0  0
 13 18  1  0  0  0
 16 19  1  0  0  0
  3 10  1  0  0  0
 21 22  1  0  0  0
  7 11  1  0  0  0
  9 12  1  0  0  0
M  END
>  <minimizedAffinity>
-6.19212

>  <minimizedRMSD>
1.98757

$$$$
MolPort-039-195-344 CSSS00160739182 MCULE-9144875593 PubChem-121541998


 36 37  0  0  0  0  0  0  0  0999 V2000
    3.1340   20.2666   70.5857 C   0  0  0  0  0  0  0  0  0  0  0  0
    2.2134   19.2602   71.2348 C   0  0  0  0  0  0  0  0  0  0  0  0
    2.0642   19.2691   72.6284 C   0  0  0  0  0  0  0  0  0  0  0  0
    2.7433   20.1958   73.4111 O   0  0  0  0  0  0  0  0  0  0  0  0
    1.2264   18.3408   73.2404 C   0  0  0  0  0  0  0  0  0  0  0  0
    0.5487   17.4186   72.4440 C   0  0  0  0  0  0  0  0  0  0  0  0
   -0.3497   16.4184   73.0766 C   0  0  0  0  0  0  0  0  0  0  0  0
    0.6996   17.4296   71.1232 O   0  0  0  0  0  0  0  0  0  0  0  0
    1.4894   18.2989   70.4974 C   0  0  0  0  0  0  0  0  0  0  0  0
    1.5745   18.2540   69.2412 O   0  0  0  0  0  0  0  0  0  0  0  0
    3.3093   20.8244   73.0080 H   0  0  0  0  0  0  0  0  0  0  0  0
    7.3155   19.3570   71.1319 C   0  0  0  0  0  0  0  0  0  0  0  0
    6.7177   20.3890   71.9000 C   0  0  0  0  0  0  0  0  0  0  0  0
    5.3560   20.7239   71.6784 C   0  0  0  0  0  0  0  0  0  0  0  0
    4.5905   19.9511   70.7848 C   0  0  0  0  0  0  0  0  0  0  0  0
    5.1793   18.8848   70.0987 C   0  0  0  0  0  0  0  0  0  0  0  0
    6.5292   18.5974   70.2664 C   0  0  0  0  0  0  0  0  0  0  0  0
    9.6651   19.9077   70.5917 C   0  0  0  0  0  0  0  0  0  0  0  0
    8.6825   19.0673   71.1808 O   0  0  0  0  0  0  0  0  0  0  0  0
    7.4356   21.0520   72.9003 O   0  0  0  0  0  0  0  0  0  0  0  0
    7.9420   20.3755   74.0427 C   0  0  0  0  0  0  0  0  0  0  0  0
    4.7140   21.7905   72.3329 O   0  0  0  0  0  0  0  0  0  0  0  0
    5.0962   22.3227   73.5932 C   0  0  0  0  0  0  0  0  0  0  0  0
    2.7848   20.5821   69.1329 C   0  0  0  0  0  0  0  0  0  0  0  0
    1.5406   21.3995   69.0541 C   0  0  0  0  0  0  0  0  0  0  0  0
    1.3657   22.3459   69.8669 O   0  0  0  0  0  0  0  0  0  0  0  0
    0.5573   21.1006   68.0626 N   0  0  0  0  0  0  0  0  0  0  0  0
    0.7216   20.3581   67.4373 H   0  0  0  0  0  0  0  0  0  0  0  0
   -0.6776   21.8570   67.9469 C   0  0  0  0  0  0  0  0  0  0  0  0
   -1.4838   21.6820   69.1838 C   0  0  0  0  0  0  0  0  0  0  0  0
   -2.2422   22.6108   69.5694 O   0  0  0  0  0  0  0  0  0  0  0  0
   -1.4125   20.4512   69.9079 N   0  0  0  0  0  0  0  0  0  0  0  0
   -0.7902   19.7549   69.5961 H   0  0  0  0  0  0  0  0  0  0  0  0
   -2.2230   20.1864   71.0876 C   0  0  0  0  0  0  0  0  0  0  0  0
   -1.4446   20.5717   72.3285 C   0  0  0  0  0  0  0  0  0  0  0  0
   -2.5682   18.7104   71.1566 C   0  0  0  0  0  0  0  0  0  0  0  0
 18 19  1  0  0  0
 19 12  1  0  0  0
 12 13  2  0  0  0
 13 20  1  0  0  0
 20 21  1  0  0  0
 13 14  1  0  0  0
 14 22  1  0  0  0
 22 23  1  0  0  0
 14 15  2  0  0  0
 15 16  1  0  0  0
 16 17  2  0  0  0
 15  1  1  0  0  0
  1 24  1  0  0  0
 24 25  1  0  0  0
 25 26  2  0  0  0
 25 27  1  0  0  0
 27 29  1  0  0  0
 29 30  1  0  0  0
 30 31  2  0  0  0
 30 32  1  0  0  0
 32 34  1  0  0  0
 34 35  1  0  0  0
 34 36  1  0  0  0
  1  2  1  0  0  0
  2  3  2  0  0  0
  3  4  1  0  0  0
  3  5  1  0  0  0
  5  6  2  0  0  0
  6  7  1  0  0  0
  6  8  1  0  0  0
  8  9  1  0  0  0
  9 10  2  0  0  0
 17 12  1  0  0  0
  9  2  1  0  0  0
 27 28  1  0  0  0
 32 33  1  0  0  0
  4 11  1  0  0  0
M  END
>  <minimizedAffinity>
-6.19043

>  <minimizedRMSD>
4.00202

$$$$
Molport-053-210-390 4545855 LN02221114 MCULE-3918386298 ZINC000004545855


 39 38  0  0  0  0  0  0  0  0999 V2000
    0.2916   20.5925   69.2321 C   0  0  0  0  0  0  0  0  0  0  0  0
    0.0838   20.5568   70.6762 N   0  0  0  0  0  0  0  0  0  0  0  0
   -0.6872   19.5428   71.3245 C   0  0  0  0  0  0  0  0  0  0  0  0
   -1.2657   18.6472   70.6537 O   0  0  0  0  0  0  0  0  0  0  0  0
    0.4925   21.2622   71.2280 H   0  0  0  0  0  0  0  0  0  0  0  0
   -0.8394   19.5684   72.8033 C   0  0  0  0  0  0  0  0  0  0  0  0
   -1.2675   20.8888   73.2276 N   0  0  0  0  0  0  0  0  0  0  0  0
   -0.5697   21.5785   72.9486 H   0  0  0  0  0  0  0  0  0  0  0  0
   -1.3725   20.9026   74.2421 H   0  0  0  0  0  0  0  0  0  0  0  0
    1.5746   19.9182   68.8526 C   0  0  0  0  0  0  0  0  0  0  0  0
    1.5965   18.6823   68.6013 O   0  0  0  0  0  0  0  0  0  0  0  0
    2.7699   20.6938   68.7712 N   0  0  0  0  0  0  0  0  0  0  0  0
    2.7306   21.6549   68.9811 H   0  0  0  0  0  0  0  0  0  0  0  0
    4.0434   20.1076   68.3880 C   0  0  0  0  0  0  0  0  0  0  0  0
    4.7858   19.6902   69.6064 C   0  0  0  0  0  0  0  0  0  0  0  0
    5.0995   18.4803   69.7629 O   0  0  0  0  0  0  0  0  0  0  0  0
    5.1676   20.6735   70.5708 N   0  0  0  0  0  0  0  0  0  0  0  0
    4.9220   21.6129   70.4082 H   0  0  0  0  0  0  0  0  0  0  0  0
    5.9052   20.3456   71.7849 C   0  0  0  0  0  0  0  0  0  0  0  0
    4.9911   20.3750   72.9659 C   0  0  0  0  0  0  0  0  0  0  0  0
    5.4667   20.5459   74.1179 O   0  0  0  0  0  0  0  0  0  0  0  0
    3.6206   20.2061   72.8028 O   0  0  0  0  0  0  0  0  0  0  0  0
    3.2629   20.0786   71.9461 H   0  0  0  0  0  0  0  0  0  0  0  0
    7.0371   21.3422   71.9892 C   0  0  0  0  0  0  0  0  0  0  0  0
    8.0164   21.2853   70.8654 C   0  0  0  0  0  0  0  0  0  0  0  0
    7.7057   21.7206   69.7255 O   0  0  0  0  0  0  0  0  0  0  0  0
    9.2876   20.7733   71.0865 O   0  0  0  0  0  0  0  0  0  0  0  0
    9.5211   20.4488   71.9339 H   0  0  0  0  0  0  0  0  0  0  0  0
    0.2136   22.0245   68.6947 C   0  0  0  0  0  0  0  0  0  0  0  0
   -0.9923   22.2756   67.7959 C   0  0  0  0  0  0  0  0  0  0  0  0
   -2.2408   22.4941   68.6338 C   0  0  0  0  0  0  0  0  0  0  0  0
   -3.4009   22.6636   67.7696 N   0  0  0  0  0  0  0  0  0  0  0  0
   -3.2994   23.1984   66.9492 H   0  0  0  0  0  0  0  0  0  0  0  0
   -4.7793   20.9932   68.7297 N   0  0  0  0  0  0  0  0  0  0  0  0
   -4.6801   22.0913   68.0543 C   0  0  0  0  0  0  0  0  0  0  0  0
   -5.8579   22.7447   67.5977 N   0  0  0  0  0  0  0  0  0  0  0  0
   -5.6663   20.6100   68.9187 H   0  0  0  0  0  0  0  0  0  0  0  0
   -6.7420   22.3566   67.7899 H   0  0  0  0  0  0  0  0  0  0  0  0
   -5.7890   23.5850   67.0893 H   0  0  0  0  0  0  0  0  0  0  0  0
 34 35  2  0  0  0
 35 36  1  0  0  0
 35 32  1  0  0  0
 32 31  1  0  0  0
 31 30  1  0  0  0
 30 29  1  0  0  0
  1 29  1  0  0  0
  1  2  1  0  0  0
  2  3  1  0  0  0
  3  4  2  0  0  0
  3  6  1  0  0  0
  6  7  1  0  0  0
  1 10  1  0  0  0
 10 11  2  0  0  0
 10 12  1  0  0  0
 12 14  1  0  0  0
 14 15  1  0  0  0
 15 16  2  0  0  0
 15 17  1  0  0  0
 19 17  1  0  0  0
 19 24  1  0  0  0
 24 25  1  0  0  0
 25 26  2  0  0  0
 25 27  1  0  0  0
 19 20  1  0  0  0
 20 21  2  0  0  0
 20 22  1  0  0  0
 34 37  1  0  0  0
 36 38  1  0  0  0
 36 39  1  0  0  0
 32 33  1  0  0  0
  2  5  1  0  0  0
  7  8  1  0  0  0
  7  9  1  0  0  0
 12 13  1  0  0  0
 17 18  1  0  0  0
 27 28  1  0  0  0
 22 23  1  0  0  0
M  END
>  <minimizedAffinity>
-6.18333

>  <minimizedRMSD>
3.74241

$$$$
MolPort-051-551-548 Molport-006-136-474 5273774 LN02221538 MCULE-5591425216 MCULE-5921675705 PubChem-166603889 PubChem-40520303 ZINC000005273774


 41 42  0  0  0  0  0  0  0  0999 V2000
   -1.7923   20.3778   70.9698 C   0  0  0  0  0  0  0  0  0  0  0  0
   -2.9384   20.7789   70.0990 C   0  0  0  0  0  0  0  0  0  0  0  0
   -4.0035   20.1079   70.1411 O   0  0  0  0  0  0  0  0  0  0  0  0
   -2.8119   21.9143   69.2301 N   0  0  0  0  0  0  0  0  0  0  0  0
   -1.9654   22.4148   69.2778 H   0  0  0  0  0  0  0  0  0  0  0  0
   -3.7915   22.3944   68.3000 C   0  0  0  0  0  0  0  0  0  0  0  0
   -4.9871   21.6842   68.1565 C   0  0  0  0  0  0  0  0  0  0  0  0
   -5.9689   22.1228   67.2643 C   0  0  0  0  0  0  0  0  0  0  0  0
   -5.7685   23.2850   66.5052 C   0  0  0  0  0  0  0  0  0  0  0  0
   -4.5708   23.9990   66.6502 C   0  0  0  0  0  0  0  0  0  0  0  0
   -3.5880   23.5553   67.5392 C   0  0  0  0  0  0  0  0  0  0  0  0
   -6.7770   23.7438   65.5949 N   0  0  0  0  0  0  0  0  0  0  0  0
   -6.7721   23.3708   64.4037 O   0  0  0  0  0  0  0  0  0  0  0  0
   -7.7852   24.5717   66.0338 O   0  0  0  0  0  0  0  0  0  0  0  0
   -0.5627   20.9673   70.4583 N   0  0  0  0  0  0  0  0  0  0  0  0
    0.4397   20.2073   69.7783 C   0  0  0  0  0  0  0  0  0  0  0  0
    0.2949   18.9692   69.5981 O   0  0  0  0  0  0  0  0  0  0  0  0
   -0.4150   21.9322   70.5865 H   0  0  0  0  0  0  0  0  0  0  0  0
    1.6416   20.8973   69.2344 C   0  0  0  0  0  0  0  0  0  0  0  0
    2.7589   19.9670   69.1667 N   0  0  0  0  0  0  0  0  0  0  0  0
    4.0598   20.3644   68.7243 C   0  0  0  0  0  0  0  0  0  0  0  0
    4.2595   21.5288   68.2860 O   0  0  0  0  0  0  0  0  0  0  0  0
    2.6141   19.0309   69.4350 H   0  0  0  0  0  0  0  0  0  0  0  0
    5.1941   19.3988   68.7871 C   0  0  0  0  0  0  0  0  0  0  0  0
    6.4572   20.1062   68.9503 N   0  0  0  0  0  0  0  0  0  0  0  0
    7.4543   19.7072   69.8936 C   0  0  0  0  0  0  0  0  0  0  0  0
    7.2866   18.6844   70.6108 O   0  0  0  0  0  0  0  0  0  0  0  0
    6.6317   20.8939   68.3859 H   0  0  0  0  0  0  0  0  0  0  0  0
    8.7047   20.5069   70.0329 C   0  0  0  0  0  0  0  0  0  0  0  0
    9.6041   20.3368   68.8152 C   0  0  0  0  0  0  0  0  0  0  0  0
    9.5268   21.5191   67.9077 C   0  0  0  0  0  0  0  0  0  0  0  0
    8.5613   21.6507   67.1104 O   0  0  0  0  0  0  0  0  0  0  0  0
   10.5463   22.4613   67.9186 O   0  0  0  0  0  0  0  0  0  0  0  0
   11.2661   22.3658   68.5109 H   0  0  0  0  0  0  0  0  0  0  0  0
   -2.0229   20.8098   72.4165 C   0  0  0  0  0  0  0  0  0  0  0  0
   -5.4222   23.4053   72.7445 C   0  0  0  0  0  0  0  0  0  0  0  0
   -4.3198   23.5881   73.5860 C   0  0  0  0  0  0  0  0  0  0  0  0
   -3.2102   22.7438   73.4785 C   0  0  0  0  0  0  0  0  0  0  0  0
   -3.2008   21.7168   72.5279 C   0  0  0  0  0  0  0  0  0  0  0  0
   -4.3061   21.5326   71.6891 C   0  0  0  0  0  0  0  0  0  0  0  0
   -5.4156   22.3774   71.7967 C   0  0  0  0  0  0  0  0  0  0  0  0
 36 37  2  0  0  0
 37 38  1  0  0  0
 38 39  2  0  0  0
 39 40  1  0  0  0
 39 35  1  0  0  0
 40 41  2  0  0  0
 41 36  1  0  0  0
  1 35  1  0  0  0
  1  2  1  0  0  0
  1 15  1  0  0  0
  2  3  2  0  0  0
  2  4  1  0  0  0
  4  6  1  0  0  0
  6  7  2  0  0  0
  7  8  1  0  0  0
  8  9  2  0  0  0
  9 10  1  0  0  0
  9 12  1  0  0  0
 10 11  2  0  0  0
 11  6  1  0  0  0
 12 13  2  0  0  0
 12 14  1  0  0  0
 15 16  1  0  0  0
 16 17  2  0  0  0
 16 19  1  0  0  0
 19 20  1  0  0  0
 20 21  1  0  0  0
 21 22  2  0  0  0
 21 24  1  0  0  0
 24 25  1  0  0  0
 25 26  1  0  0  0
 26 27  2  0  0  0
 26 29  1  0  0  0
 29 30  1  0  0  0
 30 31  1  0  0  0
 31 32  2  0  0  0
 31 33  1  0  0  0
  4  5  1  0  0  0
 15 18  1  0  0  0
 20 23  1  0  0  0
 25 28  1  0  0  0
 33 34  1  0  0  0
M  CHG 1  12   1
M  CHG 1  14  -1
M  END
>  <minimizedAffinity>
-6.16818

>  <minimizedRMSD>
5.11447

$$$$
MolPort-046-418-676 70454718 CSSS00102419784 LN01341566 MCULE-8636506247 MCULE-9037336867 PubChem-11968396 ZINC000070454718


 32 34  0  0  0  0  0  0  0  0999 V2000
    6.0219   20.3758   68.9875 C   0  0  0  0  0  0  0  0  0  0  0  0
    4.8203   20.0492   68.5208 C   0  0  0  0  0  0  0  0  0  0  0  0
    3.8655   19.4598   69.3454 O   0  0  0  0  0  0  0  0  0  0  0  0
    3.9585   19.5357   70.7680 C   0  0  0  0  0  0  0  0  0  0  0  0
    5.4013   19.3938   71.2896 C   0  0  0  0  0  0  0  0  0  0  0  0
    6.4606   20.0787   70.3957 C   0  0  0  0  0  0  0  0  0  0  0  0
    6.8152   21.3883   71.1199 C   0  0  0  0  0  0  0  0  0  0  0  0
    6.2828   21.2136   72.4976 C   0  0  0  0  0  0  0  0  0  0  0  0
    5.5239   20.1314   72.5805 C   0  0  0  0  0  0  0  0  0  0  0  0
    8.1957   21.6026   71.1630 O   0  0  0  0  0  0  0  0  0  0  0  0
    7.5762   19.2377   70.3367 O   0  0  0  0  0  0  0  0  0  0  0  0
    8.6244   20.8585   71.6139 H   0  0  0  0  0  0  0  0  0  0  0  0
    7.8754   19.0338   71.2366 H   0  0  0  0  0  0  0  0  0  0  0  0
    4.8735   19.6951   73.8527 C   0  0  0  0  0  0  0  0  0  0  0  0
    3.6797   20.3921   74.0408 O   0  0  0  0  0  0  0  0  0  0  0  0
    3.8647   21.3430   74.0900 H   0  0  0  0  0  0  0  0  0  0  0  0
    3.0615   18.6475   71.4015 O   0  0  0  0  0  0  0  0  0  0  0  0
    1.7924   19.2516   71.4495 C   0  0  0  0  0  0  0  0  0  0  0  0
    0.8143   18.4961   70.5447 C   0  0  0  0  0  0  0  0  0  0  0  0
   -0.5609   19.1612   70.6201 C   0  0  0  0  0  0  0  0  0  0  0  0
   -0.9710   19.4427   72.0671 C   0  0  0  0  0  0  0  0  0  0  0  0
    0.2025   20.0872   72.8159 C   0  0  0  0  0  0  0  0  0  0  0  0
    1.3177   19.2317   72.7730 O   0  0  0  0  0  0  0  0  0  0  0  0
   -2.0726   20.3011   72.0740 O   0  0  0  0  0  0  0  0  0  0  0  0
   -1.5138   18.3443   70.0102 O   0  0  0  0  0  0  0  0  0  0  0  0
    1.2682   18.5240   69.2256 O   0  0  0  0  0  0  0  0  0  0  0  0
   -1.8375   21.1324   71.6329 H   0  0  0  0  0  0  0  0  0  0  0  0
   -1.5621   17.4973   70.4804 H   0  0  0  0  0  0  0  0  0  0  0  0
    1.3325   19.4441   68.9251 H   0  0  0  0  0  0  0  0  0  0  0  0
   -0.1746   20.3459   74.2649 C   0  0  0  0  0  0  0  0  0  0  0  0
   -1.0148   21.4565   74.3438 O   0  0  0  0  0  0  0  0  0  0  0  0
   -0.5562   22.2346   73.9902 H   0  0  0  0  0  0  0  0  0  0  0  0
  1  2  2  0  0  0
  2  3  1  0  0  0
  3  4  1  0  0  0
  4  5  1  0  0  0
  4 17  1  0  0  0
  5  6  1  0  0  0
  5  9  1  0  0  0
  6  7  1  0  0  0
  6 11  1  0  0  0
  6  1  1  0  0  0
  7  8  1  0  0  0
  7 10  1  0  0  0
  8  9  2  0  0  0
  9 14  1  0  0  0
 14 15  1  0  0  0
 18 17  1  0  0  0
 18 19  1  0  0  0
 19 20  1  0  0  0
 19 26  1  0  0  0
 20 21  1  0  0  0
 20 25  1  0  0  0
 21 22  1  0  0  0
 21 24  1  0  0  0
 22 23  1  0  0  0
 22 30  1  0  0  0
 23 18  1  0  0  0
 30 31  1  0  0  0
 15 16  1  0  0  0
 10 12  1  0  0  0
 11 13  1  0  0  0
 31 32  1  0  0  0
 24 27  1  0  0  0
 25 28  1  0  0  0
 26 29  1  0  0  0
M  END
>  <minimizedAffinity>
-6.16133

>  <minimizedRMSD>
3.72833

$$$$
Molport-053-108-745 MCULE-3398991060 MCULE-8032766652


 48 47  0  0  0  0  0  0  0  0999 V2000
    1.2969   19.2745   71.5095 C   0  0  0  0  0  0  0  0  0  0  0  0
    0.2923   19.8585   71.9977 O   0  0  0  0  0  0  0  0  0  0  0  0
    2.1496   18.4885   72.3506 N   0  0  0  0  0  0  0  0  0  0  0  0
    2.9797   18.0171   71.9177 H   0  0  0  0  0  0  0  0  0  0  0  0
    1.9433   18.4184   73.7948 C   0  0  0  0  0  0  0  0  0  0  0  0
    3.1797   18.8560   74.5193 C   0  0  0  0  0  0  0  0  0  0  0  0
    3.6246   18.1577   75.4702 O   0  0  0  0  0  0  0  0  0  0  0  0
    3.8644   20.0450   74.1064 N   0  0  0  0  0  0  0  0  0  0  0  0
    3.4499   20.5897   73.3158 H   0  0  0  0  0  0  0  0  0  0  0  0
    5.2029   20.3867   74.6077 C   0  0  0  0  0  0  0  0  0  0  0  0
    5.5081   21.8571   74.4392 C   0  0  0  0  0  0  0  0  0  0  0  0
    4.5807   22.6751   74.1817 O   0  0  0  0  0  0  0  0  0  0  0  0
    6.8675   22.3130   74.4982 N   0  0  0  0  0  0  0  0  0  0  0  0
    7.6125   21.6358   74.7770 H   0  0  0  0  0  0  0  0  0  0  0  0
    7.2408   23.6722   74.0900 C   0  0  0  0  0  0  0  0  0  0  0  0
    8.5075   23.6307   73.2762 C   0  0  0  0  0  0  0  0  0  0  0  0
    8.5041   23.0808   71.9581 N   0  0  0  0  0  0  0  0  0  0  0  0
    9.5759   24.1117   73.7480 O   0  0  0  0  0  0  0  0  0  0  0  0
    7.6298   22.6908   71.5412 H   0  0  0  0  0  0  0  0  0  0  0  0
    9.3917   23.0292   71.4121 H   0  0  0  0  0  0  0  0  0  0  0  0
    7.4349   24.5759   75.3145 C   0  0  0  0  0  0  0  0  0  0  0  0
    6.1930   25.0295   75.7739 O   0  0  0  0  0  0  0  0  0  0  0  0
    6.3822   25.7477   76.4348 H   0  0  0  0  0  0  0  0  0  0  0  0
    6.2801   19.5136   73.9331 C   0  0  0  0  0  0  0  0  0  0  0  0
    6.2328   19.5716   72.4329 C   0  0  0  0  0  0  0  0  0  0  0  0
    5.4631   18.6589   71.7177 O   0  0  0  0  0  0  0  0  0  0  0  0
    6.9137   20.4350   71.8155 O   0  0  0  0  0  0  0  0  0  0  0  0
    5.4364   18.6827   70.7056 H   0  0  0  0  0  0  0  0  0  0  0  0
    1.6576   19.4793   70.0582 C   0  0  0  0  0  0  0  0  0  0  0  0
    0.3593   20.8017   68.3267 C   0  0  0  0  0  0  0  0  0  0  0  0
    0.2654   19.7829   67.5869 O   0  0  0  0  0  0  0  0  0  0  0  0
    1.1058   20.7414   69.5501 N   0  0  0  0  0  0  0  0  0  0  0  0
    1.2812   21.6321   70.0671 H   0  0  0  0  0  0  0  0  0  0  0  0
   -0.6458   22.8812   69.1078 N   0  0  0  0  0  0  0  0  0  0  0  0
   -0.3510   22.0654   67.9327 C   0  0  0  0  0  0  0  0  0  0  0  0
   -1.2920   22.3432   69.7305 H   0  0  0  0  0  0  0  0  0  0  0  0
    0.2394   23.0433   69.6416 H   0  0  0  0  0  0  0  0  0  0  0  0
    3.1859   19.3996   69.8439 C   0  0  0  0  0  0  0  0  0  0  0  0
    3.8307   20.7316   69.4100 C   0  0  0  0  0  0  0  0  0  0  0  0
    4.8680   20.5257   68.2970 C   0  0  0  0  0  0  0  0  0  0  0  0
    6.1700   20.1302   68.8423 N   0  0  0  0  0  0  0  0  0  0  0  0
    6.2764   19.1880   69.2838 H   0  0  0  0  0  0  0  0  0  0  0  0
    7.3427   20.9609   68.7749 C   0  0  0  0  0  0  0  0  0  0  0  0
    8.5868   20.4615   69.2659 N   0  0  0  0  0  0  0  0  0  0  0  0
    7.2972   22.1592   68.2832 N   0  0  0  0  0  0  0  0  0  0  0  0
    8.6581   19.4929   69.6476 H   0  0  0  0  0  0  0  0  0  0  0  0
    9.4507   21.0486   69.2160 H   0  0  0  0  0  0  0  0  0  0  0  0
    6.4267   22.5959   67.9120 H   0  0  0  0  0  0  0  0  0  0  0  0
 34 35  1  0  0  0
 35 30  1  0  0  0
 30 31  2  0  0  0
 30 32  1  0  0  0
 32 29  1  0  0  0
 29 38  1  0  0  0
 38 39  1  0  0  0
 39 40  1  0  0  0
 40 41  1  0  0  0
 41 43  1  0  0  0
 43 44  1  0  0  0
 43 45  2  0  0  0
 29  1  1  0  0  0
  1  2  2  0  0  0
  1  3  1  0  0  0
  3  5  1  0  0  0
  5  6  1  0  0  0
  6  7  2  0  0  0
  6  8  1  0  0  0
  8 10  1  0  0  0
 10 24  1  0  0  0
 24 25  1  0  0  0
 25 26  1  0  0  0
 25 27  2  0  0  0
 10 11  1  0  0  0
 11 12  2  0  0  0
 11 13  1  0  0  0
 13 15  1  0  0  0
 15 21  1  0  0  0
 21 22  1  0  0  0
 15 16  1  0  0  0
 16 17  1  0  0  0
 16 18  2  0  0  0
 34 36  1  0  0  0
 34 37  1  0  0  0
 32 33  1  0  0  0
 41 42  1  0  0  0
 44 46  1  0  0  0
 44 47  1  0  0  0
 45 48  1  0  0  0
  3  4  1  0  0  0
  8  9  1  0  0  0
 26 28  1  0  0  0
 13 14  1  0  0  0
 22 23  1  0  0  0
 17 19  1  0  0  0
 17 20  1  0  0  0
M  END
>  <minimizedAffinity>
-6.15917

>  <minimizedRMSD>
3.95870

$$$$
Molport-003-941-584 PubChem-16219466 PubChem-4156339


 33 33  0  0  0  0  0  0  0  0999 V2000
    1.5570   20.3913   69.9653 C   0  0  0  0  0  0  0  0  0  0  0  0
    1.0735   18.9248   69.9785 C   0  0  0  0  0  0  0  0  0  0  0  0
    2.0145   18.0852   69.3758 O   0  0  0  0  0  0  0  0  0  0  0  0
    2.8427   18.1132   69.8800 H   0  0  0  0  0  0  0  0  0  0  0  0
    0.7674   18.4413   71.3989 C   0  0  0  0  0  0  0  0  0  0  0  0
    2.2730   20.1607   74.5297 C   0  0  0  0  0  0  0  0  0  0  0  0
    1.9064   19.0978   73.5587 C   0  0  0  0  0  0  0  0  0  0  0  0
    2.2472   17.9056   73.7806 O   0  0  0  0  0  0  0  0  0  0  0  0
    1.1779   19.4400   72.3788 N   0  0  0  0  0  0  0  0  0  0  0  0
    0.9446   20.3835   72.2217 H   0  0  0  0  0  0  0  0  0  0  0  0
   -0.6912   18.1308   71.5645 C   0  0  0  0  0  0  0  0  0  0  0  0
   -1.5216   18.5983   70.8010 O   0  0  0  0  0  0  0  0  0  0  0  0
    0.9166   21.3453   68.9473 C   0  0  0  0  0  0  0  0  0  0  0  0
    0.1774   22.3221   69.6161 O   0  0  0  0  0  0  0  0  0  0  0  0
   -0.5417   21.9004   70.1120 H   0  0  0  0  0  0  0  0  0  0  0  0
    0.0315   20.6265   67.9402 C   0  0  0  0  0  0  0  0  0  0  0  0
   -0.7972   21.5454   67.2967 O   0  0  0  0  0  0  0  0  0  0  0  0
   -1.3575   21.9897   67.9520 H   0  0  0  0  0  0  0  0  0  0  0  0
    2.9333   20.6063   70.2068 O   0  0  0  0  0  0  0  0  0  0  0  0
    3.6598   19.4702   69.8086 C   0  0  0  0  0  0  0  0  0  0  0  0
    4.6147   19.8258   68.6688 C   0  0  0  0  0  0  0  0  0  0  0  0
    5.6999   20.7989   69.1462 C   0  0  0  0  0  0  0  0  0  0  0  0
    6.2448   20.4341   70.5013 C   0  0  0  0  0  0  0  0  0  0  0  0
    5.6242   19.5647   71.3088 C   0  0  0  0  0  0  0  0  0  0  0  0
    4.4148   18.9771   70.9150 O   0  0  0  0  0  0  0  0  0  0  0  0
    6.7420   20.8212   68.2197 O   0  0  0  0  0  0  0  0  0  0  0  0
    3.9102   20.3779   67.5979 O   0  0  0  0  0  0  0  0  0  0  0  0
    7.1377   19.9378   68.1568 H   0  0  0  0  0  0  0  0  0  0  0  0
    3.4744   21.1956   67.8848 H   0  0  0  0  0  0  0  0  0  0  0  0
    6.2022   19.2078   72.6113 C   0  0  0  0  0  0  0  0  0  0  0  0
    7.4335   19.3568   72.8345 O   0  0  0  0  0  0  0  0  0  0  0  0
    5.3828   18.7034   73.6131 O   0  0  0  0  0  0  0  0  0  0  0  0
    4.4662   18.5895   73.4555 H   0  0  0  0  0  0  0  0  0  0  0  0
  6  7  1  0  0  0
  7  8  2  0  0  0
  7  9  1  0  0  0
  5  9  1  0  0  0
  5 11  1  0  0  0
  5  2  1  0  0  0
 11 12  2  0  0  0
  2  1  1  0  0  0
  2  3  1  0  0  0
  1 13  1  0  0  0
  1 19  1  0  0  0
 13 16  1  0  0  0
 13 14  1  0  0  0
 16 17  1  0  0  0
 20 19  1  0  0  0
 20 21  1  0  0  0
 21 22  1  0  0  0
 21 27  1  0  0  0
 22 23  1  0  0  0
 22 26  1  0  0  0
 23 24  2  0  0  0
 24 25  1  0  0  0
 24 30  1  0  0  0
 25 20  1  0  0  0
 30 31  2  0  0  0
 30 32  1  0  0  0
  9 10  1  0  0  0
 17 18  1  0  0  0
 14 15  1  0  0  0
 32 33  1  0  0  0
 26 28  1  0  0  0
 27 29  1  0  0  0
  3  4  1  0  0  0
M  END
>  <minimizedAffinity>
-6.15910

>  <minimizedRMSD>
3.52418

$$$$
MolPort-001-936-670


 24 25  0  0  0  0  0  0  0  0999 V2000
    1.9279   19.3882   71.4617 C   0  0  0  0  0  0  0  0  0  0  0  0
    5.2574   20.2270   70.6189 C   0  0  0  0  0  0  0  0  0  0  0  0
    3.9446   20.4993   70.4853 N   0  0  0  0  0  0  0  0  0  0  0  0
    3.3982   19.5546   71.2745 C   0  0  0  0  0  0  0  0  0  0  0  0
    4.3178   18.7556   71.8461 N   0  0  0  0  0  0  0  0  0  0  0  0
    5.4974   19.1840   71.4323 N   0  0  0  0  0  0  0  0  0  0  0  0
    6.3772   18.8131   71.6721 H   0  0  0  0  0  0  0  0  0  0  0  0
    6.3016   20.9568   69.9678 N   0  0  0  0  0  0  0  0  0  0  0  0
    7.1379   21.1106   70.4640 H   0  0  0  0  0  0  0  0  0  0  0  0
    5.0551   21.3192   67.9212 O   0  0  0  0  0  0  0  0  0  0  0  0
    6.2044   21.4669   68.6629 N   0  0  0  0  0  0  0  0  0  0  0  0
    7.1823   22.0571   68.1626 O   0  0  0  0  0  0  0  0  0  0  0  0
    1.2891   18.7434   70.2392 C   0  0  0  0  0  0  0  0  0  0  0  0
    0.7006   19.7687   69.3273 C   0  0  0  0  0  0  0  0  0  0  0  0
   -0.5206   20.3064   69.5102 N   0  0  0  0  0  0  0  0  0  0  0  0
   -0.6062   21.1345   68.4506 C   0  0  0  0  0  0  0  0  0  0  0  0
    0.4863   21.1014   67.6684 N   0  0  0  0  0  0  0  0  0  0  0  0
    1.3139   20.2331   68.2225 N   0  0  0  0  0  0  0  0  0  0  0  0
    2.2049   19.9760   67.8921 H   0  0  0  0  0  0  0  0  0  0  0  0
   -1.7349   21.9672   68.1677 N   0  0  0  0  0  0  0  0  0  0  0  0
   -2.3159   21.7184   67.4129 H   0  0  0  0  0  0  0  0  0  0  0  0
   -2.0635   23.1181   68.9026 N   0  0  0  0  0  0  0  0  0  0  0  0
   -1.9285   23.1553   70.2712 O   0  0  0  0  0  0  0  0  0  0  0  0
   -2.4848   24.1269   68.3030 O   0  0  0  0  0  0  0  0  0  0  0  0
 10 11  1  0  0  0
 11 12  2  0  0  0
 11  8  1  0  0  0
  8  2  1  0  0  0
  2  3  2  0  0  0
  3  4  1  0  0  0
  4  1  1  0  0  0
  4  5  2  0  0  0
  1 13  1  0  0  0
 13 14  1  0  0  0
 14 15  2  0  0  0
 15 16  1  0  0  0
 16 20  1  0  0  0
 16 17  2  0  0  0
 20 22  1  0  0  0
 22 23  1  0  0  0
 22 24  2  0  0  0
 17 18  1  0  0  0
 18 14  1  0  0  0
  5  6  1  0  0  0
  6  2  1  0  0  0
  8  9  1  0  0  0
 20 21  1  0  0  0
 18 19  1  0  0  0
  6  7  1  0  0  0
M  CHG 1  10  -1
M  CHG 1  11   1
M  CHG 1  22   1
M  CHG 1  23  -1
M  END
>  <minimizedAffinity>
-6.15789

>  <minimizedRMSD>
1.30842

$$$$
MolPort-047-414-703 MCULE-2793447929 PubChem-154882471


 27 28  0  0  0  0  0  0  0  0999 V2000
   -0.4349   21.2792   69.5234 C   0  0  0  0  0  0  0  0  0  0  0  0
    0.3732   20.3944   70.2262 C   0  0  0  0  0  0  0  0  0  0  0  0
    1.5487   20.3165   69.5710 N   0  0  0  0  0  0  0  0  0  0  0  0
    1.4571   21.1569   68.5206 C   0  0  0  0  0  0  0  0  0  0  0  0
    0.2486   21.7543   68.4614 N   0  0  0  0  0  0  0  0  0  0  0  0
    2.7464   19.5898   69.9871 C   0  0  0  0  0  0  0  0  0  0  0  0
    3.4363   19.0833   68.8701 O   0  0  0  0  0  0  0  0  0  0  0  0
    4.3442   18.1303   69.3662 C   0  0  0  0  0  0  0  0  0  0  0  0
    5.4685   18.8152   70.1526 C   0  0  0  0  0  0  0  0  0  0  0  0
    6.2279   19.6159   69.2981 O   0  0  0  0  0  0  0  0  0  0  0  0
    4.8868   19.6638   71.2913 C   0  0  0  0  0  0  0  0  0  0  0  0
    4.5274   18.8369   72.3567 O   0  0  0  0  0  0  0  0  0  0  0  0
    3.6694   20.4769   70.8377 C   0  0  0  0  0  0  0  0  0  0  0  0
    4.0914   21.5902   70.1070 O   0  0  0  0  0  0  0  0  0  0  0  0
    5.6622   20.3015   68.9097 H   0  0  0  0  0  0  0  0  0  0  0  0
    3.8421   18.2149   72.0662 H   0  0  0  0  0  0  0  0  0  0  0  0
    4.5867   21.2959   69.3266 H   0  0  0  0  0  0  0  0  0  0  0  0
   -4.1405   21.0254   70.6082 C   0  0  0  0  0  0  0  0  0  0  0  0
   -2.7447   20.7034   70.3641 N   0  0  0  0  0  0  0  0  0  0  0  0
   -1.8405   21.6420   69.7794 C   0  0  0  0  0  0  0  0  0  0  0  0
   -2.2563   22.7790   69.4271 O   0  0  0  0  0  0  0  0  0  0  0  0
   -2.4117   19.8100   70.6095 H   0  0  0  0  0  0  0  0  0  0  0  0
    0.0886   19.7251   71.5133 C   0  0  0  0  0  0  0  0  0  0  0  0
   -0.1419   20.4093   72.5462 O   0  0  0  0  0  0  0  0  0  0  0  0
    0.1142   18.2988   71.5955 N   0  0  0  0  0  0  0  0  0  0  0  0
   -0.1297   17.5930   72.8419 C   0  0  0  0  0  0  0  0  0  0  0  0
    0.3031   17.7778   70.7818 H   0  0  0  0  0  0  0  0  0  0  0  0
 18 19  1  0  0  0
 19 20  1  0  0  0
 20 21  2  0  0  0
 20  1  1  0  0  0
  1  2  2  0  0  0
  2  3  1  0  0  0
  3  4  1  0  0  0
  4  5  2  0  0  0
  3  6  1  0  0  0
  6  7  1  0  0  0
  7  8  1  0  0  0
  8  9  1  0  0  0
  9 10  1  0  0  0
  9 11  1  0  0  0
 11 12  1  0  0  0
 11 13  1  0  0  0
 13 14  1  0  0  0
  2 23  1  0  0  0
 23 24  2  0  0  0
 23 25  1  0  0  0
 25 26  1  0  0  0
  5  1  1  0  0  0
 13  6  1  0  0  0
 19 22  1  0  0  0
 10 15  1  0  0  0
 12 16  1  0  0  0
 14 17  1  0  0  0
 25 27  1  0  0  0
M  END
>  <minimizedAffinity>
-6.14564

>  <minimizedRMSD>
2.95824

$$$$
MolPort-051-541-991 Molport-053-110-324 CSSS02515446893


 22 21  0  0  0  0  0  0  0  0999 V2000
    2.3908   19.9363   68.9036 C   0  0  0  0  0  0  0  0  0  0  0  0
    3.0908   19.9427   67.6929 O   0  0  0  0  0  0  0  0  0  0  0  0
    2.9635   19.0937   67.2414 H   0  0  0  0  0  0  0  0  0  0  0  0
    0.8934   19.7590   68.6422 C   0  0  0  0  0  0  0  0  0  0  0  0
    0.6527   19.5115   67.2865 O   0  0  0  0  0  0  0  0  0  0  0  0
    0.9494   20.2712   66.7615 H   0  0  0  0  0  0  0  0  0  0  0  0
    0.1126   20.9487   69.1329 C   0  0  0  0  0  0  0  0  0  0  0  0
    0.1477   21.2376   70.3181 O   0  0  0  0  0  0  0  0  0  0  0  0
    0.0499   22.3067   67.1925 O   0  0  0  0  0  0  0  0  0  0  0  0
   -0.7353   21.7707   68.2134 C   0  0  0  0  0  0  0  0  0  0  0  0
   -0.5066   22.8376   66.6014 H   0  0  0  0  0  0  0  0  0  0  0  0
    2.9257   18.8391   69.8273 C   0  0  0  0  0  0  0  0  0  0  0  0
    2.0669   18.6764   70.9157 O   0  0  0  0  0  0  0  0  0  0  0  0
    2.0224   19.5044   71.4190 H   0  0  0  0  0  0  0  0  0  0  0  0
    4.3088   19.1936   70.3508 C   0  0  0  0  0  0  0  0  0  0  0  0
    5.2635   19.0211   69.3456 O   0  0  0  0  0  0  0  0  0  0  0  0
    6.2011   20.4340   69.3647 P   0  0  0  0  0  0  0  0  0  0  0  0
    6.0521   21.1349   70.6965 O   0  0  0  0  0  0  0  0  0  0  0  0
    5.7126   21.4726   68.1207 O   0  0  0  0  0  0  0  0  0  0  0  0
    7.3596   22.6005   67.7229 Na  0  0  0  0  0  0  0  0  0  0  0  0
    7.8243   20.0216   69.1340 O   0  0  0  0  0  0  0  0  0  0  0  0
    8.2024   18.6252   70.5658 Na  0  0  0  0  0  0  0  0  0  0  0  0
  9 10  1  0  0  0
 10  7  1  0  0  0
  7  8  2  0  0  0
  7  4  1  0  0  0
  4  5  1  0  0  0
  4  1  1  0  0  0
  1  2  1  0  0  0
  1 12  1  0  0  0
 12 13  1  0  0  0
 12 15  1  0  0  0
 15 16  1  0  0  0
 16 17  1  0  0  0
 17 18  2  0  0  0
 17 19  1  0  0  0
 19 20  1  0  0  0
 17 21  1  0  0  0
 21 22  1  0  0  0
  9 11  1  0  0  0
  5  6  1  0  0  0
  2  3  1  0  0  0
 13 14  1  0  0  0
M  END
>  <minimizedAffinity>
-6.12537

>  <minimizedRMSD>
2.31883

$$$$
Molport-053-109-627 MCULE-1744689637 MCULE-3042650448


 39 40  0  0  0  0  0  0  0  0999 V2000
    3.3177   20.3004   69.4550 C   0  0  0  0  0  0  0  0  0  0  0  0
    3.4152   21.4141   68.5990 O   0  0  0  0  0  0  0  0  0  0  0  0
    3.1755   22.2196   69.1291 H   0  0  0  0  0  0  0  0  0  0  0  0
    4.2255   19.3404   71.6974 C   0  0  0  0  0  0  0  0  0  0  0  0
    5.6038   19.0004   72.3159 C   0  0  0  0  0  0  0  0  0  0  0  0
    6.2253   17.9964   71.5539 O   0  0  0  0  0  0  0  0  0  0  0  0
    6.4862   20.2563   72.3547 C   0  0  0  0  0  0  0  0  0  0  0  0
    6.6520   20.8680   70.9320 C   0  0  0  0  0  0  0  0  0  0  0  0
    6.5974   22.2726   71.0249 O   0  0  0  0  0  0  0  0  0  0  0  0
    5.6516   20.4025   70.0274 O   0  0  0  0  0  0  0  0  0  0  0  0
    4.3553   20.4495   70.6030 C   0  0  0  0  0  0  0  0  0  0  0  0
    6.9811   17.6494   72.0963 H   0  0  0  0  0  0  0  0  0  0  0  0
    6.5703   22.6296   70.0980 H   0  0  0  0  0  0  0  0  0  0  0  0
    1.2798   19.4438   74.2538 C   0  0  0  0  0  0  0  0  0  0  0  0
    2.2027   18.9475   73.1894 C   0  0  0  0  0  0  0  0  0  0  0  0
    2.0102   17.8120   72.6764 O   0  0  0  0  0  0  0  0  0  0  0  0
    3.3009   19.7642   72.7590 N   0  0  0  0  0  0  0  0  0  0  0  0
    3.4219   20.6966   73.2162 H   0  0  0  0  0  0  0  0  0  0  0  0
    7.9984   20.4673   70.3819 C   0  0  0  0  0  0  0  0  0  0  0  0
    8.1141   19.3463   69.5645 O   0  0  0  0  0  0  0  0  0  0  0  0
    9.0312   21.1173   70.6987 O   0  0  0  0  0  0  0  0  0  0  0  0
    9.0156   19.0560   69.2047 H   0  0  0  0  0  0  0  0  0  0  0  0
    1.8562   20.1229   69.9549 C   0  0  0  0  0  0  0  0  0  0  0  0
    1.5533   18.7532   70.0335 O   0  0  0  0  0  0  0  0  0  0  0  0
    0.8590   18.6470   70.7356 H   0  0  0  0  0  0  0  0  0  0  0  0
    0.8474   20.7962   69.0014 C   0  0  0  0  0  0  0  0  0  0  0  0
   -0.4808   20.8668   69.6098 N   0  0  0  0  0  0  0  0  0  0  0  0
   -1.2703   22.0685   69.5993 C   0  0  0  0  0  0  0  0  0  0  0  0
   -0.7929   23.1236   69.0983 O   0  0  0  0  0  0  0  0  0  0  0  0
   -0.8387   20.0099   70.0866 H   0  0  0  0  0  0  0  0  0  0  0  0
   -2.6327   22.0976   70.1835 C   0  0  0  0  0  0  0  0  0  0  0  0
   -3.7771   21.9775   69.3742 C   0  0  0  0  0  0  0  0  0  0  0  0
   -5.0543   22.0105   69.9420 C   0  0  0  0  0  0  0  0  0  0  0  0
   -5.2106   22.1699   71.3302 C   0  0  0  0  0  0  0  0  0  0  0  0
   -4.0744   22.3019   72.1351 C   0  0  0  0  0  0  0  0  0  0  0  0
   -2.7968   22.2707   71.5691 C   0  0  0  0  0  0  0  0  0  0  0  0
   -6.5048   22.2070   71.9467 N   0  0  0  0  0  0  0  0  0  0  0  0
   -7.5469   22.1163   71.2961 N   0  0  0  0  0  0  0  0  0  0  0  0
   -8.5885   22.0258   70.6480 N   0  0  0  0  0  0  0  0  0  0  0  0
 14 15  1  0  0  0
 15 16  2  0  0  0
 15 17  1  0  0  0
 17  4  1  0  0  0
  4  5  1  0  0  0
  5  6  1  0  0  0
  5  7  1  0  0  0
  7  8  1  0  0  0
  8  9  1  0  0  0
  8 10  1  0  0  0
 10 11  1  0  0  0
 11  1  1  0  0  0
  1  2  1  0  0  0
  1 23  1  0  0  0
 23 24  1  0  0  0
 23 26  1  0  0  0
 26 27  1  0  0  0
 27 28  1  0  0  0
 28 29  2  0  0  0
 28 31  1  0  0  0
 31 32  2  0  0  0
 32 33  1  0  0  0
 33 34  2  0  0  0
 34 35  1  0  0  0
 35 36  2  0  0  0
 34 37  1  0  0  0
 37 38  2  0  0  0
 38 39  2  0  0  0
  8 19  1  0  0  0
 19 20  1  0  0  0
 19 21  2  0  0  0
 11  4  1  0  0  0
 36 31  1  0  0  0
 17 18  1  0  0  0
  6 12  1  0  0  0
  9 13  1  0  0  0
  2  3  1  0  0  0
 24 25  1  0  0  0
 27 30  1  0  0  0
 20 22  1  0  0  0
M  CHG 1  38   1
M  CHG 1  39  -1
M  END
>  <minimizedAffinity>
-6.09144

>  <minimizedRMSD>
1.91457

$$$$
Molport-053-129-477 PubChem-10871066


 28 30  0  0  0  0  0  0  0  0999 V2000
    0.6412   21.5978   68.3317 C   0  0  0  0  0  0  0  0  0  0  0  0
    0.1231   20.5062   67.6793 N   0  0  0  0  0  0  0  0  0  0  0  0
    0.7057   19.2745   67.7762 C   0  0  0  0  0  0  0  0  0  0  0  0
    0.2162   18.2823   67.1757 O   0  0  0  0  0  0  0  0  0  0  0  0
    1.8462   19.1576   68.5564 C   0  0  0  0  0  0  0  0  0  0  0  0
    2.3417   20.2424   69.1867 C   0  0  0  0  0  0  0  0  0  0  0  0
    1.7683   21.4666   69.1001 N   0  0  0  0  0  0  0  0  0  0  0  0
    3.4284   19.8946   69.8801 N   0  0  0  0  0  0  0  0  0  0  0  0
    3.5603   18.5604   69.6581 C   0  0  0  0  0  0  0  0  0  0  0  0
    2.5926   18.0711   68.8308 N   0  0  0  0  0  0  0  0  0  0  0  0
    2.1501   22.2396   69.5755 H   0  0  0  0  0  0  0  0  0  0  0  0
    4.2315   20.7427   70.7513 C   0  0  0  0  0  0  0  0  0  0  0  0
    4.5193   20.0333   72.0558 C   0  0  0  0  0  0  0  0  0  0  0  0
    5.9621   20.3800   72.3413 C   0  0  0  0  0  0  0  0  0  0  0  0
    6.3590   21.2669   71.1834 C   0  0  0  0  0  0  0  0  0  0  0  0
    5.4507   21.0626   70.1322 O   0  0  0  0  0  0  0  0  0  0  0  0
    6.1115   21.0784   73.5428 O   0  0  0  0  0  0  0  0  0  0  0  0
    3.6542   20.5056   73.0467 O   0  0  0  0  0  0  0  0  0  0  0  0
    5.5846   21.8922   73.5114 H   0  0  0  0  0  0  0  0  0  0  0  0
    3.7464   21.4680   73.1246 H   0  0  0  0  0  0  0  0  0  0  0  0
    7.7657   20.9218   70.7309 C   0  0  0  0  0  0  0  0  0  0  0  0
    8.3348   22.0157   70.0792 O   0  0  0  0  0  0  0  0  0  0  0  0
    7.7985   22.2453   69.3043 H   0  0  0  0  0  0  0  0  0  0  0  0
   -1.7567   24.4921   67.3879 C   0  0  0  0  0  0  0  0  0  0  0  0
   -1.1927   23.1180   67.4262 C   0  0  0  0  0  0  0  0  0  0  0  0
   -1.7607   22.1984   66.7799 O   0  0  0  0  0  0  0  0  0  0  0  0
   -0.0129   22.8648   68.1970 N   0  0  0  0  0  0  0  0  0  0  0  0
    0.3832   23.6281   68.6762 H   0  0  0  0  0  0  0  0  0  0  0  0
 24 25  1  0  0  0
 25 26  2  0  0  0
 25 27  1  0  0  0
 27  1  1  0  0  0
  1  2  2  0  0  0
  2  3  1  0  0  0
  3  4  2  0  0  0
  3  5  1  0  0  0
  5  6  2  0  0  0
  6  7  1  0  0  0
  6  8  1  0  0  0
  7  1  1  0  0  0
  8  9  1  0  0  0
  9 10  2  0  0  0
 10  5  1  0  0  0
 12  8  1  0  0  0
 12 13  1  0  0  0
 13 14  1  0  0  0
 13 18  1  0  0  0
 14 15  1  0  0  0
 14 17  1  0  0  0
 15 16  1  0  0  0
 15 21  1  0  0  0
 16 12  1  0  0  0
 21 22  1  0  0  0
 27 28  1  0  0  0
  7 11  1  0  0  0
 22 23  1  0  0  0
 17 19  1  0  0  0
 18 20  1  0  0  0
M  END
>  <minimizedAffinity>
-6.08543

>  <minimizedRMSD>
2.11386

$$$$
MolPort-002-712-504 718638 CSSS00160652770 ChemDiv-8012-4989 MCULE-5135274067 PubChem-1044826 ZINC000000718638 ZINC00718638


 30 32  0  0  0  0  0  0  0  0999 V2000
    1.2400   19.4011   71.5169 C   0  0  0  0  0  0  0  0  0  0  0  0
    1.1900   19.3335   73.0524 C   0  0  0  0  0  0  0  0  0  0  0  0
   -0.0621   18.6179   73.5596 C   0  0  0  0  0  0  0  0  0  0  0  0
   -0.1205   17.2052   72.9942 C   0  0  0  0  0  0  0  0  0  0  0  0
   -0.1458   17.2583   71.4726 C   0  0  0  0  0  0  0  0  0  0  0  0
    1.1007   17.9729   70.9490 C   0  0  0  0  0  0  0  0  0  0  0  0
    0.0854   20.6536   69.6055 N   0  0  0  0  0  0  0  0  0  0  0  0
    0.1611   20.3335   71.0041 C   0  0  0  0  0  0  0  0  0  0  0  0
   -0.6328   20.8683   71.8256 O   0  0  0  0  0  0  0  0  0  0  0  0
    0.7581   20.2347   69.0213 H   0  0  0  0  0  0  0  0  0  0  0  0
   -3.6345   24.1179   66.9728 C   0  0  0  0  0  0  0  0  0  0  0  0
   -2.6764   23.2173   67.6650 C   0  0  0  0  0  0  0  0  0  0  0  0
   -1.4259   22.9582   67.0977 C   0  0  0  0  0  0  0  0  0  0  0  0
   -0.5245   22.1108   67.7493 C   0  0  0  0  0  0  0  0  0  0  0  0
   -0.8655   21.5181   68.9701 C   0  0  0  0  0  0  0  0  0  0  0  0
   -2.1236   21.7819   69.5336 C   0  0  0  0  0  0  0  0  0  0  0  0
   -3.0258   22.6288   68.8833 C   0  0  0  0  0  0  0  0  0  0  0  0
    2.5495   19.9329   71.1442 N   0  0  0  0  0  0  0  0  0  0  0  0
    3.1725   19.7720   69.8640 C   0  0  0  0  0  0  0  0  0  0  0  0
    2.6028   19.1281   68.9434 O   0  0  0  0  0  0  0  0  0  0  0  0
    3.0427   20.4423   71.8272 H   0  0  0  0  0  0  0  0  0  0  0  0
    4.5309   20.3361   69.6341 C   0  0  0  0  0  0  0  0  0  0  0  0
    5.4900   19.6993   70.5231 N   0  0  0  0  0  0  0  0  0  0  0  0
    6.0621   18.5276   70.3176 N   0  0  0  0  0  0  0  0  0  0  0  0
    6.8241   18.2413   71.3660 N   0  0  0  0  0  0  0  0  0  0  0  0
    6.7503   19.2139   72.2682 N   0  0  0  0  0  0  0  0  0  0  0  0
    5.9110   20.1115   71.7254 C   0  0  0  0  0  0  0  0  0  0  0  0
    5.5111   21.3234   72.3569 N   0  0  0  0  0  0  0  0  0  0  0  0
    5.8666   21.5563   73.2449 H   0  0  0  0  0  0  0  0  0  0  0  0
    4.8790   21.9284   71.9055 H   0  0  0  0  0  0  0  0  0  0  0  0
 11 12  1  0  0  0
 12 13  2  0  0  0
 13 14  1  0  0  0
 14 15  2  0  0  0
 15  7  1  0  0  0
 15 16  1  0  0  0
  7  8  1  0  0  0
  8  9  2  0  0  0
  8  1  1  0  0  0
  1  2  1  0  0  0
  1 18  1  0  0  0
  2  3  1  0  0  0
  3  4  1  0  0  0
  4  5  1  0  0  0
  5  6  1  0  0  0
  6  1  1  0  0  0
 18 19  1  0  0  0
 19 20  2  0  0  0
 19 22  1  0  0  0
 22 23  1  0  0  0
 23 24  1  0  0  0
 24 25  2  0  0  0
 25 26  1  0  0  0
 26 27  2  0  0  0
 27 28  1  0  0  0
 27 23  1  0  0  0
 16 17  2  0  0  0
 17 12  1  0  0  0
  7 10  1  0  0  0
 18 21  1  0  0  0
 28 29  1  0  0  0
 28 30  1  0  0  0
M  END
>  <minimizedAffinity>
-6.01100

>  <minimizedRMSD>
3.17195

$$$$
MolPort-044-723-575


 31 32  0  0  0  0  0  0  0  0999 V2000
    5.3335   20.6655   68.7250 C   0  0  0  0  0  0  0  0  0  0  0  0
    5.0388   21.6938   67.9077 N   0  0  0  0  0  0  0  0  0  0  0  0
    3.7402   21.8186   67.9377 O   0  0  0  0  0  0  0  0  0  0  0  0
    3.1454   20.9539   68.7110 N   0  0  0  0  0  0  0  0  0  0  0  0
    4.1367   20.2058   69.2224 C   0  0  0  0  0  0  0  0  0  0  0  0
    6.6943   20.1492   69.0089 C   0  0  0  0  0  0  0  0  0  0  0  0
    7.7559   20.7048   68.5022 N   0  0  0  0  0  0  0  0  0  0  0  0
    7.7115   21.8027   67.6734 O   0  0  0  0  0  0  0  0  0  0  0  0
    8.5058   22.1660   67.3340 H   0  0  0  0  0  0  0  0  0  0  0  0
    6.8230   19.0042   69.8672 N   0  0  0  0  0  0  0  0  0  0  0  0
    6.1992   18.2625   69.6942 H   0  0  0  0  0  0  0  0  0  0  0  0
    7.4412   17.8649   71.9310 C   0  0  0  0  0  0  0  0  0  0  0  0
    8.3162   17.6436   72.9984 C   0  0  0  0  0  0  0  0  0  0  0  0
    9.5086   18.3667   73.0888 C   0  0  0  0  0  0  0  0  0  0  0  0
    9.8257   19.3141   72.1071 C   0  0  0  0  0  0  0  0  0  0  0  0
    8.9478   19.5320   71.0414 C   0  0  0  0  0  0  0  0  0  0  0  0
    7.7493   18.8091   70.9458 C   0  0  0  0  0  0  0  0  0  0  0  0
   11.4469   20.3175   72.2028 Br  0  0  0  0  0  0  0  0  0  0  0  0
   10.3492   18.1434   74.1286 F   0  0  0  0  0  0  0  0  0  0  0  0
    3.9509   19.1295   70.1439 N   0  0  0  0  0  0  0  0  0  0  0  0
    4.1116   18.2079   69.8374 H   0  0  0  0  0  0  0  0  0  0  0  0
    3.5321   19.3498   71.5199 C   0  0  0  0  0  0  0  0  0  0  0  0
    2.0803   18.9323   71.7098 C   0  0  0  0  0  0  0  0  0  0  0  0
    1.4881   18.5318   70.4414 N   0  0  0  0  0  0  0  0  0  0  0  0
    1.2289   17.5460   70.4777 H   0  0  0  0  0  0  0  0  0  0  0  0
    0.0762   19.4993   70.1710 S   0  0  0  0  0  0  0  0  0  0  0  0
    0.1234   20.7276   71.0360 O   0  0  0  0  0  0  0  0  0  0  0  0
   -1.1578   18.7044   70.4950 O   0  0  0  0  0  0  0  0  0  0  0  0
    0.0261   19.9755   68.5120 N   0  0  0  0  0  0  0  0  0  0  0  0
    0.8619   20.5154   68.2878 H   0  0  0  0  0  0  0  0  0  0  0  0
   -0.8023   20.5474   68.3473 H   0  0  0  0  0  0  0  0  0  0  0  0
 12 13  2  0  0  0
 13 14  1  0  0  0
 14 15  2  0  0  0
 15 16  1  0  0  0
 16 17  2  0  0  0
 17 10  1  0  0  0
 10  6  1  0  0  0
  6  7  2  0  0  0
  7  8  1  0  0  0
  6  1  1  0  0  0
  1  2  2  0  0  0
  2  3  1  0  0  0
  3  4  1  0  0  0
  4  5  2  0  0  0
  5 20  1  0  0  0
 20 22  1  0  0  0
 22 23  1  0  0  0
 23 24  1  0  0  0
 24 26  1  0  0  0
 26 27  2  0  0  0
 26 28  2  0  0  0
 26 29  1  0  0  0
 15 18  1  0  0  0
 14 19  1  0  0  0
 17 12  1  0  0  0
  5  1  1  0  0  0
 10 11  1  0  0  0
  8  9  1  0  0  0
 20 21  1  0  0  0
 24 25  1  0  0  0
 29 30  1  0  0  0
 29 31  1  0  0  0
M  END
>  <minimizedAffinity>
-6.00174

>  <minimizedRMSD>
2.01738

$$$$
MolPort-044-713-832 CSSS00160202443 MCULE-5865348856


 28 30  0  0  0  0  0  0  0  0999 V2000
    1.5357   19.9224   68.6545 C   0  0  0  0  0  0  0  0  0  0  0  0
    0.3140   20.7865   68.5900 C   0  0  0  0  0  0  0  0  0  0  0  0
   -0.5942   20.8677   69.5993 N   0  0  0  0  0  0  0  0  0  0  0  0
   -1.4813   21.7488   69.1176 C   0  0  0  0  0  0  0  0  0  0  0  0
   -1.1044   22.1672   67.8782 C   0  0  0  0  0  0  0  0  0  0  0  0
   -1.8503   23.0899   67.1494 C   0  0  0  0  0  0  0  0  0  0  0  0
   -3.0266   23.5836   67.7440 C   0  0  0  0  0  0  0  0  0  0  0  0
   -3.4188   23.1494   69.0304 C   0  0  0  0  0  0  0  0  0  0  0  0
   -2.6377   22.2158   69.7371 C   0  0  0  0  0  0  0  0  0  0  0  0
   -4.6640   23.6825   69.6414 C   0  0  0  0  0  0  0  0  0  0  0  0
    0.0397   21.5710   67.5153 N   0  0  0  0  0  0  0  0  0  0  0  0
    0.5518   21.6751   66.6810 H   0  0  0  0  0  0  0  0  0  0  0  0
    2.5657   20.5390   69.4857 N   0  0  0  0  0  0  0  0  0  0  0  0
    3.9286   20.6555   69.0729 C   0  0  0  0  0  0  0  0  0  0  0  0
    4.3062   20.1940   67.9631 O   0  0  0  0  0  0  0  0  0  0  0  0
    2.3099   20.8898   70.3693 H   0  0  0  0  0  0  0  0  0  0  0  0
    4.9209   21.2889   69.9844 C   0  0  0  0  0  0  0  0  0  0  0  0
    5.8940   20.3013   70.4240 N   0  0  0  0  0  0  0  0  0  0  0  0
    5.7222   19.2894   71.2838 C   0  0  0  0  0  0  0  0  0  0  0  0
    6.8415   18.5524   71.3796 N   0  0  0  0  0  0  0  0  0  0  0  0
    7.6972   19.1400   70.5502 N   0  0  0  0  0  0  0  0  0  0  0  0
    7.1280   20.1888   69.9692 N   0  0  0  0  0  0  0  0  0  0  0  0
    4.5146   19.0128   71.9857 N   0  0  0  0  0  0  0  0  0  0  0  0
    3.7314   19.5974   71.8670 H   0  0  0  0  0  0  0  0  0  0  0  0
    4.4629   18.2371   72.5897 H   0  0  0  0  0  0  0  0  0  0  0  0
    2.3591   17.5707   68.8597 C   0  0  0  0  0  0  0  0  0  0  0  0
    1.2004   18.5084   69.1373 C   0  0  0  0  0  0  0  0  0  0  0  0
    0.8464   18.4594   70.6163 C   0  0  0  0  0  0  0  0  0  0  0  0
 26 27  1  0  0  0
 27 28  1  0  0  0
 27  1  1  0  0  0
  1  2  1  0  0  0
  2  3  2  0  0  0
  3  4  1  0  0  0
  4  5  2  0  0  0
  5  6  1  0  0  0
  6  7  2  0  0  0
  7  8  1  0  0  0
  8  9  2  0  0  0
  8 10  1  0  0  0
  5 11  1  0  0  0
  1 13  1  0  0  0
 13 14  1  0  0  0
 14 15  2  0  0  0
 14 17  1  0  0  0
 17 18  1  0  0  0
 18 19  1  0  0  0
 19 20  2  0  0  0
 20 21  1  0  0  0
 21 22  2  0  0  0
 19 23  1  0  0  0
 11  2  1  0  0  0
  9  4  1  0  0  0
 22 18  1  0  0  0
 11 12  1  0  0  0
 13 16  1  0  0  0
 23 24  1  0  0  0
 23 25  1  0  0  0
M  END
>  <minimizedAffinity>
-5.99965

>  <minimizedRMSD>
1.47022

$$$$
MolPort-016-580-775 MolPort-051-508-507 LN01742454 PubChem-16218858 PubChem-16218859


 47 49  0  0  0  0  0  0  0  0999 V2000
    0.7509   19.8239   70.4529 C   0  0  0  0  0  0  0  0  0  0  0  0
    0.1195   19.1929   71.6991 C   0  0  0  0  0  0  0  0  0  0  0  0
   -1.0950   19.9061   72.0546 N   0  0  0  0  0  0  0  0  0  0  0  0
    1.0954   19.2543   72.8707 C   0  0  0  0  0  0  0  0  0  0  0  0
    2.3973   18.5384   72.5177 C   0  0  0  0  0  0  0  0  0  0  0  0
    3.3129   18.5937   73.6445 N   0  0  0  0  0  0  0  0  0  0  0  0
    3.0477   19.1505   71.2686 C   0  0  0  0  0  0  0  0  0  0  0  0
    2.0717   19.1310   70.0868 C   0  0  0  0  0  0  0  0  0  0  0  0
    1.8445   17.8153   69.6731 O   0  0  0  0  0  0  0  0  0  0  0  0
   -0.8700   20.8794   72.2602 H   0  0  0  0  0  0  0  0  0  0  0  0
   -1.5151   19.4732   72.8771 H   0  0  0  0  0  0  0  0  0  0  0  0
    3.5326   19.5670   73.8566 H   0  0  0  0  0  0  0  0  0  0  0  0
    4.1710   18.0947   73.4102 H   0  0  0  0  0  0  0  0  0  0  0  0
    1.4464   17.3118   70.4004 H   0  0  0  0  0  0  0  0  0  0  0  0
   -0.1357   19.7768   69.3725 O   0  0  0  0  0  0  0  0  0  0  0  0
   -1.0435   22.7714   67.3112 C   0  0  0  0  0  0  0  0  0  0  0  0
   -0.7238   21.2972   67.5999 C   0  0  0  0  0  0  0  0  0  0  0  0
   -1.7927   20.4879   67.2079 O   0  0  0  0  0  0  0  0  0  0  0  0
   -0.4312   21.1141   69.0950 C   0  0  0  0  0  0  0  0  0  0  0  0
   -1.5327   21.5292   69.8629 O   0  0  0  0  0  0  0  0  0  0  0  0
   -1.5714   22.9326   69.7740 C   0  0  0  0  0  0  0  0  0  0  0  0
   -1.9953   23.3781   68.3678 C   0  0  0  0  0  0  0  0  0  0  0  0
   -3.4212   22.9277   68.0972 C   0  0  0  0  0  0  0  0  0  0  0  0
   -1.9598   24.7724   68.3026 O   0  0  0  0  0  0  0  0  0  0  0  0
   -2.5867   20.7371   67.7063 H   0  0  0  0  0  0  0  0  0  0  0  0
   -2.5598   25.1426   68.9688 H   0  0  0  0  0  0  0  0  0  0  0  0
    0.1168   24.3753   66.0654 C   0  0  0  0  0  0  0  0  0  0  0  0
    0.2009   23.5266   67.2412 N   0  0  0  0  0  0  0  0  0  0  0  0
    0.3114   24.0983   68.0787 H   0  0  0  0  0  0  0  0  0  0  0  0
    3.4636   20.4643   71.5204 O   0  0  0  0  0  0  0  0  0  0  0  0
    4.8602   20.4138   71.5034 C   0  0  0  0  0  0  0  0  0  0  0  0
    5.3526   21.2249   70.4659 O   0  0  0  0  0  0  0  0  0  0  0  0
    6.7061   20.8773   70.2844 C   0  0  0  0  0  0  0  0  0  0  0  0
    7.5287   21.3679   71.4963 C   0  0  0  0  0  0  0  0  0  0  0  0
    8.8632   20.9755   71.3758 O   0  0  0  0  0  0  0  0  0  0  0  0
    6.9529   20.7737   72.7874 C   0  0  0  0  0  0  0  0  0  0  0  0
    7.5357   21.3759   73.9041 O   0  0  0  0  0  0  0  0  0  0  0  0
    5.4260   20.8881   72.8442 C   0  0  0  0  0  0  0  0  0  0  0  0
    5.0226   22.2644   73.1033 N   0  0  0  0  0  0  0  0  0  0  0  0
    8.9142   20.0072   71.3471 H   0  0  0  0  0  0  0  0  0  0  0  0
    7.3255   22.3228   73.9075 H   0  0  0  0  0  0  0  0  0  0  0  0
    5.3712   22.8670   72.3579 H   0  0  0  0  0  0  0  0  0  0  0  0
    5.4095   22.5698   73.9963 H   0  0  0  0  0  0  0  0  0  0  0  0
    7.2147   21.4886   68.9752 C   0  0  0  0  0  0  0  0  0  0  0  0
    8.0263   20.4761   68.1886 C   0  0  0  0  0  0  0  0  0  0  0  0
    6.1414   21.9053   68.1849 O   0  0  0  0  0  0  0  0  0  0  0  0
    5.5875   21.1406   67.9626 H   0  0  0  0  0  0  0  0  0  0  0  0
 27 28  1  0  0  0
 16 28  1  0  0  0
 16 17  1  0  0  0
 17 18  1  0  0  0
 17 19  1  0  0  0
 19 15  1  0  0  0
  1 15  1  0  0  0
  1  2  1  0  0  0
  2  3  1  0  0  0
  2  4  1  0  0  0
  4  5  1  0  0  0
  5  6  1  0  0  0
  5  7  1  0  0  0
  7 30  1  0  0  0
 31 30  1  0  0  0
 31 32  1  0  0  0
 32 33  1  0  0  0
 33 44  1  0  0  0
 44 45  1  0  0  0
 44 46  1  0  0  0
 33 34  1  0  0  0
 34 35  1  0  0  0
 34 36  1  0  0  0
 36 37  1  0  0  0
 36 38  1  0  0  0
 38 39  1  0  0  0
  7  8  1  0  0  0
  8  9  1  0  0  0
 19 20  1  0  0  0
 20 21  1  0  0  0
 21 22  1  0  0  0
 22 23  1  0  0  0
 22 24  1  0  0  0
 22 16  1  0  0  0
  8  1  1  0  0  0
 38 31  1  0  0  0
 28 29  1  0  0  0
 18 25  1  0  0  0
  3 10  1  0  0  0
  3 11  1  0  0  0
  6 12  1  0  0  0
  6 13  1  0  0  0
 46 47  1  0  0  0
 35 40  1  0  0  0
 37 41  1  0  0  0
 39 42  1  0  0  0
 39 43  1  0  0  0
  9 14  1  0  0  0
 24 26  1  0  0  0
M  END
>  <minimizedAffinity>
-5.99664

>  <minimizedRMSD>
3.45756

$$$$
MolPort-002-716-681 720278 CSSS00160751725 ChemDiv-8013-1628 MCULE-5209088122 PubChem-1045971 ZINC000000720278 ZINC00720278


 31 33  0  0  0  0  0  0  0  0999 V2000
   -0.0607   20.1802   70.3245 C   0  0  0  0  0  0  0  0  0  0  0  0
    0.0309   18.6584   70.0671 C   0  0  0  0  0  0  0  0  0  0  0  0
    0.2804   17.8805   71.3564 C   0  0  0  0  0  0  0  0  0  0  0  0
   -0.8767   18.0621   72.3469 C   0  0  0  0  0  0  0  0  0  0  0  0
   -1.6100   19.4002   72.1910 C   0  0  0  0  0  0  0  0  0  0  0  0
   -0.6618   20.4958   71.7072 C   0  0  0  0  0  0  0  0  0  0  0  0
   -2.1246   21.5275   69.6793 N   0  0  0  0  0  0  0  0  0  0  0  0
   -0.9354   20.8280   69.2791 C   0  0  0  0  0  0  0  0  0  0  0  0
   -0.5763   20.8165   68.0698 O   0  0  0  0  0  0  0  0  0  0  0  0
   -2.3193   21.5487   70.6442 H   0  0  0  0  0  0  0  0  0  0  0  0
   -4.9414   23.4630   67.1587 C   0  0  0  0  0  0  0  0  0  0  0  0
   -3.6142   23.9023   67.1811 C   0  0  0  0  0  0  0  0  0  0  0  0
   -2.6774   23.2745   68.0067 C   0  0  0  0  0  0  0  0  0  0  0  0
   -3.0579   22.1982   68.8221 C   0  0  0  0  0  0  0  0  0  0  0  0
   -4.3851   21.7581   68.7981 C   0  0  0  0  0  0  0  0  0  0  0  0
   -5.3232   22.3848   67.9730 C   0  0  0  0  0  0  0  0  0  0  0  0
   -6.8869   23.4207   65.6319 C   0  0  0  0  0  0  0  0  0  0  0  0
   -5.8551   24.1113   66.3233 O   0  0  0  0  0  0  0  0  0  0  0  0
    1.2869   20.7511   70.2882 N   0  0  0  0  0  0  0  0  0  0  0  0
    2.3304   20.3446   69.3943 C   0  0  0  0  0  0  0  0  0  0  0  0
    2.1291   19.4507   68.5297 O   0  0  0  0  0  0  0  0  0  0  0  0
    1.4923   21.4706   70.9281 H   0  0  0  0  0  0  0  0  0  0  0  0
    3.6818   20.9560   69.5193 C   0  0  0  0  0  0  0  0  0  0  0  0
    4.7050   19.9385   69.3364 N   0  0  0  0  0  0  0  0  0  0  0  0
    5.2607   19.6113   68.1847 N   0  0  0  0  0  0  0  0  0  0  0  0
    6.0949   18.6001   68.3915 N   0  0  0  0  0  0  0  0  0  0  0  0
    6.0853   18.2500   69.6732 N   0  0  0  0  0  0  0  0  0  0  0  0
    5.2099   19.0939   70.2444 C   0  0  0  0  0  0  0  0  0  0  0  0
    4.8535   19.0714   71.6227 N   0  0  0  0  0  0  0  0  0  0  0  0
    5.2711   18.4173   72.2285 H   0  0  0  0  0  0  0  0  0  0  0  0
    4.1895   19.7100   71.9699 H   0  0  0  0  0  0  0  0  0  0  0  0
 17 18  1  0  0  0
 18 11  1  0  0  0
 11 12  2  0  0  0
 12 13  1  0  0  0
 13 14  2  0  0  0
 14  7  1  0  0  0
 14 15  1  0  0  0
  7  8  1  0  0  0
  8  9  2  0  0  0
  8  1  1  0  0  0
  1  2  1  0  0  0
  1 19  1  0  0  0
  2  3  1  0  0  0
  3  4  1  0  0  0
  4  5  1  0  0  0
  5  6  1  0  0  0
  6  1  1  0  0  0
 19 20  1  0  0  0
 20 21  2  0  0  0
 20 23  1  0  0  0
 23 24  1  0  0  0
 24 25  1  0  0  0
 25 26  2  0  0  0
 26 27  1  0  0  0
 27 28  2  0  0  0
 28 29  1  0  0  0
 28 24  1  0  0  0
 15 16  2  0  0  0
 16 11  1  0  0  0
  7 10  1  0  0  0
 19 22  1  0  0  0
 29 30  1  0  0  0
 29 31  1  0  0  0
M  END
>  <minimizedAffinity>
-5.99138

>  <minimizedRMSD>
2.56188

$$$$
MolPort-003-941-865 MCULE-7236556045 PubChem-4390805


 31 31  0  0  0  0  0  0  0  0999 V2000
    4.9315   18.7666   69.6569 O   0  0  0  0  0  0  0  0  0  0  0  0
    8.2288   19.6029   70.5925 C   0  0  0  0  0  0  0  0  0  0  0  0
    8.0996   19.6361   72.1308 C   0  0  0  0  0  0  0  0  0  0  0  0
    7.1263   18.5671   72.6397 C   0  0  0  0  0  0  0  0  0  0  0  0
    5.7891   18.6480   71.8966 C   0  0  0  0  0  0  0  0  0  0  0  0
    5.9575   19.2275   70.4862 C   0  0  0  0  0  0  0  0  0  0  0  0
    7.2075   18.8608   69.9455 O   0  0  0  0  0  0  0  0  0  0  0  0
    4.8988   19.4406   72.6206 O   0  0  0  0  0  0  0  0  0  0  0  0
    7.6729   17.2923   72.4720 O   0  0  0  0  0  0  0  0  0  0  0  0
    9.3532   19.4830   72.7247 O   0  0  0  0  0  0  0  0  0  0  0  0
    5.2562   20.3388   72.6997 H   0  0  0  0  0  0  0  0  0  0  0  0
    7.8277   17.1284   71.5285 H   0  0  0  0  0  0  0  0  0  0  0  0
    9.7233   18.6202   72.4808 H   0  0  0  0  0  0  0  0  0  0  0  0
    8.3444   21.0045   70.0059 C   0  0  0  0  0  0  0  0  0  0  0  0
    8.3998   21.9497   71.0304 O   0  0  0  0  0  0  0  0  0  0  0  0
    9.1746   21.7771   71.5880 H   0  0  0  0  0  0  0  0  0  0  0  0
    4.2345   19.9169   69.2662 C   0  0  0  0  0  0  0  0  0  0  0  0
    2.7797   19.5768   68.9126 C   0  0  0  0  0  0  0  0  0  0  0  0
    2.5052   18.2514   69.2641 O   0  0  0  0  0  0  0  0  0  0  0  0
    2.6185   18.1405   70.2210 H   0  0  0  0  0  0  0  0  0  0  0  0
    1.7961   20.5067   69.6359 C   0  0  0  0  0  0  0  0  0  0  0  0
    2.0787   21.8485   69.3644 O   0  0  0  0  0  0  0  0  0  0  0  0
    1.9680   22.0166   68.4155 H   0  0  0  0  0  0  0  0  0  0  0  0
    0.3380   20.1848   69.2865 C   0  0  0  0  0  0  0  0  0  0  0  0
   -0.5308   20.9775   70.0389 O   0  0  0  0  0  0  0  0  0  0  0  0
   -0.3960   21.9107   69.8113 H   0  0  0  0  0  0  0  0  0  0  0  0
    0.0238   20.3093   67.7959 C   0  0  0  0  0  0  0  0  0  0  0  0
   -0.0386   21.6491   67.4075 O   0  0  0  0  0  0  0  0  0  0  0  0
   -0.7426   22.0967   67.9023 H   0  0  0  0  0  0  0  0  0  0  0  0
    4.9389   20.5509   68.1033 C   0  0  0  0  0  0  0  0  0  0  0  0
    4.7839   21.7349   67.8483 O   0  0  0  0  0  0  0  0  0  0  0  0
 14 15  1  0  0  0
  2 14  1  0  0  0
  2  3  1  0  0  0
  3  4  1  0  0  0
  3 10  1  0  0  0
  4  5  1  0  0  0
  4  9  1  0  0  0
  5  6  1  0  0  0
  5  8  1  0  0  0
  6  7  1  0  0  0
  6  1  1  0  0  0
  7  2  1  0  0  0
 17  1  1  0  0  0
 17 30  1  0  0  0
 17 18  1  0  0  0
 30 31  2  0  0  0
 18 21  1  0  0  0
 18 19  1  0  0  0
 21 24  1  0  0  0
 21 22  1  0  0  0
 24 27  1  0  0  0
 24 25  1  0  0  0
 27 28  1  0  0  0
 28 29  1  0  0  0
 25 26  1  0  0  0
 22 23  1  0  0  0
 19 20  1  0  0  0
  8 11  1  0  0  0
  9 12  1  0  0  0
 10 13  1  0  0  0
 15 16  1  0  0  0
M  END
>  <minimizedAffinity>
-5.98882

>  <minimizedRMSD>
2.10013

$$$$
MolPort-046-853-443 252536729 MCULE-8622413460 ZINC000252536729


 25 26  0  0  0  0  0  0  0  0999 V2000
    5.0921   20.8722   71.6948 C   0  0  0  0  0  0  0  0  0  0  0  0
    4.1185   20.7715   68.8876 C   0  0  0  0  0  0  0  0  0  0  0  0
    5.5777   20.7736   69.1949 C   0  0  0  0  0  0  0  0  0  0  0  0
    6.4648   20.7159   68.1572 N   0  0  0  0  0  0  0  0  0  0  0  0
    7.7915   20.7222   68.4283 C   0  0  0  0  0  0  0  0  0  0  0  0
    8.7804   20.6689   67.5225 N   0  0  0  0  0  0  0  0  0  0  0  0
    9.8821   20.7043   68.3227 C   0  0  0  0  0  0  0  0  0  0  0  0
    9.5646   20.7755   69.6410 N   0  0  0  0  0  0  0  0  0  0  0  0
    8.2481   20.7853   69.6745 N   0  0  0  0  0  0  0  0  0  0  0  0
    7.4363   20.8449   70.7560 C   0  0  0  0  0  0  0  0  0  0  0  0
    7.9685   20.9074   72.0400 O   0  0  0  0  0  0  0  0  0  0  0  0
    6.0456   20.8393   70.5351 C   0  0  0  0  0  0  0  0  0  0  0  0
    8.8974   20.9098   72.1625 H   0  0  0  0  0  0  0  0  0  0  0  0
    4.6822   19.4633   72.1078 C   0  0  0  0  0  0  0  0  0  0  0  0
    3.2527   19.4213   72.5287 C   0  0  0  0  0  0  0  0  0  0  0  0
    2.9505   19.5520   73.7454 O   0  0  0  0  0  0  0  0  0  0  0  0
    2.2366   19.2506   71.5400 N   0  0  0  0  0  0  0  0  0  0  0  0
    2.5051   19.1573   70.5974 H   0  0  0  0  0  0  0  0  0  0  0  0
    0.8185   19.2092   71.8710 C   0  0  0  0  0  0  0  0  0  0  0  0
    0.3860   17.7783   72.1845 C   0  0  0  0  0  0  0  0  0  0  0  0
    0.5755   17.5038   73.5388 O   0  0  0  0  0  0  0  0  0  0  0  0
    1.5146   17.6027   73.7604 H   0  0  0  0  0  0  0  0  0  0  0  0
    0.0022   19.8271   70.7330 C   0  0  0  0  0  0  0  0  0  0  0  0
    0.3799   19.2687   69.3692 C   0  0  0  0  0  0  0  0  0  0  0  0
   -1.4863   19.6576   70.9738 C   0  0  0  0  0  0  0  0  0  0  0  0
  2  3  1  0  0  0
  3  4  2  0  0  0
  4  5  1  0  0  0
  5  6  2  0  0  0
  6  7  1  0  0  0
  7  8  2  0  0  0
  8  9  1  0  0  0
  9 10  1  0  0  0
 10 11  1  0  0  0
 10 12  2  0  0  0
 12  1  1  0  0  0
  1 14  1  0  0  0
 14 15  1  0  0  0
 15 16  2  0  0  0
 15 17  1  0  0  0
 19 17  1  0  0  0
 19 20  1  0  0  0
 20 21  1  0  0  0
 19 23  1  0  0  0
 23 24  1  0  0  0
 23 25  1  0  0  0
 12  3  1  0  0  0
  9  5  1  0  0  0
 11 13  1  0  0  0
 17 18  1  0  0  0
 21 22  1  0  0  0
M  END
>  <minimizedAffinity>
-5.97403

>  <minimizedRMSD>
4.08217

$$$$
MolPort-008-010-387 CSSS00000029256 LN01984617 MCULE-2658842007 PubChem-4184139


 22 22  0  0  0  0  0  0  0  0999 V2000
    2.2320   20.7084   69.5526 C   0  0  0  0  0  0  0  0  0  0  0  0
    1.8384   19.6661   70.6105 C   0  0  0  0  0  0  0  0  0  0  0  0
    2.9305   19.5652   71.6929 C   0  0  0  0  0  0  0  0  0  0  0  0
    4.3308   19.8463   71.1039 C   0  0  0  0  0  0  0  0  0  0  0  0
    4.3736   19.4839   69.7464 O   0  0  0  0  0  0  0  0  0  0  0  0
    3.6803   20.4846   69.0290 C   0  0  0  0  0  0  0  0  0  0  0  0
    3.6930   20.1659   67.6689 O   0  0  0  0  0  0  0  0  0  0  0  0
    2.8701   18.3229   72.3347 O   0  0  0  0  0  0  0  0  0  0  0  0
    1.6340   18.4236   69.9993 O   0  0  0  0  0  0  0  0  0  0  0  0
    3.2346   19.3224   67.5301 H   0  0  0  0  0  0  0  0  0  0  0  0
    3.0320   17.6173   71.6891 H   0  0  0  0  0  0  0  0  0  0  0  0
    2.4544   18.1360   69.5690 H   0  0  0  0  0  0  0  0  0  0  0  0
   -1.9278   22.5582   67.3598 C   0  0  0  0  0  0  0  0  0  0  0  0
   -0.7851   21.6617   67.4058 N   0  0  0  0  0  0  0  0  0  0  0  0
    0.1464   21.6788   68.4869 C   0  0  0  0  0  0  0  0  0  0  0  0
   -0.0016   22.4887   69.4427 O   0  0  0  0  0  0  0  0  0  0  0  0
    1.2502   20.7723   68.4733 N   0  0  0  0  0  0  0  0  0  0  0  0
   -0.6494   21.0231   66.6688 H   0  0  0  0  0  0  0  0  0  0  0  0
    1.3535   20.1657   67.7048 H   0  0  0  0  0  0  0  0  0  0  0  0
    5.4555   19.1763   71.8805 C   0  0  0  0  0  0  0  0  0  0  0  0
    6.6892   19.5871   71.3762 O   0  0  0  0  0  0  0  0  0  0  0  0
    6.7556   19.3376   70.4412 H   0  0  0  0  0  0  0  0  0  0  0  0
 13 14  1  0  0  0
 14 15  1  0  0  0
 15 16  2  0  0  0
 15 17  1  0  0  0
  1 17  1  0  0  0
  1  2  1  0  0  0
  2  3  1  0  0  0
  2  9  1  0  0  0
  3  4  1  0  0  0
  3  8  1  0  0  0
  4  5  1  0  0  0
  4 20  1  0  0  0
  5  6  1  0  0  0
  6  7  1  0  0  0
  6  1  1  0  0  0
 20 21  1  0  0  0
 14 18  1  0  0  0
 17 19  1  0  0  0
  7 10  1  0  0  0
 21 22  1  0  0  0
  8 11  1  0  0  0
  9 12  1  0  0  0
M  END
>  <minimizedAffinity>
-5.95432

>  <minimizedRMSD>
1.94358

$$$$
MolPort-035-783-908


 26 25  0  0  0  0  0  0  0  0999 V2000
    3.8937   20.1574   69.7651 C   0  0  0  0  0  0  0  0  0  0  0  0
    4.5151   19.8346   70.9729 O   0  0  0  0  0  0  0  0  0  0  0  0
    4.6365   18.8737   71.0274 H   0  0  0  0  0  0  0  0  0  0  0  0
    2.4998   19.5235   69.7022 C   0  0  0  0  0  0  0  0  0  0  0  0
    2.5550   18.2911   69.0445 O   0  0  0  0  0  0  0  0  0  0  0  0
    2.8519   18.4252   68.1308 H   0  0  0  0  0  0  0  0  0  0  0  0
    1.4732   20.4558   69.0384 C   0  0  0  0  0  0  0  0  0  0  0  0
    1.8917   21.7834   69.1510 O   0  0  0  0  0  0  0  0  0  0  0  0
    1.9340   22.0307   70.0880 H   0  0  0  0  0  0  0  0  0  0  0  0
    0.0666   20.3293   69.6283 C   0  0  0  0  0  0  0  0  0  0  0  0
   -0.2497   21.4373   70.4197 O   0  0  0  0  0  0  0  0  0  0  0  0
    0.3636   21.4845   71.1698 H   0  0  0  0  0  0  0  0  0  0  0  0
   -0.0911   19.0436   70.4229 C   0  0  0  0  0  0  0  0  0  0  0  0
   -1.4173   18.6148   70.3724 O   0  0  0  0  0  0  0  0  0  0  0  0
   -1.9923   19.2965   70.7538 H   0  0  0  0  0  0  0  0  0  0  0  0
    4.7629   19.7633   68.6101 C   0  0  0  0  0  0  0  0  0  0  0  0
    5.2182   18.5923   68.5203 O   0  0  0  0  0  0  0  0  0  0  0  0
    5.0477   20.6909   67.6174 O   0  0  0  0  0  0  0  0  0  0  0  0
    7.5403   17.8972   65.2410 Ca  0  0  0  0  0  0  0  0  0  0  0  0
    8.0850   20.0296   67.8174 O   0  0  0  0  0  0  0  0  0  0  0  0
    8.3153   20.8665   68.9010 C   0  0  0  0  0  0  0  0  0  0  0  0
    8.7874   22.0192   68.7119 O   0  0  0  0  0  0  0  0  0  0  0  0
    9.2614   20.2061   71.0870 C   0  0  0  0  0  0  0  0  0  0  0  0
    7.9920   20.3958   70.2795 C   0  0  0  0  0  0  0  0  0  0  0  0
    7.1635   21.3198   70.9165 O   0  0  0  0  0  0  0  0  0  0  0  0
    7.6211   22.1725   70.9827 H   0  0  0  0  0  0  0  0  0  0  0  0
 23 24  1  0  0  0
 24 25  1  0  0  0
 24 21  1  0  0  0
 21 22  2  0  0  0
 21 20  1  0  0  0
 20 19  1  0  0  0
 19 18  1  0  0  0
 18 16  1  0  0  0
 16 17  2  0  0  0
  1 16  1  0  0  0
  1  2  1  0  0  0
  1  4  1  0  0  0
  4  5  1  0  0  0
  4  7  1  0  0  0
  7  8  1  0  0  0
  7 10  1  0  0  0
 10 11  1  0  0  0
 10 13  1  0  0  0
 13 14  1  0  0  0
 25 26  1  0  0  0
  2  3  1  0  0  0
  5  6  1  0  0  0
  8  9  1  0  0  0
 11 12  1  0  0  0
 14 15  1  0  0  0
M  END
>  <minimizedAffinity>
-5.95244

>  <minimizedRMSD>
1.88230

$$$$
Molport-053-106-116 13535643 LN02180412 MCULE-5629099553 MCULE-6077271166 PubChem-131726790 PubChem-67053720 PubChem-72362 ZINC000013535643


 36 35  0  0  0  0  0  0  0  0999 V2000
    0.8922   19.4323   70.7736 C   0  0  0  0  0  0  0  0  0  0  0  0
    3.1592   19.8829   69.7401 C   0  0  0  0  0  0  0  0  0  0  0  0
    2.8050   19.3326   68.6606 O   0  0  0  0  0  0  0  0  0  0  0  0
    2.2405   19.9794   70.8310 N   0  0  0  0  0  0  0  0  0  0  0  0
    2.5310   20.4342   71.6543 H   0  0  0  0  0  0  0  0  0  0  0  0
    4.5412   20.4469   69.9012 C   0  0  0  0  0  0  0  0  0  0  0  0
    4.6457   21.1164   71.1853 N   0  0  0  0  0  0  0  0  0  0  0  0
    4.5009   20.4395   71.9345 H   0  0  0  0  0  0  0  0  0  0  0  0
    3.9372   21.8477   71.2461 H   0  0  0  0  0  0  0  0  0  0  0  0
    5.6375   19.3900   69.7916 C   0  0  0  0  0  0  0  0  0  0  0  0
    6.6082   19.7144   68.6630 C   0  0  0  0  0  0  0  0  0  0  0  0
    7.3713   20.9631   68.9526 C   0  0  0  0  0  0  0  0  0  0  0  0
    8.2577   20.9724   69.8465 O   0  0  0  0  0  0  0  0  0  0  0  0
    7.1114   22.1153   68.2238 O   0  0  0  0  0  0  0  0  0  0  0  0
    6.4519   22.1098   67.5581 H   0  0  0  0  0  0  0  0  0  0  0  0
   -0.0503   20.4760   70.2699 C   0  0  0  0  0  0  0  0  0  0  0  0
    0.3937   21.5630   69.8080 O   0  0  0  0  0  0  0  0  0  0  0  0
   -1.4566   20.2248   70.3065 N   0  0  0  0  0  0  0  0  0  0  0  0
   -1.7734   19.3626   70.6609 H   0  0  0  0  0  0  0  0  0  0  0  0
   -2.4399   21.1927   69.8407 C   0  0  0  0  0  0  0  0  0  0  0  0
   -2.2316   22.5107   70.5203 C   0  0  0  0  0  0  0  0  0  0  0  0
   -2.4898   22.6488   71.7453 O   0  0  0  0  0  0  0  0  0  0  0  0
   -1.7431   23.5880   69.7938 O   0  0  0  0  0  0  0  0  0  0  0  0
   -1.5497   23.4894   68.8823 H   0  0  0  0  0  0  0  0  0  0  0  0
   -3.8414   20.6549   70.1004 C   0  0  0  0  0  0  0  0  0  0  0  0
   -4.9057   21.5655   69.5026 C   0  0  0  0  0  0  0  0  0  0  0  0
   -5.6846   22.2575   70.5693 C   0  0  0  0  0  0  0  0  0  0  0  0
   -5.7105   23.5146   70.6111 O   0  0  0  0  0  0  0  0  0  0  0  0
   -6.3917   21.5193   71.5096 O   0  0  0  0  0  0  0  0  0  0  0  0
   -6.3737   20.5830   71.4802 H   0  0  0  0  0  0  0  0  0  0  0  0
    0.4684   18.9439   72.1551 C   0  0  0  0  0  0  0  0  0  0  0  0
    0.0826   17.4712   72.1276 C   0  0  0  0  0  0  0  0  0  0  0  0
   -1.3394   17.2706   72.5290 C   0  0  0  0  0  0  0  0  0  0  0  0
   -2.2476   17.9363   71.9680 O   0  0  0  0  0  0  0  0  0  0  0  0
   -1.6663   16.3412   73.5082 O   0  0  0  0  0  0  0  0  0  0  0  0
   -0.9911   15.8446   73.9269 H   0  0  0  0  0  0  0  0  0  0  0  0
 10 11  1  0  0  0
 11 12  1  0  0  0
 12 13  2  0  0  0
 12 14  1  0  0  0
  6 10  1  0  0  0
  6  2  1  0  0  0
  6  7  1  0  0  0
  2  3  2  0  0  0
  2  4  1  0  0  0
  1  4  1  0  0  0
  1 31  1  0  0  0
  1 16  1  0  0  0
 31 32  1  0  0  0
 32 33  1  0  0  0
 33 34  2  0  0  0
 33 35  1  0  0  0
 16 17  2  0  0  0
 16 18  1  0  0  0
 20 18  1  0  0  0
 20 25  1  0  0  0
 20 21  1  0  0  0
 25 26  1  0  0  0
 26 27  1  0  0  0
 27 28  2  0  0  0
 27 29  1  0  0  0
 21 22  2  0  0  0
 21 23  1  0  0  0
 14 15  1  0  0  0
  4  5  1  0  0  0
 35 36  1  0  0  0
 18 19  1  0  0  0
 29 30  1  0  0  0
 23 24  1  0  0  0
  7  8  1  0  0  0
  7  9  1  0  0  0
M  END
>  <minimizedAffinity>
-5.93292

>  <minimizedRMSD>
3.56349

$$$$
Molport-053-201-852


 31 32  0  0  0  0  0  0  0  0999 V2000
    3.9450   20.2338   70.8506 O   0  0  0  0  0  0  0  0  0  0  0  0
   -0.1233   19.4190   71.2092 C   0  0  0  0  0  0  0  0  0  0  0  0
    0.6414   19.9402   72.2888 O   0  0  0  0  0  0  0  0  0  0  0  0
    2.0309   19.6310   72.2227 C   0  0  0  0  0  0  0  0  0  0  0  0
    2.2650   18.3806   72.8191 O   0  0  0  0  0  0  0  0  0  0  0  0
    2.6379   19.6808   70.7923 C   0  0  0  0  0  0  0  0  0  0  0  0
    1.7633   20.5705   69.9079 C   0  0  0  0  0  0  0  0  0  0  0  0
    2.3281   20.6720   68.6259 O   0  0  0  0  0  0  0  0  0  0  0  0
    0.3352   19.9896   69.8316 C   0  0  0  0  0  0  0  0  0  0  0  0
    0.2592   18.9997   68.8327 O   0  0  0  0  0  0  0  0  0  0  0  0
    3.1656   18.4165   73.2349 H   0  0  0  0  0  0  0  0  0  0  0  0
    1.8849   21.4398   68.1791 H   0  0  0  0  0  0  0  0  0  0  0  0
    0.0840   19.4620   67.9716 H   0  0  0  0  0  0  0  0  0  0  0  0
   -0.6377   17.4610   72.5478 O   0  0  0  0  0  0  0  0  0  0  0  0
   -0.2402   17.8772   71.2689 C   0  0  0  0  0  0  0  0  0  0  0  0
   -1.6019   17.6823   72.6320 H   0  0  0  0  0  0  0  0  0  0  0  0
    4.9432   19.2408   70.6591 C   0  0  0  0  0  0  0  0  0  0  0  0
    5.6578   19.4645   69.4504 O   0  0  0  0  0  0  0  0  0  0  0  0
    6.3556   20.7020   69.4744 C   0  0  0  0  0  0  0  0  0  0  0  0
    7.4451   20.6964   70.5703 C   0  0  0  0  0  0  0  0  0  0  0  0
    8.3881   19.6880   70.3005 O   0  0  0  0  0  0  0  0  0  0  0  0
    6.7769   20.4541   71.9370 C   0  0  0  0  0  0  0  0  0  0  0  0
    7.7464   20.3018   72.9412 O   0  0  0  0  0  0  0  0  0  0  0  0
    5.9020   19.1895   71.8699 C   0  0  0  0  0  0  0  0  0  0  0  0
    5.1942   18.9907   73.0693 O   0  0  0  0  0  0  0  0  0  0  0  0
    9.2268   19.9446   70.7653 H   0  0  0  0  0  0  0  0  0  0  0  0
    8.1268   21.2033   73.1096 H   0  0  0  0  0  0  0  0  0  0  0  0
    4.6434   19.7992   73.2375 H   0  0  0  0  0  0  0  0  0  0  0  0
    6.9534   20.9517   68.0813 C   0  0  0  0  0  0  0  0  0  0  0  0
    8.0019   21.8814   68.1418 O   0  0  0  0  0  0  0  0  0  0  0  0
    7.5840   22.7736   68.2644 H   0  0  0  0  0  0  0  0  0  0  0  0
 14 15  1  0  0  0
 15  2  1  0  0  0
  2  3  1  0  0  0
  3  4  1  0  0  0
  4  5  1  0  0  0
  4  6  1  0  0  0
  6  1  1  0  0  0
  1 17  1  0  0  0
 17 18  1  0  0  0
 18 19  1  0  0  0
 19 29  1  0  0  0
 29 30  1  0  0  0
 19 20  1  0  0  0
 20 21  1  0  0  0
 20 22  1  0  0  0
 22 23  1  0  0  0
 22 24  1  0  0  0
 24 25  1  0  0  0
  6  7  1  0  0  0
  7  8  1  0  0  0
  7  9  1  0  0  0
  9 10  1  0  0  0
  9  2  1  0  0  0
 24 17  1  0  0  0
 14 16  1  0  0  0
  5 11  1  0  0  0
 30 31  1  0  0  0
 21 26  1  0  0  0
 23 27  1  0  0  0
 25 28  1  0  0  0
  8 12  1  0  0  0
 10 13  1  0  0  0
M  END
>  <minimizedAffinity>
-5.92229

>  <minimizedRMSD>
3.54206

$$$$
MolPort-044-725-970 83301189 PubChem-53748487 ZINC000083301189


 31 32  0  0  0  0  0  0  0  0999 V2000
    2.3563   20.3719   68.1251 O   0  0  0  0  0  0  0  0  0  0  0  0
    3.4867   20.1725   68.9443 C   0  0  0  0  0  0  0  0  0  0  0  0
    4.6253   20.7045   68.3074 O   0  0  0  0  0  0  0  0  0  0  0  0
    5.6594   20.6994   69.2625 C   0  0  0  0  0  0  0  0  0  0  0  0
    6.1243   19.2620   69.5559 C   0  0  0  0  0  0  0  0  0  0  0  0
    6.6417   18.6629   68.4045 O   0  0  0  0  0  0  0  0  0  0  0  0
    4.9352   18.4440   70.0646 C   0  0  0  0  0  0  0  0  0  0  0  0
    4.6561   18.7994   71.3872 O   0  0  0  0  0  0  0  0  0  0  0  0
    3.7026   18.6681   69.1760 C   0  0  0  0  0  0  0  0  0  0  0  0
    2.5754   18.0802   69.7522 O   0  0  0  0  0  0  0  0  0  0  0  0
    5.9536   18.6268   67.7217 H   0  0  0  0  0  0  0  0  0  0  0  0
    4.4283   19.7414   71.4277 H   0  0  0  0  0  0  0  0  0  0  0  0
    2.4053   18.4859   70.6167 H   0  0  0  0  0  0  0  0  0  0  0  0
    6.8033   21.6124   68.8357 C   0  0  0  0  0  0  0  0  0  0  0  0
    7.4001   21.1493   67.6615 O   0  0  0  0  0  0  0  0  0  0  0  0
    7.7614   20.2615   67.8108 H   0  0  0  0  0  0  0  0  0  0  0  0
   -0.3357   22.4851   68.5855 C   0  0  0  0  0  0  0  0  0  0  0  0
    1.0385   22.2116   68.4222 O   0  0  0  0  0  0  0  0  0  0  0  0
    1.2591   20.8938   68.8675 C   0  0  0  0  0  0  0  0  0  0  0  0
   -0.0524   20.1285   68.6265 C   0  0  0  0  0  0  0  0  0  0  0  0
   -0.0935   19.6018   67.3341 O   0  0  0  0  0  0  0  0  0  0  0  0
   -1.1059   21.1888   68.7293 C   0  0  0  0  0  0  0  0  0  0  0  0
   -1.6979   21.1395   69.9911 O   0  0  0  0  0  0  0  0  0  0  0  0
    0.0116   20.3189   66.6893 H   0  0  0  0  0  0  0  0  0  0  0  0
   -1.0149   21.2381   70.6728 H   0  0  0  0  0  0  0  0  0  0  0  0
   -1.4809   22.4785   66.4729 O   0  0  0  0  0  0  0  0  0  0  0  0
   -0.8569   23.3031   67.4118 C   0  0  0  0  0  0  0  0  0  0  0  0
   -1.8055   23.0172   65.7344 H   0  0  0  0  0  0  0  0  0  0  0  0
    1.5898   20.9799   70.3750 C   0  0  0  0  0  0  0  0  0  0  0  0
    0.8695   20.0442   71.1227 O   0  0  0  0  0  0  0  0  0  0  0  0
   -0.0803   20.2156   71.0265 H   0  0  0  0  0  0  0  0  0  0  0  0
 26 27  1  0  0  0
 17 27  1  0  0  0
 17 18  1  0  0  0
 18 19  1  0  0  0
 19 29  1  0  0  0
 29 30  1  0  0  0
 19  1  1  0  0  0
  2  1  1  0  0  0
  2  3  1  0  0  0
  3  4  1  0  0  0
  4 14  1  0  0  0
 14 15  1  0  0  0
  4  5  1  0  0  0
  5  6  1  0  0  0
  5  7  1  0  0  0
  7  8  1  0  0  0
  7  9  1  0  0  0
  9 10  1  0  0  0
 19 20  1  0  0  0
 20 21  1  0  0  0
 20 22  1  0  0  0
 22 23  1  0  0  0
 22 17  1  0  0  0
  9  2  1  0  0  0
 26 28  1  0  0  0
 30 31  1  0  0  0
 15 16  1  0  0  0
  6 11  1  0  0  0
  8 12  1  0  0  0
 10 13  1  0  0  0
 21 24  1  0  0  0
 23 25  1  0  0  0
M  END
>  <minimizedAffinity>
-5.92202

>  <minimizedRMSD>
2.31901

$$$$
Molport-003-665-713 CHEMBL3039116 MCULE-1209128840 MCULE-2939725681 PubChem-160514 ZINC000003978767 ZINC03978767


 32 32  0  0  0  0  0  0  0  0999 V2000
    3.4770   21.4158   70.0320 O   0  0  0  0  0  0  0  0  0  0  0  0
    0.8990   18.9943   70.0405 C   0  0  0  0  0  0  0  0  0  0  0  0
   -0.2332   19.6561   69.2387 C   0  0  0  0  0  0  0  0  0  0  0  0
    0.2952   20.6758   68.2217 C   0  0  0  0  0  0  0  0  0  0  0  0
    1.4142   21.5384   68.8044 C   0  0  0  0  0  0  0  0  0  0  0  0
    2.4235   20.6463   69.5306 C   0  0  0  0  0  0  0  0  0  0  0  0
    1.8044   19.9391   70.5836 O   0  0  0  0  0  0  0  0  0  0  0  0
    0.8810   22.4864   69.6812 O   0  0  0  0  0  0  0  0  0  0  0  0
    0.7520   20.0158   67.0799 O   0  0  0  0  0  0  0  0  0  0  0  0
   -1.1224   20.2808   70.1138 O   0  0  0  0  0  0  0  0  0  0  0  0
    0.4237   22.0342   70.4072 H   0  0  0  0  0  0  0  0  0  0  0  0
    1.4863   19.4284   67.3179 H   0  0  0  0  0  0  0  0  0  0  0  0
   -0.6576   20.9761   70.6052 H   0  0  0  0  0  0  0  0  0  0  0  0
    1.5939   17.8785   69.2622 C   0  0  0  0  0  0  0  0  0  0  0  0
    2.9701   18.1028   69.2406 O   0  0  0  0  0  0  0  0  0  0  0  0
    3.3098   18.1164   70.1491 H   0  0  0  0  0  0  0  0  0  0  0  0
    4.6209   20.6269   69.8510 C   0  0  0  0  0  0  0  0  0  0  0  0
    5.1727   20.1566   71.2039 C   0  0  0  0  0  0  0  0  0  0  0  0
    4.4599   19.0384   71.6350 O   0  0  0  0  0  0  0  0  0  0  0  0
    3.5287   19.2781   71.7629 H   0  0  0  0  0  0  0  0  0  0  0  0
    5.1087   21.2388   72.2753 C   0  0  0  0  0  0  0  0  0  0  0  0
    6.3958   21.6068   72.6671 O   0  0  0  0  0  0  0  0  0  0  0  0
    6.8565   20.8343   73.0303 H   0  0  0  0  0  0  0  0  0  0  0  0
    5.6727   21.3812   69.0332 C   0  0  0  0  0  0  0  0  0  0  0  0
    5.2370   21.5360   67.7136 O   0  0  0  0  0  0  0  0  0  0  0  0
    5.1119   20.6630   67.3099 H   0  0  0  0  0  0  0  0  0  0  0  0
    7.0177   20.6518   69.0675 C   0  0  0  0  0  0  0  0  0  0  0  0
    6.9938   19.5074   68.2655 O   0  0  0  0  0  0  0  0  0  0  0  0
    6.8454   19.7631   67.3416 H   0  0  0  0  0  0  0  0  0  0  0  0
    8.1707   21.5649   68.6687 C   0  0  0  0  0  0  0  0  0  0  0  0
    8.3330   21.5870   67.2819 O   0  0  0  0  0  0  0  0  0  0  0  0
    8.5323   20.6920   66.9654 H   0  0  0  0  0  0  0  0  0  0  0  0
 14 15  1  0  0  0
  2 14  1  0  0  0
  2  3  1  0  0  0
  3  4  1  0  0  0
  3 10  1  0  0  0
  4  5  1  0  0  0
  4  9  1  0  0  0
  5  6  1  0  0  0
  5  8  1  0  0  0
  6  7  1  0  0  0
  6  1  1  0  0  0
  7  2  1  0  0  0
 17  1  1  0  0  0
 17 18  1  0  0  0
 17 24  1  0  0  0
 18 21  1  0  0  0
 18 19  1  0  0  0
 21 22  1  0  0  0
 24 27  1  0  0  0
 24 25  1  0  0  0
 27 30  1  0  0  0
 27 28  1  0  0  0
 30 31  1  0  0  0
 22 23  1  0  0  0
 19 20  1  0  0  0
 31 32  1  0  0  0
 28 29  1  0  0  0
 25 26  1  0  0  0
  8 11  1  0  0  0
  9 12  1  0  0  0
 10 13  1  0  0  0
 15 16  1  0  0  0
M  END
>  <minimizedAffinity>
-5.91761

>  <minimizedRMSD>
3.64459

$$$$
MolPort-039-219-103 299764441 CSSS02125518136 MCULE-8222712336 PubChem-118772339 ZINC000299764441


 27 28  0  0  0  0  0  0  0  0999 V2000
    3.1566   20.0072   70.4736 C   0  0  0  0  0  0  0  0  0  0  0  0
    3.9779   21.2805   70.2338 C   0  0  0  0  0  0  0  0  0  0  0  0
    4.9913   21.0595   69.1126 C   0  0  0  0  0  0  0  0  0  0  0  0
    5.8870   19.9608   69.4641 N   0  0  0  0  0  0  0  0  0  0  0  0
    5.1035   18.7256   69.5083 C   0  0  0  0  0  0  0  0  0  0  0  0
    4.0665   18.7855   70.6344 C   0  0  0  0  0  0  0  0  0  0  0  0
    4.7084   18.8265   71.8735 O   0  0  0  0  0  0  0  0  0  0  0  0
    5.2593   19.6231   71.9261 H   0  0  0  0  0  0  0  0  0  0  0  0
    1.0036   20.5146   69.2345 C   0  0  0  0  0  0  0  0  0  0  0  0
    0.6429   21.3391   70.1161 O   0  0  0  0  0  0  0  0  0  0  0  0
    2.2256   19.7866   69.3737 N   0  0  0  0  0  0  0  0  0  0  0  0
    2.4483   19.1066   68.6974 H   0  0  0  0  0  0  0  0  0  0  0  0
    0.1527   20.3057   68.0292 C   0  0  0  0  0  0  0  0  0  0  0  0
   -2.8717   24.2568   67.1857 C   0  0  0  0  0  0  0  0  0  0  0  0
   -1.6152   23.5504   66.9991 N   0  0  0  0  0  0  0  0  0  0  0  0
   -0.5752   24.1849   66.2071 C   0  0  0  0  0  0  0  0  0  0  0  0
   -1.4003   22.2651   67.5958 C   0  0  0  0  0  0  0  0  0  0  0  0
   -2.3086   21.7319   68.2907 O   0  0  0  0  0  0  0  0  0  0  0  0
   -0.1555   21.5842   67.4028 N   0  0  0  0  0  0  0  0  0  0  0  0
    0.5220   21.9984   66.8210 H   0  0  0  0  0  0  0  0  0  0  0  0
    6.8315   19.8250   68.3679 C   0  0  0  0  0  0  0  0  0  0  0  0
    8.2212   20.0422   68.8608 C   0  0  0  0  0  0  0  0  0  0  0  0
    9.2416   20.4850   68.0201 C   0  0  0  0  0  0  0  0  0  0  0  0
   10.6286   20.5846   68.9722 S   0  0  0  0  0  0  0  0  0  0  0  0
    9.8718   20.0666   70.3730 C   0  0  0  0  0  0  0  0  0  0  0  0
   10.5367   19.9044   71.6921 C   0  0  0  0  0  0  0  0  0  0  0  0
    8.5679   19.8088   70.1564 N   0  0  0  0  0  0  0  0  0  0  0  0
 14 15  1  0  0  0
 15 16  1  0  0  0
 15 17  1  0  0  0
 17 18  2  0  0  0
 17 19  1  0  0  0
 19 13  1  0  0  0
 13  9  1  0  0  0
  9 10  2  0  0  0
  9 11  1  0  0  0
  1 11  1  0  0  0
  1  2  1  0  0  0
  2  3  1  0  0  0
  3  4  1  0  0  0
  4 21  1  0  0  0
 21 22  1  0  0  0
 22 23  2  0  0  0
 23 24  1  0  0  0
 24 25  1  0  0  0
 25 26  1  0  0  0
 25 27  2  0  0  0
  4  5  1  0  0  0
  5  6  1  0  0  0
  6  7  1  0  0  0
  6  1  1  0  0  0
 27 22  1  0  0  0
 19 20  1  0  0  0
 11 12  1  0  0  0
  7  8  1  0  0  0
M  END
>  <minimizedAffinity>
-5.91654

>  <minimizedRMSD>
2.11949

$$$$
MolPort-047-116-117 100485049 MCULE-4787988091 MCULE-9696030626 PubChem-3034818


 41 41  0  0  0  0  0  0  0  0999 V2000
   -1.3079   22.8316   67.3642 C   0  0  0  0  0  0  0  0  0  0  0  0
    1.5387   20.8465   69.0987 C   0  0  0  0  0  0  0  0  0  0  0  0
    1.8314   21.4999   70.1374 O   0  0  0  0  0  0  0  0  0  0  0  0
    0.5160   21.3018   68.2072 N   0  0  0  0  0  0  0  0  0  0  0  0
   -0.2763   22.4790   68.3936 C   0  0  0  0  0  0  0  0  0  0  0  0
   -0.1289   23.2048   69.4145 O   0  0  0  0  0  0  0  0  0  0  0  0
    0.3438   20.7624   67.4018 H   0  0  0  0  0  0  0  0  0  0  0  0
    1.3248   18.4049   68.7766 C   0  0  0  0  0  0  0  0  0  0  0  0
    2.2744   19.5875   68.7733 C   0  0  0  0  0  0  0  0  0  0  0  0
    3.3417   19.3635   69.7374 N   0  0  0  0  0  0  0  0  0  0  0  0
    3.3506   18.3853   70.0262 H   0  0  0  0  0  0  0  0  0  0  0  0
    4.5984   19.7006   69.0845 C   0  0  0  0  0  0  0  0  0  0  0  0
    5.4106   18.4587   68.8783 C   0  0  0  0  0  0  0  0  0  0  0  0
    6.2450   18.1112   69.6995 O   0  0  0  0  0  0  0  0  0  0  0  0
    5.3619   20.7197   69.9230 C   0  0  0  0  0  0  0  0  0  0  0  0
    6.6166   21.1419   69.2369 C   0  0  0  0  0  0  0  0  0  0  0  0
    6.5561   21.9034   68.2375 O   0  0  0  0  0  0  0  0  0  0  0  0
    7.8522   20.7132   69.7048 O   0  0  0  0  0  0  0  0  0  0  0  0
    7.9001   20.1459   70.4490 H   0  0  0  0  0  0  0  0  0  0  0  0
   -2.5810   23.1060   68.0229 N   0  0  0  0  0  0  0  0  0  0  0  0
   -3.0724   22.3228   69.1123 C   0  0  0  0  0  0  0  0  0  0  0  0
   -2.4332   21.3102   69.5091 O   0  0  0  0  0  0  0  0  0  0  0  0
   -3.1240   23.8625   67.7032 H   0  0  0  0  0  0  0  0  0  0  0  0
   -4.3708   22.7010   69.7512 C   0  0  0  0  0  0  0  0  0  0  0  0
   -5.3610   23.0909   68.7477 N   0  0  0  0  0  0  0  0  0  0  0  0
   -5.7271   22.3095   67.6052 C   0  0  0  0  0  0  0  0  0  0  0  0
   -5.2200   21.1738   67.4074 O   0  0  0  0  0  0  0  0  0  0  0  0
   -6.7285   22.8419   66.6455 C   0  0  0  0  0  0  0  0  0  0  0  0
   -5.8109   23.9584   68.8673 H   0  0  0  0  0  0  0  0  0  0  0  0
   -4.8919   21.6030   70.6778 C   0  0  0  0  0  0  0  0  0  0  0  0
   -5.9666   22.1108   71.5811 C   0  0  0  0  0  0  0  0  0  0  0  0
   -7.2423   21.5314   71.5735 C   0  0  0  0  0  0  0  0  0  0  0  0
   -8.2319   22.0028   72.4410 C   0  0  0  0  0  0  0  0  0  0  0  0
   -7.9473   23.0500   73.3223 C   0  0  0  0  0  0  0  0  0  0  0  0
   -6.6724   23.6240   73.3382 C   0  0  0  0  0  0  0  0  0  0  0  0
   -5.6825   23.1528   72.4703 C   0  0  0  0  0  0  0  0  0  0  0  0
   -8.9299   23.5183   74.1833 O   0  0  0  0  0  0  0  0  0  0  0  0
   -9.7842   23.1336   74.1727 H   0  0  0  0  0  0  0  0  0  0  0  0
   -0.8713   24.0381   66.5260 C   0  0  0  0  0  0  0  0  0  0  0  0
    0.5846   23.9115   66.1113 C   0  0  0  0  0  0  0  0  0  0  0  0
   -1.7154   24.1505   65.2689 C   0  0  0  0  0  0  0  0  0  0  0  0
  9  8  1  0  0  0
  9  2  1  0  0  0
  9 10  1  0  0  0
  2  3  2  0  0  0
  2  4  1  0  0  0
  4  5  1  0  0  0
  5  6  2  0  0  0
  1  5  1  0  0  0
  1 39  1  0  0  0
  1 20  1  0  0  0
 39 40  1  0  0  0
 39 41  1  0  0  0
 20 21  1  0  0  0
 21 22  2  0  0  0
 24 21  1  0  0  0
 24 30  1  0  0  0
 24 25  1  0  0  0
 30 31  1  0  0  0
 31 32  2  0  0  0
 32 33  1  0  0  0
 33 34  2  0  0  0
 34 35  1  0  0  0
 34 37  1  0  0  0
 35 36  2  0  0  0
 36 31  1  0  0  0
 25 26  1  0  0  0
 26 27  2  0  0  0
 26 28  1  0  0  0
 12 10  1  0  0  0
 12 15  1  0  0  0
 12 13  1  0  0  0
 15 16  1  0  0  0
 16 17  2  0  0  0
 16 18  1  0  0  0
 13 14  2  0  0  0
  4  7  1  0  0  0
 20 23  1  0  0  0
 37 38  1  0  0  0
 25 29  1  0  0  0
 10 11  1  0  0  0
 18 19  1  0  0  0
M  END
>  <minimizedAffinity>
-5.88353

>  <minimizedRMSD>
4.14427

$$$$
MolPort-046-698-448 4201050 CSSS00159301237 MCULE-2794457369 PubChem-138990857


 36 38  0  0  0  0  0  0  0  0999 V2000
    4.2593   20.3935   70.1101 C   0  0  0  0  0  0  0  0  0  0  0  0
    2.7435   20.3056   70.1197 C   0  0  0  0  0  0  0  0  0  0  0  0
    2.3931   18.8398   69.8949 C   0  0  0  0  0  0  0  0  0  0  0  0
    3.6596   18.1547   69.4144 C   0  0  0  0  0  0  0  0  0  0  0  0
    4.7271   19.1206   69.5855 N   0  0  0  0  0  0  0  0  0  0  0  0
    6.0970   18.8052   69.2771 C   0  0  0  0  0  0  0  0  0  0  0  0
    6.4325   17.5959   69.1471 O   0  0  0  0  0  0  0  0  0  0  0  0
    7.1242   19.8553   69.0986 C   0  0  0  0  0  0  0  0  0  0  0  0
    8.1127   20.0487   70.0719 C   0  0  0  0  0  0  0  0  0  0  0  0
    9.0600   21.0058   69.8883 N   0  0  0  0  0  0  0  0  0  0  0  0
    9.0712   21.7797   68.7718 C   0  0  0  0  0  0  0  0  0  0  0  0
    8.0946   21.5863   67.7948 C   0  0  0  0  0  0  0  0  0  0  0  0
    7.1480   20.6290   67.9786 N   0  0  0  0  0  0  0  0  0  0  0  0
    2.2097   21.1028   69.0274 N   0  0  0  0  0  0  0  0  0  0  0  0
    0.8956   21.6580   69.0700 C   0  0  0  0  0  0  0  0  0  0  0  0
    0.1562   21.4681   70.0743 O   0  0  0  0  0  0  0  0  0  0  0  0
    0.4286   22.4354   67.9661 N   0  0  0  0  0  0  0  0  0  0  0  0
    2.7712   21.2645   68.2351 H   0  0  0  0  0  0  0  0  0  0  0  0
    1.0330   22.5830   67.2032 H   0  0  0  0  0  0  0  0  0  0  0  0
   -0.9041   23.0180   67.9237 C   0  0  0  0  0  0  0  0  0  0  0  0
   -1.0091   23.9703   66.7248 C   0  0  0  0  0  0  0  0  0  0  0  0
   -2.4363   24.1154   66.1786 C   0  0  0  0  0  0  0  0  0  0  0  0
   -3.4749   23.9126   67.2779 C   0  0  0  0  0  0  0  0  0  0  0  0
   -3.3803   22.5042   67.8811 C   0  0  0  0  0  0  0  0  0  0  0  0
   -1.9624   21.9174   67.8500 C   0  0  0  0  0  0  0  0  0  0  0  0
    5.0196   19.4967   72.3598 N   0  0  0  0  0  0  0  0  0  0  0  0
    4.7636   20.6115   71.5027 C   0  0  0  0  0  0  0  0  0  0  0  0
    4.9419   21.7880   71.9164 O   0  0  0  0  0  0  0  0  0  0  0  0
    4.8605   18.5865   72.0198 H   0  0  0  0  0  0  0  0  0  0  0  0
    5.5074   19.6665   73.7171 C   0  0  0  0  0  0  0  0  0  0  0  0
    4.6810   18.8127   74.6600 C   0  0  0  0  0  0  0  0  0  0  0  0
    5.4430   18.5526   75.9490 C   0  0  0  0  0  0  0  0  0  0  0  0
    6.7942   17.9918   75.6614 C   0  0  0  0  0  0  0  0  0  0  0  0
    7.8204   18.6099   76.0538 O   0  0  0  0  0  0  0  0  0  0  0  0
    7.8407   16.6534   73.8827 C   0  0  0  0  0  0  0  0  0  0  0  0
    6.9066   16.8024   74.9410 O   0  0  0  0  0  0  0  0  0  0  0  0
 35 36  1  0  0  0
 36 33  1  0  0  0
 33 34  2  0  0  0
 33 32  1  0  0  0
 32 31  1  0  0  0
 31 30  1  0  0  0
 30 26  1  0  0  0
 26 27  1  0  0  0
 27 28  2  0  0  0
  1 27  1  0  0  0
  1  2  1  0  0  0
  2  3  1  0  0  0
  3  4  1  0  0  0
  4  5  1  0  0  0
  5  6  1  0  0  0
  6  7  2  0  0  0
  6  8  1  0  0  0
  8  9  2  0  0  0
  9 10  1  0  0  0
 10 11  2  0  0  0
 11 12  1  0  0  0
 12 13  2  0  0  0
  2 14  1  0  0  0
 14 15  1  0  0  0
 15 16  2  0  0  0
 15 17  1  0  0  0
 17 20  1  0  0  0
 20 21  1  0  0  0
 21 22  1  0  0  0
 22 23  1  0  0  0
 23 24  1  0  0  0
 24 25  1  0  0  0
  5  1  1  0  0  0
 13  8  1  0  0  0
 25 20  1  0  0  0
 26 29  1  0  0  0
 14 18  1  0  0  0
 17 19  1  0  0  0
M  END
>  <minimizedAffinity>
-5.86056

>  <minimizedRMSD>
1.32973

$$$$
MolPort-006-712-947 CSSS00132932151 MCULE-3253557027


 32 34  0  0  0  0  0  0  0  0999 V2000
    0.8461   19.7738   71.0952 C   0  0  0  0  0  0  0  0  0  0  0  0
   -0.3338   22.3366   69.4333 C   0  0  0  0  0  0  0  0  0  0  0  0
    0.1427   21.0332   68.8941 C   0  0  0  0  0  0  0  0  0  0  0  0
    0.1038   20.7261   67.5823 N   0  0  0  0  0  0  0  0  0  0  0  0
    0.5524   19.4894   67.4245 N   0  0  0  0  0  0  0  0  0  0  0  0
    0.8736   19.0093   68.6382 C   0  0  0  0  0  0  0  0  0  0  0  0
    0.6398   19.9556   69.6116 C   0  0  0  0  0  0  0  0  0  0  0  0
    1.3666   17.7287   68.8546 O   0  0  0  0  0  0  0  0  0  0  0  0
    0.6357   19.0076   66.5700 H   0  0  0  0  0  0  0  0  0  0  0  0
    1.4956   17.1478   68.1308 H   0  0  0  0  0  0  0  0  0  0  0  0
   -0.1746   18.9486   71.8379 C   0  0  0  0  0  0  0  0  0  0  0  0
   -0.1411   17.6114   72.1813 C   0  0  0  0  0  0  0  0  0  0  0  0
   -1.2637   17.2698   72.8388 N   0  0  0  0  0  0  0  0  0  0  0  0
   -2.0286   18.3485   72.9302 N   0  0  0  0  0  0  0  0  0  0  0  0
   -1.3916   19.3739   72.3315 C   0  0  0  0  0  0  0  0  0  0  0  0
   -1.9545   20.7484   72.2300 C   0  0  0  0  0  0  0  0  0  0  0  0
    0.8853   16.7181   71.9012 O   0  0  0  0  0  0  0  0  0  0  0  0
   -1.4794   16.3758   73.1903 H   0  0  0  0  0  0  0  0  0  0  0  0
    1.6468   17.0094   71.4394 H   0  0  0  0  0  0  0  0  0  0  0  0
    2.2634   19.6901   71.5967 C   0  0  0  0  0  0  0  0  0  0  0  0
    3.2689   19.7498   70.6268 C   0  0  0  0  0  0  0  0  0  0  0  0
    4.6248   19.7499   70.9815 C   0  0  0  0  0  0  0  0  0  0  0  0
    4.9836   19.7031   72.3333 C   0  0  0  0  0  0  0  0  0  0  0  0
    3.9819   19.6395   73.3120 C   0  0  0  0  0  0  0  0  0  0  0  0
    2.6242   19.6184   72.9671 C   0  0  0  0  0  0  0  0  0  0  0  0
    1.6537   19.5283   74.0215 N   0  0  0  0  0  0  0  0  0  0  0  0
    1.4381   18.4420   74.5949 O   0  0  0  0  0  0  0  0  0  0  0  0
    1.1415   20.6796   74.5741 O   0  0  0  0  0  0  0  0  0  0  0  0
    6.3385   19.7181   72.6825 O   0  0  0  0  0  0  0  0  0  0  0  0
    7.0790   18.5336   72.9434 C   0  0  0  0  0  0  0  0  0  0  0  0
    5.6286   19.8038   70.0084 O   0  0  0  0  0  0  0  0  0  0  0  0
    5.3481   19.8741   68.6170 C   0  0  0  0  0  0  0  0  0  0  0  0
  2  3  1  0  0  0
  3  4  2  0  0  0
  4  5  1  0  0  0
  5  6  1  0  0  0
  6  7  2  0  0  0
  7  1  1  0  0  0
  1 20  1  0  0  0
 20 21  2  0  0  0
 21 22  1  0  0  0
 22 23  2  0  0  0
 23 24  1  0  0  0
 24 25  2  0  0  0
 25 26  1  0  0  0
 26 27  2  0  0  0
 26 28  1  0  0  0
 23 29  1  0  0  0
 29 30  1  0  0  0
 22 31  1  0  0  0
 31 32  1  0  0  0
  1 11  1  0  0  0
 11 12  2  0  0  0
 12 13  1  0  0  0
 13 14  1  0  0  0
 14 15  2  0  0  0
 15 16  1  0  0  0
 12 17  1  0  0  0
  6  8  1  0  0  0
  7  3  1  0  0  0
 25 20  1  0  0  0
 15 11  1  0  0  0
  5  9  1  0  0  0
 13 18  1  0  0  0
 17 19  1  0  0  0
  8 10  1  0  0  0
M  CHG 1  26   1
M  CHG 1  28  -1
M  END
>  <minimizedAffinity>
-5.85094

>  <minimizedRMSD>
6.01433

$$$$
Molport-046-938-761 MCULE-5153962966 MCULE-5437358874 MCULE-8673170732 MCULE-9915926639 PubChem-21123028 PubChem-91872653 ZINC05131980


 20 19  0  0  0  0  0  0  0  0999 V2000
    3.5578   19.8504   68.6925 C   0  0  0  0  0  0  0  0  0  0  0  0
    3.9731   21.1847   68.7415 O   0  0  0  0  0  0  0  0  0  0  0  0
    3.9301   21.5034   69.6566 H   0  0  0  0  0  0  0  0  0  0  0  0
    4.4902   18.9828   69.5419 C   0  0  0  0  0  0  0  0  0  0  0  0
    3.9304   18.7473   70.7994 O   0  0  0  0  0  0  0  0  0  0  0  0
    3.8106   19.5909   71.2631 H   0  0  0  0  0  0  0  0  0  0  0  0
    5.8483   19.6441   69.7047 C   0  0  0  0  0  0  0  0  0  0  0  0
    6.5875   19.5124   68.5262 O   0  0  0  0  0  0  0  0  0  0  0  0
    7.7246   20.7554   68.5630 S   0  0  0  0  0  0  0  0  0  0  0  0
    8.7378   20.5220   67.4788 O   0  0  0  0  0  0  0  0  0  0  0  0
    8.4240   20.7733   69.8938 O   0  0  0  0  0  0  0  0  0  0  0  0
    6.9732   22.2358   68.2983 O   0  0  0  0  0  0  0  0  0  0  0  0
    2.0995   19.7166   69.1497 C   0  0  0  0  0  0  0  0  0  0  0  0
    1.7367   18.3658   69.1473 O   0  0  0  0  0  0  0  0  0  0  0  0
    1.8134   18.0120   68.2474 H   0  0  0  0  0  0  0  0  0  0  0  0
    1.1504   20.5033   68.2361 C   0  0  0  0  0  0  0  0  0  0  0  0
    0.2183   19.6473   67.6436 O   0  0  0  0  0  0  0  0  0  0  0  0
   -0.3231   19.2319   68.3330 H   0  0  0  0  0  0  0  0  0  0  0  0
    0.4215   21.5734   68.9899 C   0  0  0  0  0  0  0  0  0  0  0  0
    0.1343   21.4242   70.1673 O   0  0  0  0  0  0  0  0  0  0  0  0
  7  8  1  0  0  0
  4  7  1  0  0  0
  4  1  1  0  0  0
  4  5  1  0  0  0
  1 13  1  0  0  0
  1  2  1  0  0  0
 13 16  1  0  0  0
 13 14  1  0  0  0
 16 19  1  0  0  0
 16 17  1  0  0  0
 19 20  2  0  0  0
  8  9  1  0  0  0
  9 10  2  0  0  0
  9 11  2  0  0  0
  9 12  1  0  0  0
 17 18  1  0  0  0
 14 15  1  0  0  0
  2  3  1  0  0  0
  5  6  1  0  0  0
M  CHG 1  12  -1
M  END
>  <minimizedAffinity>
-5.84827

>  <minimizedRMSD>
1.70028

$$$$
MolPort-019-937-366 CSSS00159280973 MCULE-9329318617 PubChem-51136374


 39 42  0  0  0  0  0  0  0  0999 V2000
    1.1048   20.8973   69.6857 C   0  0  0  0  0  0  0  0  0  0  0  0
    1.0467   19.7003   70.6653 C   0  0  0  0  0  0  0  0  0  0  0  0
    2.4428   19.1253   70.9632 C   0  0  0  0  0  0  0  0  0  0  0  0
    3.3311   19.1162   69.7129 C   0  0  0  0  0  0  0  0  0  0  0  0
    3.1023   20.3529   68.8226 C   0  0  0  0  0  0  0  0  0  0  0  0
    2.4212   21.3642   69.5221 O   0  0  0  0  0  0  0  0  0  0  0  0
    3.0908   17.9590   68.9723 O   0  0  0  0  0  0  0  0  0  0  0  0
    3.0726   19.8682   71.9653 O   0  0  0  0  0  0  0  0  0  0  0  0
    0.3838   20.0243   71.8533 O   0  0  0  0  0  0  0  0  0  0  0  0
    2.1666   17.9496   68.6779 H   0  0  0  0  0  0  0  0  0  0  0  0
    3.1943   20.7816   71.6625 H   0  0  0  0  0  0  0  0  0  0  0  0
    0.8790   20.7142   72.3221 H   0  0  0  0  0  0  0  0  0  0  0  0
    0.2752   21.9456   70.0964 O   0  0  0  0  0  0  0  0  0  0  0  0
   -2.5751   22.2188   70.6287 C   0  0  0  0  0  0  0  0  0  0  0  0
   -2.5897   22.4456   69.1133 C   0  0  0  0  0  0  0  0  0  0  0  0
   -2.1941   23.8656   68.7173 C   0  0  0  0  0  0  0  0  0  0  0  0
   -0.7312   23.9385   69.1976 C   0  0  0  0  0  0  0  0  0  0  0  0
   -0.1832   22.5288   68.9094 C   0  0  0  0  0  0  0  0  0  0  0  0
   -1.4293   21.8060   68.3602 C   0  0  0  0  0  0  0  0  0  0  0  0
   -1.6163   22.3379   66.9354 C   0  0  0  0  0  0  0  0  0  0  0  0
   -2.0744   23.7845   67.1812 C   0  0  0  0  0  0  0  0  0  0  0  0
   -3.3102   24.0118   66.5737 O   0  0  0  0  0  0  0  0  0  0  0  0
   -1.3641   20.2854   68.4132 C   0  0  0  0  0  0  0  0  0  0  0  0
   -3.9759   22.0317   68.6068 C   0  0  0  0  0  0  0  0  0  0  0  0
   -3.9573   23.3710   66.9076 H   0  0  0  0  0  0  0  0  0  0  0  0
    4.4292   20.8909   68.3170 C   0  0  0  0  0  0  0  0  0  0  0  0
    5.4320   19.9352   68.4954 O   0  0  0  0  0  0  0  0  0  0  0  0
    6.4678   20.6204   69.1320 C   0  0  0  0  0  0  0  0  0  0  0  0
    6.6099   20.1282   70.5499 C   0  0  0  0  0  0  0  0  0  0  0  0
    8.0957   20.2467   70.8128 C   0  0  0  0  0  0  0  0  0  0  0  0
    8.6851   20.5127   69.4397 C   0  0  0  0  0  0  0  0  0  0  0  0
    7.6788   20.3750   68.4668 O   0  0  0  0  0  0  0  0  0  0  0  0
    8.5724   19.0265   71.2897 O   0  0  0  0  0  0  0  0  0  0  0  0
    5.8310   20.9016   71.4160 O   0  0  0  0  0  0  0  0  0  0  0  0
    8.3227   18.3192   70.6747 H   0  0  0  0  0  0  0  0  0  0  0  0
    6.0863   21.8339   71.3350 H   0  0  0  0  0  0  0  0  0  0  0  0
    8.4947   21.3579   71.7905 C   0  0  0  0  0  0  0  0  0  0  0  0
    8.4041   22.6187   71.1936 O   0  0  0  0  0  0  0  0  0  0  0  0
    9.0069   22.6613   70.4348 H   0  0  0  0  0  0  0  0  0  0  0  0
 14 15  1  0  0  0
 15 24  1  0  0  0
 16 15  1  0  0  0
 16 17  1  0  0  0
 17 18  1  0  0  0
 18 19  1  0  0  0
 18 13  1  0  0  0
 19 20  1  0  0  0
 19 23  1  0  0  0
 19 15  1  0  0  0
 20 21  1  0  0  0
 21 22  1  0  0  0
 21 16  1  0  0  0
  1 13  1  0  0  0
  1  2  1  0  0  0
  2  3  1  0  0  0
  2  9  1  0  0  0
  3  4  1  0  0  0
  3  8  1  0  0  0
  4  5  1  0  0  0
  4  7  1  0  0  0
  5  6  1  0  0  0
  5 26  1  0  0  0
  6  1  1  0  0  0
 26 27  1  0  0  0
 28 27  1  0  0  0
 28 29  1  0  0  0
 29 30  1  0  0  0
 29 34  1  0  0  0
 30 31  1  0  0  0
 30 37  1  0  0  0
 30 33  1  0  0  0
 31 32  1  0  0  0
 32 28  1  0  0  0
 37 38  1  0  0  0
 22 25  1  0  0  0
 38 39  1  0  0  0
 33 35  1  0  0  0
 34 36  1  0  0  0
  7 10  1  0  0  0
  8 11  1  0  0  0
  9 12  1  0  0  0
M  END
>  <minimizedAffinity>
-5.84196

>  <minimizedRMSD>
3.95945

$$$$
MolPort-001-742-068 31161541 CHEMBL511744 CSSS00159280243 MCULE-9624629479 PubChem-10549806 ZINC000031161541 ZINC31161541


 35 37  0  0  0  0  0  0  0  0999 V2000
    3.9595   20.6395   68.9914 C   0  0  0  0  0  0  0  0  0  0  0  0
    3.6011   19.2590   69.5713 C   0  0  0  0  0  0  0  0  0  0  0  0
    4.8346   18.4749   70.0416 C   0  0  0  0  0  0  0  0  0  0  0  0
    6.0800   18.7530   69.1899 C   0  0  0  0  0  0  0  0  0  0  0  0
    6.1477   20.2235   68.7274 C   0  0  0  0  0  0  0  0  0  0  0  0
    5.2344   21.0511   69.4121 O   0  0  0  0  0  0  0  0  0  0  0  0
    6.0880   17.9148   68.0754 O   0  0  0  0  0  0  0  0  0  0  0  0
    5.1039   18.7904   71.3736 O   0  0  0  0  0  0  0  0  0  0  0  0
    2.9090   18.5174   68.6140 O   0  0  0  0  0  0  0  0  0  0  0  0
    5.3078   18.0968   67.5284 H   0  0  0  0  0  0  0  0  0  0  0  0
    5.3078   19.7358   71.4471 H   0  0  0  0  0  0  0  0  0  0  0  0
    3.4781   18.3757   67.8413 H   0  0  0  0  0  0  0  0  0  0  0  0
    2.9292   21.6723   69.4120 C   0  0  0  0  0  0  0  0  0  0  0  0
    1.7331   21.4603   68.7233 O   0  0  0  0  0  0  0  0  0  0  0  0
   -1.4900   23.0091   66.8178 C   0  0  0  0  0  0  0  0  0  0  0  0
   -0.7696   22.1035   67.7986 C   0  0  0  0  0  0  0  0  0  0  0  0
   -1.7450   21.1107   68.4464 C   0  0  0  0  0  0  0  0  0  0  0  0
   -0.9767   20.1761   69.3796 C   0  0  0  0  0  0  0  0  0  0  0  0
   -0.0582   20.9824   70.3064 C   0  0  0  0  0  0  0  0  0  0  0  0
    0.7453   22.0409   69.5311 C   0  0  0  0  0  0  0  0  0  0  0  0
   -0.1079   22.8804   68.7752 O   0  0  0  0  0  0  0  0  0  0  0  0
    0.7900   20.1396   71.0278 O   0  0  0  0  0  0  0  0  0  0  0  0
   -0.2383   19.2590   68.6265 O   0  0  0  0  0  0  0  0  0  0  0  0
   -2.7315   21.7894   69.1672 O   0  0  0  0  0  0  0  0  0  0  0  0
    1.3663   19.6582   70.4138 H   0  0  0  0  0  0  0  0  0  0  0  0
    0.3976   19.7353   68.0700 H   0  0  0  0  0  0  0  0  0  0  0  0
   -2.3161   22.3115   69.8712 H   0  0  0  0  0  0  0  0  0  0  0  0
    7.4587   20.7433   68.7610 O   0  0  0  0  0  0  0  0  0  0  0  0
    8.2567   19.8918   69.5476 C   0  0  0  0  0  0  0  0  0  0  0  0
    8.6478   20.5376   70.8409 C   0  0  0  0  0  0  0  0  0  0  0  0
    7.9453   21.6354   71.3611 C   0  0  0  0  0  0  0  0  0  0  0  0
    8.3362   22.2108   72.5738 C   0  0  0  0  0  0  0  0  0  0  0  0
    9.4299   21.6922   73.2725 C   0  0  0  0  0  0  0  0  0  0  0  0
   10.1325   20.5987   72.7585 C   0  0  0  0  0  0  0  0  0  0  0  0
    9.7415   20.0234   71.5456 C   0  0  0  0  0  0  0  0  0  0  0  0
 16 15  1  0  0  0
 16 17  1  0  0  0
 17 18  1  0  0  0
 17 24  1  0  0  0
 18 19  1  0  0  0
 18 23  1  0  0  0
 19 20  1  0  0  0
 19 22  1  0  0  0
 20 21  1  0  0  0
 20 14  1  0  0  0
 21 16  1  0  0  0
 14 13  1  0  0  0
  1 13  1  0  0  0
  1  2  1  0  0  0
  2  3  1  0  0  0
  2  9  1  0  0  0
  3  4  1  0  0  0
  3  8  1  0  0  0
  4  5  1  0  0  0
  4  7  1  0  0  0
  5  6  1  0  0  0
  5 28  1  0  0  0
  6  1  1  0  0  0
 28 29  1  0  0  0
 29 30  1  0  0  0
 30 31  2  0  0  0
 31 32  1  0  0  0
 32 33  2  0  0  0
 33 34  1  0  0  0
 34 35  2  0  0  0
 35 30  1  0  0  0
  7 10  1  0  0  0
  8 11  1  0  0  0
  9 12  1  0  0  0
 22 25  1  0  0  0
 23 26  1  0  0  0
 24 27  1  0  0  0
M  END
>  <minimizedAffinity>
-5.84189

>  <minimizedRMSD>
2.39366

$$$$
MolPort-007-823-790 ChemDiv-G070-0658 MCULE-5409194068 PubChem-20938411 ZINC000009300997 ZINC09300997


 31 32  0  0  0  0  0  0  0  0999 V2000
    3.5799   19.9704   69.1571 S   0  0  0  0  0  0  0  0  0  0  0  0
    3.5463   21.4507   68.8910 O   0  0  0  0  0  0  0  0  0  0  0  0
    4.5541   19.3176   68.2189 O   0  0  0  0  0  0  0  0  0  0  0  0
    5.3680   19.7786   71.3524 C   0  0  0  0  0  0  0  0  0  0  0  0
    5.2385   19.5090   72.7075 C   0  0  0  0  0  0  0  0  0  0  0  0
    6.3443   19.4803   73.7059 C   0  0  0  0  0  0  0  0  0  0  0  0
    3.9639   19.2163   73.0314 N   0  0  0  0  0  0  0  0  0  0  0  0
    3.2682   19.3108   71.8828 C   0  0  0  0  0  0  0  0  0  0  0  0
    1.8098   19.0233   71.8056 C   0  0  0  0  0  0  0  0  0  0  0  0
    4.0890   19.6667   70.8244 C   0  0  0  0  0  0  0  0  0  0  0  0
    3.6144   18.9823   73.9215 H   0  0  0  0  0  0  0  0  0  0  0  0
    6.6263   20.0670   70.6337 C   0  0  0  0  0  0  0  0  0  0  0  0
    7.5514   19.2110   70.6067 O   0  0  0  0  0  0  0  0  0  0  0  0
    6.8035   21.3081   70.0146 O   0  0  0  0  0  0  0  0  0  0  0  0
    8.1878   21.2135   68.0376 C   0  0  0  0  0  0  0  0  0  0  0  0
    8.0496   21.7195   69.4626 C   0  0  0  0  0  0  0  0  0  0  0  0
    1.9979   19.3257   68.8708 N   0  0  0  0  0  0  0  0  0  0  0  0
    1.4551   19.3402   69.7343 H   0  0  0  0  0  0  0  0  0  0  0  0
    1.3560   20.1611   67.8679 C   0  0  0  0  0  0  0  0  0  0  0  0
   -0.0014   20.5557   68.3289 C   0  0  0  0  0  0  0  0  0  0  0  0
   -0.4033   20.1818   69.4623 O   0  0  0  0  0  0  0  0  0  0  0  0
   -0.8419   21.3378   67.4739 N   0  0  0  0  0  0  0  0  0  0  0  0
   -0.5805   21.4136   66.5278 H   0  0  0  0  0  0  0  0  0  0  0  0
   -2.0343   22.0196   67.8857 C   0  0  0  0  0  0  0  0  0  0  0  0
   -3.2678   21.5130   67.4593 C   0  0  0  0  0  0  0  0  0  0  0  0
   -4.4591   22.1490   67.8151 C   0  0  0  0  0  0  0  0  0  0  0  0
   -5.9930   21.4886   67.2942 Cl  0  0  0  0  0  0  0  0  0  0  0  0
   -4.4261   23.3096   68.5891 C   0  0  0  0  0  0  0  0  0  0  0  0
   -3.2013   23.8408   68.9972 C   0  0  0  0  0  0  0  0  0  0  0  0
   -2.0032   23.2097   68.6475 C   0  0  0  0  0  0  0  0  0  0  0  0
   -0.7244   23.8714   69.0364 C   0  0  0  0  0  0  0  0  0  0  0  0
 15 16  1  0  0  0
 16 14  1  0  0  0
 14 12  1  0  0  0
 12 13  2  0  0  0
 12  4  1  0  0  0
  4  5  2  0  0  0
  5  6  1  0  0  0
  5  7  1  0  0  0
  7  8  1  0  0  0
  8  9  1  0  0  0
  8 10  2  0  0  0
 10  1  1  0  0  0
 10  4  1  0  0  0
  1  2  2  0  0  0
  1  3  2  0  0  0
  1 17  1  0  0  0
 17 19  1  0  0  0
 19 20  1  0  0  0
 20 21  2  0  0  0
 20 22  1  0  0  0
 22 24  1  0  0  0
 24 25  2  0  0  0
 25 26  1  0  0  0
 26 27  1  0  0  0
 26 28  2  0  0  0
 28 29  1  0  0  0
 29 30  2  0  0  0
 30 31  1  0  0  0
 30 24  1  0  0  0
  7 11  1  0  0  0
 17 18  1  0  0  0
 22 23  1  0  0  0
M  END
>  <minimizedAffinity>
-5.82744

>  <minimizedRMSD>
1.51988

$$$$
MolPort-019-994-692 CHEMBL96712 CSSS00000030208 MCULE-2044825561 MCULE-4932400069 PubChem-131875870 PubChem-65309 ZINC000004096465


 26 26  0  0  0  0  0  0  0  0999 V2000
    6.8651   20.0159   70.4227 C   0  0  0  0  0  0  0  0  0  0  0  0
    5.7184   20.8916   70.9632 C   0  0  0  0  0  0  0  0  0  0  0  0
    4.4363   20.5587   70.4193 O   0  0  0  0  0  0  0  0  0  0  0  0
    4.1780   19.4198   69.6447 C   0  0  0  0  0  0  0  0  0  0  0  0
    5.1119   18.4803   69.4811 C   0  0  0  0  0  0  0  0  0  0  0  0
    6.4385   18.5658   70.1672 C   0  0  0  0  0  0  0  0  0  0  0  0
    6.4035   17.8500   71.3634 O   0  0  0  0  0  0  0  0  0  0  0  0
    5.7421   18.2414   71.9552 H   0  0  0  0  0  0  0  0  0  0  0  0
    9.2280   21.4780   67.7191 C   0  0  0  0  0  0  0  0  0  0  0  0
    8.7687   20.9010   69.0087 C   0  0  0  0  0  0  0  0  0  0  0  0
    9.6036   20.6794   69.9254 O   0  0  0  0  0  0  0  0  0  0  0  0
    7.3834   20.6078   69.1971 N   0  0  0  0  0  0  0  0  0  0  0  0
    6.7537   20.8141   68.4690 H   0  0  0  0  0  0  0  0  0  0  0  0
    2.8637   19.2801   69.0020 C   0  0  0  0  0  0  0  0  0  0  0  0
    2.0296   18.4296   69.4137 O   0  0  0  0  0  0  0  0  0  0  0  0
    2.5332   20.0937   67.9256 O   0  0  0  0  0  0  0  0  0  0  0  0
    3.1470   20.7288   67.6126 H   0  0  0  0  0  0  0  0  0  0  0  0
    5.6494   20.9839   72.4896 C   0  0  0  0  0  0  0  0  0  0  0  0
    4.8518   19.9746   73.0353 O   0  0  0  0  0  0  0  0  0  0  0  0
    5.2510   19.1105   72.8485 H   0  0  0  0  0  0  0  0  0  0  0  0
    7.0313   21.0206   73.1392 C   0  0  0  0  0  0  0  0  0  0  0  0
    6.9695   20.5799   74.4640 O   0  0  0  0  0  0  0  0  0  0  0  0
    6.3862   21.1648   74.9725 H   0  0  0  0  0  0  0  0  0  0  0  0
    7.5874   22.4321   73.0915 C   0  0  0  0  0  0  0  0  0  0  0  0
    8.6461   22.4942   72.1854 O   0  0  0  0  0  0  0  0  0  0  0  0
    9.3475   21.8856   72.4655 H   0  0  0  0  0  0  0  0  0  0  0  0
  9 10  1  0  0  0
 10 11  2  0  0  0
 10 12  1  0  0  0
  1 12  1  0  0  0
  1  2  1  0  0  0
  2 18  1  0  0  0
  2  3  1  0  0  0
 18 19  1  0  0  0
 18 21  1  0  0  0
 21 22  1  0  0  0
 21 24  1  0  0  0
 24 25  1  0  0  0
  3  4  1  0  0  0
  4 14  1  0  0  0
  4  5  2  0  0  0
 14 15  2  0  0  0
 14 16  1  0  0  0
  5  6  1  0  0  0
  6  7  1  0  0  0
  6  1  1  0  0  0
 12 13  1  0  0  0
 19 20  1  0  0  0
 22 23  1  0  0  0
 25 26  1  0  0  0
 16 17  1  0  0  0
  7  8  1  0  0  0
M  END
>  <minimizedAffinity>
-5.78704

>  <minimizedRMSD>
6.13368

$$$$
MolPort-047-945-028 CSSS03549785922 MCULE-4185104674 MCULE-4617756453 PubChem-195944


 29 28  0  0  0  0  0  0  0  0999 V2000
    0.2651   18.5130   71.5181 C   0  0  0  0  0  0  0  0  0  0  0  0
   -2.5757   16.6580   73.4574 C   0  0  0  0  0  0  0  0  0  0  0  0
   -1.6577   17.7557   73.0588 C   0  0  0  0  0  0  0  0  0  0  0  0
   -1.7513   18.8787   73.6215 O   0  0  0  0  0  0  0  0  0  0  0  0
   -0.6736   17.5181   72.0458 N   0  0  0  0  0  0  0  0  0  0  0  0
   -0.6231   16.6088   71.6718 H   0  0  0  0  0  0  0  0  0  0  0  0
    1.3661   18.8632   72.5257 C   0  0  0  0  0  0  0  0  0  0  0  0
    2.0850   17.7201   72.8856 O   0  0  0  0  0  0  0  0  0  0  0  0
    2.5279   17.3569   72.1028 H   0  0  0  0  0  0  0  0  0  0  0  0
    2.3206   19.9398   72.0004 C   0  0  0  0  0  0  0  0  0  0  0  0
    3.7508   19.4883   71.9610 C   0  0  0  0  0  0  0  0  0  0  0  0
    4.1604   18.7872   70.9976 O   0  0  0  0  0  0  0  0  0  0  0  0
    4.6831   19.8780   73.0254 C   0  0  0  0  0  0  0  0  0  0  0  0
    4.5904   21.0085   73.5726 O   0  0  0  0  0  0  0  0  0  0  0  0
    5.6756   18.9976   73.4376 O   0  0  0  0  0  0  0  0  0  0  0  0
    5.7508   18.1547   73.0352 H   0  0  0  0  0  0  0  0  0  0  0  0
   -0.4424   19.7602   70.9675 C   0  0  0  0  0  0  0  0  0  0  0  0
   -1.6859   19.4753   70.3965 O   0  0  0  0  0  0  0  0  0  0  0  0
   -1.5611   18.9232   69.6088 H   0  0  0  0  0  0  0  0  0  0  0  0
    0.4385   20.6122   70.0417 C   0  0  0  0  0  0  0  0  0  0  0  0
   -0.0893   21.8996   69.9408 O   0  0  0  0  0  0  0  0  0  0  0  0
   -0.9571   21.8604   69.5091 H   0  0  0  0  0  0  0  0  0  0  0  0
    0.7002   20.0491   68.6369 C   0  0  0  0  0  0  0  0  0  0  0  0
    0.0656   18.8201   68.4491 O   0  0  0  0  0  0  0  0  0  0  0  0
    0.4338   18.1684   69.0660 H   0  0  0  0  0  0  0  0  0  0  0  0
    2.1926   19.9265   68.3281 C   0  0  0  0  0  0  0  0  0  0  0  0
    2.9789   21.0766   68.7776 N   0  0  0  0  0  0  0  0  0  0  0  0
    4.1367   21.2808   68.4080 N   0  0  0  0  0  0  0  0  0  0  0  0
    5.2923   21.4861   68.0398 N   0  0  0  0  0  0  0  0  0  0  0  0
  2  3  1  0  0  0
  3  4  2  0  0  0
  3  5  1  0  0  0
  1  5  1  0  0  0
  1  7  1  0  0  0
  1 17  1  0  0  0
  7 10  1  0  0  0
  7  8  1  0  0  0
 10 11  1  0  0  0
 11 12  2  0  0  0
 11 13  1  0  0  0
 13 14  2  0  0  0
 13 15  1  0  0  0
 17 20  1  0  0  0
 17 18  1  0  0  0
 20 23  1  0  0  0
 20 21  1  0  0  0
 23 26  1  0  0  0
 23 24  1  0  0  0
 26 27  1  0  0  0
 27 28  2  0  0  0
 28 29  2  0  0  0
  5  6  1  0  0  0
 15 16  1  0  0  0
  8  9  1  0  0  0
 24 25  1  0  0  0
 21 22  1  0  0  0
 18 19  1  0  0  0
M  CHG 1  28   1
M  CHG 1  29  -1
M  END
>  <minimizedAffinity>
-5.76516

>  <minimizedRMSD>
3.72517

$$$$
Molport-051-821-814 MCULE-1196426074 PubChem-92024379


 41 43  0  0  0  0  0  0  0  0999 V2000
    2.0028   19.8859   69.5444 C   0  0  0  0  0  0  0  0  0  0  0  0
    0.7367   20.5876   69.0425 C   0  0  0  0  0  0  0  0  0  0  0  0
   -0.1881   20.8836   70.2367 C   0  0  0  0  0  0  0  0  0  0  0  0
   -0.5068   19.6960   70.9246 O   0  0  0  0  0  0  0  0  0  0  0  0
    0.6762   19.2537   71.5446 C   0  0  0  0  0  0  0  0  0  0  0  0
    1.6580   18.7325   70.4917 C   0  0  0  0  0  0  0  0  0  0  0  0
    1.0889   17.6694   69.7834 O   0  0  0  0  0  0  0  0  0  0  0  0
    1.0890   21.7790   68.4053 O   0  0  0  0  0  0  0  0  0  0  0  0
    0.2781   17.9706   69.3443 H   0  0  0  0  0  0  0  0  0  0  0  0
    1.5548   22.3551   69.0315 H   0  0  0  0  0  0  0  0  0  0  0  0
   -1.4699   21.5747   69.7874 C   0  0  0  0  0  0  0  0  0  0  0  0
   -2.5873   20.8129   70.1354 O   0  0  0  0  0  0  0  0  0  0  0  0
   -2.5366   19.9472   69.7008 H   0  0  0  0  0  0  0  0  0  0  0  0
    2.7770   19.4278   68.4619 O   0  0  0  0  0  0  0  0  0  0  0  0
    5.4009   21.2970   70.2427 C   0  0  0  0  0  0  0  0  0  0  0  0
    6.5390   20.2716   70.1657 C   0  0  0  0  0  0  0  0  0  0  0  0
    6.0561   18.9138   69.6275 C   0  0  0  0  0  0  0  0  0  0  0  0
    4.6572   18.7937   69.7025 O   0  0  0  0  0  0  0  0  0  0  0  0
    4.1382   19.6836   68.7381 C   0  0  0  0  0  0  0  0  0  0  0  0
    4.4055   21.1627   69.0853 C   0  0  0  0  0  0  0  0  0  0  0  0
    4.8927   21.8254   67.9591 O   0  0  0  0  0  0  0  0  0  0  0  0
    7.5610   20.7586   69.3507 O   0  0  0  0  0  0  0  0  0  0  0  0
    5.7293   21.4201   67.6822 H   0  0  0  0  0  0  0  0  0  0  0  0
    7.2216   20.8929   68.4520 H   0  0  0  0  0  0  0  0  0  0  0  0
    6.7253   17.7674   70.3711 C   0  0  0  0  0  0  0  0  0  0  0  0
    6.6262   17.9535   71.7517 O   0  0  0  0  0  0  0  0  0  0  0  0
    7.0685   18.7806   71.9990 H   0  0  0  0  0  0  0  0  0  0  0  0
    0.3805   18.2480   72.4689 O   0  0  0  0  0  0  0  0  0  0  0  0
    0.5772   18.8398   73.7208 C   0  0  0  0  0  0  0  0  0  0  0  0
   -0.7426   18.8717   74.4926 C   0  0  0  0  0  0  0  0  0  0  0  0
   -0.4669   19.2816   75.9363 C   0  0  0  0  0  0  0  0  0  0  0  0
    0.3933   18.3462   76.5353 O   0  0  0  0  0  0  0  0  0  0  0  0
    1.6648   18.5382   75.9643 C   0  0  0  0  0  0  0  0  0  0  0  0
    1.6535   18.0726   74.4973 C   0  0  0  0  0  0  0  0  0  0  0  0
    2.8974   18.3040   73.9059 O   0  0  0  0  0  0  0  0  0  0  0  0
   -1.6103   19.7926   73.9062 O   0  0  0  0  0  0  0  0  0  0  0  0
    3.0936   19.2537   73.9265 H   0  0  0  0  0  0  0  0  0  0  0  0
   -1.2063   20.6743   73.9241 H   0  0  0  0  0  0  0  0  0  0  0  0
    2.6851   17.7554   76.7766 C   0  0  0  0  0  0  0  0  0  0  0  0
    3.9774   18.1664   76.4493 O   0  0  0  0  0  0  0  0  0  0  0  0
    4.1383   18.0069   75.5061 H   0  0  0  0  0  0  0  0  0  0  0  0
 15 16  1  0  0  0
 16 17  1  0  0  0
 17 18  1  0  0  0
 18 19  1  0  0  0
 19 20  1  0  0  0
 20 21  1  0  0  0
 19 14  1  0  0  0
 14  1  1  0  0  0
  1  2  1  0  0  0
  2  3  1  0  0  0
  3  4  1  0  0  0
  4  5  1  0  0  0
  5  6  1  0  0  0
  6  7  1  0  0  0
  5 28  1  0  0  0
 28 29  1  0  0  0
 29 30  1  0  0  0
 30 31  1  0  0  0
 31 32  1  0  0  0
 32 33  1  0  0  0
 33 34  1  0  0  0
 34 35  1  0  0  0
 33 39  1  0  0  0
 39 40  1  0  0  0
 30 36  1  0  0  0
  3 11  1  0  0  0
 11 12  1  0  0  0
  2  8  1  0  0  0
 17 25  1  0  0  0
 25 26  1  0  0  0
 16 22  1  0  0  0
 20 15  1  0  0  0
  6  1  1  0  0  0
 34 29  1  0  0  0
 21 23  1  0  0  0
  7  9  1  0  0  0
 35 37  1  0  0  0
 40 41  1  0  0  0
 36 38  1  0  0  0
 12 13  1  0  0  0
  8 10  1  0  0  0
 26 27  1  0  0  0
 22 24  1  0  0  0
M  END
>  <minimizedAffinity>
-5.75936

>  <minimizedRMSD>
3.31467

$$$$
MolPort-047-919-159 MCULE-1776755738 PubChem-131637977


 33 33  0  0  0  0  0  0  0  0999 V2000
    4.3605   20.7209   71.7834 O   0  0  0  0  0  0  0  0  0  0  0  0
    5.6576   20.2969   72.1193 C   0  0  0  0  0  0  0  0  0  0  0  0
    5.5996   19.4347   73.3883 C   0  0  0  0  0  0  0  0  0  0  0  0
    6.9921   18.9233   73.7389 C   0  0  0  0  0  0  0  0  0  0  0  0
    8.0082   20.0699   73.7058 C   0  0  0  0  0  0  0  0  0  0  0  0
    7.8263   21.0034   72.4898 C   0  0  0  0  0  0  0  0  0  0  0  0
    6.4852   21.4248   72.3190 O   0  0  0  0  0  0  0  0  0  0  0  0
    9.3205   19.5999   73.8111 O   0  0  0  0  0  0  0  0  0  0  0  0
    7.3568   17.8967   72.8649 O   0  0  0  0  0  0  0  0  0  0  0  0
    5.0791   20.1692   74.4571 O   0  0  0  0  0  0  0  0  0  0  0  0
    9.5301   19.0505   73.0396 H   0  0  0  0  0  0  0  0  0  0  0  0
    7.3734   18.2361   71.9564 H   0  0  0  0  0  0  0  0  0  0  0  0
    5.6535   20.9299   74.6368 H   0  0  0  0  0  0  0  0  0  0  0  0
    8.4787   20.5901   71.1978 C   0  0  0  0  0  0  0  0  0  0  0  0
    8.9004   19.4168   71.0242 O   0  0  0  0  0  0  0  0  0  0  0  0
    8.6228   21.5243   70.1812 O   0  0  0  0  0  0  0  0  0  0  0  0
    8.3118   22.3999   70.3019 H   0  0  0  0  0  0  0  0  0  0  0  0
    3.8274   19.8892   70.7671 C   0  0  0  0  0  0  0  0  0  0  0  0
    2.8056   18.8317   71.2156 C   0  0  0  0  0  0  0  0  0  0  0  0
    2.6482   18.7978   72.6050 O   0  0  0  0  0  0  0  0  0  0  0  0
    2.2747   19.6400   72.9087 H   0  0  0  0  0  0  0  0  0  0  0  0
    1.4657   18.9538   70.4906 C   0  0  0  0  0  0  0  0  0  0  0  0
    1.5661   18.3835   69.2209 O   0  0  0  0  0  0  0  0  0  0  0  0
    1.7717   17.4394   69.3059 H   0  0  0  0  0  0  0  0  0  0  0  0
    0.3445   18.3136   71.2467 C   0  0  0  0  0  0  0  0  0  0  0  0
   -0.8147   18.5487   70.9436 O   0  0  0  0  0  0  0  0  0  0  0  0
    4.8126   19.4082   69.6908 C   0  0  0  0  0  0  0  0  0  0  0  0
    5.9946   18.9248   70.2571 O   0  0  0  0  0  0  0  0  0  0  0  0
    6.4439   19.6428   70.7297 H   0  0  0  0  0  0  0  0  0  0  0  0
    5.0892   20.4704   68.6701 C   0  0  0  0  0  0  0  0  0  0  0  0
    6.0485   21.2738   68.8203 O   0  0  0  0  0  0  0  0  0  0  0  0
    4.2847   20.5661   67.5422 O   0  0  0  0  0  0  0  0  0  0  0  0
    3.5700   19.9717   67.4248 H   0  0  0  0  0  0  0  0  0  0  0  0
 25 26  2  0  0  0
 22 25  1  0  0  0
 22 19  1  0  0  0
 19 18  1  0  0  0
 18 27  1  0  0  0
 27 30  1  0  0  0
 30 31  2  0  0  0
 30 32  1  0  0  0
 27 28  1  0  0  0
 18  1  1  0  0  0
  2  1  1  0  0  0
  2  3  1  0  0  0
  3  4  1  0  0  0
  4  5  1  0  0  0
  5  6  1  0  0  0
  6  7  1  0  0  0
  6 14  1  0  0  0
 14 15  2  0  0  0
 14 16  1  0  0  0
  5  8  1  0  0  0
  4  9  1  0  0  0
  3 10  1  0  0  0
 19 20  1  0  0  0
 22 23  1  0  0  0
  7  2  1  0  0  0
 32 33  1  0  0  0
 28 29  1  0  0  0
 16 17  1  0  0  0
  8 11  1  0  0  0
  9 12  1  0  0  0
 10 13  1  0  0  0
 20 21  1  0  0  0
 23 24  1  0  0  0
M  END
>  <minimizedAffinity>
-5.74905

>  <minimizedRMSD>
3.60675

$$$$
Molport-053-176-604 3928259 MCULE-2382274536 MCULE-5086689132 PubChem-9929657 ZINC000003928259


 33 32  0  0  0  0  0  0  0  0999 V2000
    1.5175   20.9644   69.5964 C   0  0  0  0  0  0  0  0  0  0  0  0
    1.3950   22.1996   69.8152 O   0  0  0  0  0  0  0  0  0  0  0  0
    2.8185   20.3711   69.5483 N   0  0  0  0  0  0  0  0  0  0  0  0
    2.8902   19.4102   69.3464 H   0  0  0  0  0  0  0  0  0  0  0  0
    0.2783   20.1301   69.3983 C   0  0  0  0  0  0  0  0  0  0  0  0
    0.5566   18.8248   67.2160 C   0  0  0  0  0  0  0  0  0  0  0  0
    0.4662   18.7586   68.7315 C   0  0  0  0  0  0  0  0  0  0  0  0
    1.5943   18.1192   69.2466 O   0  0  0  0  0  0  0  0  0  0  0  0
    2.3856   18.6382   69.0336 H   0  0  0  0  0  0  0  0  0  0  0  0
   -0.8156   20.8918   68.7954 N   0  0  0  0  0  0  0  0  0  0  0  0
   -0.6644   21.9657   67.8564 C   0  0  0  0  0  0  0  0  0  0  0  0
    0.4796   22.3813   67.5322 O   0  0  0  0  0  0  0  0  0  0  0  0
   -1.7327   20.6467   69.0561 H   0  0  0  0  0  0  0  0  0  0  0  0
   -1.8708   22.6395   67.2868 C   0  0  0  0  0  0  0  0  0  0  0  0
   -2.7557   21.6677   66.6590 N   0  0  0  0  0  0  0  0  0  0  0  0
   -3.0866   21.0059   67.3611 H   0  0  0  0  0  0  0  0  0  0  0  0
   -2.2475   21.1655   65.9311 H   0  0  0  0  0  0  0  0  0  0  0  0
   -2.6022   23.4758   68.3403 C   0  0  0  0  0  0  0  0  0  0  0  0
   -2.2028   23.1086   69.7617 C   0  0  0  0  0  0  0  0  0  0  0  0
   -4.1034   23.3364   68.1780 C   0  0  0  0  0  0  0  0  0  0  0  0
    4.0423   21.1265   69.7851 C   0  0  0  0  0  0  0  0  0  0  0  0
    5.0498   20.8403   68.7188 C   0  0  0  0  0  0  0  0  0  0  0  0
    4.7537   21.0708   67.5162 O   0  0  0  0  0  0  0  0  0  0  0  0
    6.3292   20.2962   69.0578 N   0  0  0  0  0  0  0  0  0  0  0  0
    6.5126   20.0747   69.9993 H   0  0  0  0  0  0  0  0  0  0  0  0
    7.3709   20.0563   68.0698 C   0  0  0  0  0  0  0  0  0  0  0  0
    8.2845   21.2305   67.9907 C   0  0  0  0  0  0  0  0  0  0  0  0
    8.7160   21.7649   69.0451 O   0  0  0  0  0  0  0  0  0  0  0  0
    8.6341   21.7564   66.7545 O   0  0  0  0  0  0  0  0  0  0  0  0
    8.3134   21.3593   65.9687 H   0  0  0  0  0  0  0  0  0  0  0  0
    4.5997   20.8685   71.1869 C   0  0  0  0  0  0  0  0  0  0  0  0
    3.8295   19.4316   72.0037 S   0  0  0  0  0  0  0  0  0  0  0  0
    2.4971   19.6571   72.1561 H   0  0  0  0  0  0  0  0  0  0  0  0
  7  6  1  0  0  0
  7  5  1  0  0  0
  7  8  1  0  0  0
  5  1  1  0  0  0
  5 10  1  0  0  0
  1  2  2  0  0  0
  1  3  1  0  0  0
 21  3  1  0  0  0
 21 31  1  0  0  0
 21 22  1  0  0  0
 31 32  1  0  0  0
 22 23  2  0  0  0
 22 24  1  0  0  0
 24 26  1  0  0  0
 26 27  1  0  0  0
 27 28  2  0  0  0
 27 29  1  0  0  0
 10 11  1  0  0  0
 11 12  2  0  0  0
 14 11  1  0  0  0
 14 18  1  0  0  0
 14 15  1  0  0  0
 18 19  1  0  0  0
 18 20  1  0  0  0
  3  4  1  0  0  0
 32 33  1  0  0  0
 24 25  1  0  0  0
 29 30  1  0  0  0
 10 13  1  0  0  0
 15 16  1  0  0  0
 15 17  1  0  0  0
  8  9  1  0  0  0
M  END
>  <minimizedAffinity>
-5.69996

>  <minimizedRMSD>
1.58869

$$$$
Molport-052-042-962 PubChem-14137123


 38 40  0  0  0  0  0  0  0  0999 V2000
    6.9242   21.5367   71.1087 C   0  0  0  0  0  0  0  0  0  0  0  0
    7.0087   20.0348   71.3417 C   0  0  0  0  0  0  0  0  0  0  0  0
    5.9223   19.4757   72.2820 C   0  0  0  0  0  0  0  0  0  0  0  0
    4.6459   20.3021   72.4940 C   0  0  0  0  0  0  0  0  0  0  0  0
    4.9124   21.4248   73.3263 O   0  0  0  0  0  0  0  0  0  0  0  0
    5.7603   21.3240   74.4336 C   0  0  0  0  0  0  0  0  0  0  0  0
    6.5639   20.2668   74.6207 C   0  0  0  0  0  0  0  0  0  0  0  0
    6.5992   19.1210   73.6106 C   0  0  0  0  0  0  0  0  0  0  0  0
    8.0412   18.8028   73.2082 C   0  0  0  0  0  0  0  0  0  0  0  0
    8.3369   19.7376   72.0398 C   0  0  0  0  0  0  0  0  0  0  0  0
    9.3012   19.2106   71.1733 O   0  0  0  0  0  0  0  0  0  0  0  0
    8.1523   17.4678   72.7995 O   0  0  0  0  0  0  0  0  0  0  0  0
    5.9764   18.0004   74.1689 O   0  0  0  0  0  0  0  0  0  0  0  0
    6.9243   19.3743   70.1137 O   0  0  0  0  0  0  0  0  0  0  0  0
    8.9819   18.3716   70.8060 H   0  0  0  0  0  0  0  0  0  0  0  0
    7.5453   17.3042   72.0608 H   0  0  0  0  0  0  0  0  0  0  0  0
    6.4058   17.7771   75.0095 H   0  0  0  0  0  0  0  0  0  0  0  0
    6.0744   19.5798   69.6938 H   0  0  0  0  0  0  0  0  0  0  0  0
    7.3629   20.2068   75.8640 C   0  0  0  0  0  0  0  0  0  0  0  0
    7.2449   19.2227   76.6450 O   0  0  0  0  0  0  0  0  0  0  0  0
    8.2418   21.2476   76.1774 O   0  0  0  0  0  0  0  0  0  0  0  0
    9.5787   21.0036   76.5878 C   0  0  0  0  0  0  0  0  0  0  0  0
    4.0924   20.7157   71.2790 O   0  0  0  0  0  0  0  0  0  0  0  0
    3.5740   19.5518   70.7017 C   0  0  0  0  0  0  0  0  0  0  0  0
    3.2685   19.7836   69.2086 C   0  0  0  0  0  0  0  0  0  0  0  0
    1.9254   19.1692   68.8016 C   0  0  0  0  0  0  0  0  0  0  0  0
    0.8133   19.6185   69.7549 C   0  0  0  0  0  0  0  0  0  0  0  0
    1.3502   19.8950   71.1695 C   0  0  0  0  0  0  0  0  0  0  0  0
    2.4640   19.0769   71.4445 O   0  0  0  0  0  0  0  0  0  0  0  0
    0.2068   20.7702   69.2529 O   0  0  0  0  0  0  0  0  0  0  0  0
    2.0063   17.7744   68.8069 O   0  0  0  0  0  0  0  0  0  0  0  0
    4.3037   19.2788   68.4208 O   0  0  0  0  0  0  0  0  0  0  0  0
    0.8632   21.4820   69.1944 H   0  0  0  0  0  0  0  0  0  0  0  0
    2.2162   17.4662   69.7024 H   0  0  0  0  0  0  0  0  0  0  0  0
    4.3779   18.3216   68.5590 H   0  0  0  0  0  0  0  0  0  0  0  0
    0.2708   19.6435   72.2079 C   0  0  0  0  0  0  0  0  0  0  0  0
   -0.6399   20.7003   72.2182 O   0  0  0  0  0  0  0  0  0  0  0  0
   -0.1772   21.5238   72.4386 H   0  0  0  0  0  0  0  0  0  0  0  0
  2  1  1  0  0  0
  2 14  1  0  0  0
  3  2  1  0  0  0
  3  4  1  0  0  0
  4  5  1  0  0  0
  4 23  1  0  0  0
  5  6  1  0  0  0
  6  7  2  0  0  0
  7  8  1  0  0  0
  7 19  1  0  0  0
  8  9  1  0  0  0
  8 13  1  0  0  0
  8  3  1  0  0  0
  9 10  1  0  0  0
  9 12  1  0  0  0
 10 11  1  0  0  0
 10  2  1  0  0  0
 19 20  2  0  0  0
 19 21  1  0  0  0
 21 22  1  0  0  0
 24 23  1  0  0  0
 24 25  1  0  0  0
 25 26  1  0  0  0
 25 32  1  0  0  0
 26 27  1  0  0  0
 26 31  1  0  0  0
 27 28  1  0  0  0
 27 30  1  0  0  0
 28 29  1  0  0  0
 28 36  1  0  0  0
 29 24  1  0  0  0
 36 37  1  0  0  0
 11 15  1  0  0  0
 12 16  1  0  0  0
 13 17  1  0  0  0
 37 38  1  0  0  0
 30 33  1  0  0  0
 31 34  1  0  0  0
 32 35  1  0  0  0
 14 18  1  0  0  0
M  END
>  <minimizedAffinity>
-5.69567

>  <minimizedRMSD>
3.64800

$$$$
MolPort-044-810-937 CSSS00160740670 MCULE-7952552690 PubChem-132352280


 38 41  0  0  0  0  0  0  0  0999 V2000
    3.3772   19.2432   73.6190 C   0  0  0  0  0  0  0  0  0  0  0  0
    2.6060   19.0865   72.3330 C   0  0  0  0  0  0  0  0  0  0  0  0
    2.7717   20.0097   71.2762 C   0  0  0  0  0  0  0  0  0  0  0  0
    2.0101   19.8290   70.1269 C   0  0  0  0  0  0  0  0  0  0  0  0
    1.1310   18.8044   69.9994 C   0  0  0  0  0  0  0  0  0  0  0  0
    0.9337   17.8686   71.0109 C   0  0  0  0  0  0  0  0  0  0  0  0
    1.6833   18.0152   72.1931 C   0  0  0  0  0  0  0  0  0  0  0  0
    1.5080   17.0977   73.2230 O   0  0  0  0  0  0  0  0  0  0  0  0
    0.5135   18.8779   68.7671 O   0  0  0  0  0  0  0  0  0  0  0  0
    1.0352   20.0227   68.0769 C   0  0  0  0  0  0  0  0  0  0  0  0
    1.9886   20.5994   68.9820 O   0  0  0  0  0  0  0  0  0  0  0  0
    0.8978   16.3935   73.1243 H   0  0  0  0  0  0  0  0  0  0  0  0
    6.4944   22.2209   73.5302 C   0  0  0  0  0  0  0  0  0  0  0  0
    6.6193   21.0278   72.8004 C   0  0  0  0  0  0  0  0  0  0  0  0
    5.6010   20.0707   72.8356 C   0  0  0  0  0  0  0  0  0  0  0  0
    4.4497   20.2943   73.5979 C   0  0  0  0  0  0  0  0  0  0  0  0
    4.3241   21.4856   74.3270 C   0  0  0  0  0  0  0  0  0  0  0  0
    5.3418   22.4429   74.2911 C   0  0  0  0  0  0  0  0  0  0  0  0
    8.8586   22.8943   73.2455 C   0  0  0  0  0  0  0  0  0  0  0  0
    7.4961   23.1957   73.5172 O   0  0  0  0  0  0  0  0  0  0  0  0
    2.5265   19.2294   74.8965 C   0  0  0  0  0  0  0  0  0  0  0  0
    1.3108   20.0945   74.8200 C   0  0  0  0  0  0  0  0  0  0  0  0
    1.2920   21.1950   75.4298 O   0  0  0  0  0  0  0  0  0  0  0  0
    0.1699   19.6533   74.0827 N   0  0  0  0  0  0  0  0  0  0  0  0
    0.1868   18.7522   73.6864 H   0  0  0  0  0  0  0  0  0  0  0  0
   -1.0169   20.4744   73.8900 C   0  0  0  0  0  0  0  0  0  0  0  0
   -1.7919   20.5784   75.1670 C   0  0  0  0  0  0  0  0  0  0  0  0
   -2.3485   19.5623   75.6637 O   0  0  0  0  0  0  0  0  0  0  0  0
   -1.9059   21.8368   75.8207 N   0  0  0  0  0  0  0  0  0  0  0  0
   -1.4725   22.6325   75.4357 H   0  0  0  0  0  0  0  0  0  0  0  0
   -2.4181   21.9118   76.6581 H   0  0  0  0  0  0  0  0  0  0  0  0
   -1.8731   19.8635   72.7887 C   0  0  0  0  0  0  0  0  0  0  0  0
   -2.2312   20.8786   71.7550 C   0  0  0  0  0  0  0  0  0  0  0  0
   -1.3969   21.0506   70.6442 C   0  0  0  0  0  0  0  0  0  0  0  0
   -1.7245   21.9854   69.6580 C   0  0  0  0  0  0  0  0  0  0  0  0
   -2.8898   22.7495   69.7800 C   0  0  0  0  0  0  0  0  0  0  0  0
   -3.7287   22.5769   70.8870 C   0  0  0  0  0  0  0  0  0  0  0  0
   -3.4032   21.6392   71.8711 C   0  0  0  0  0  0  0  0  0  0  0  0
 19 20  1  0  0  0
 20 13  1  0  0  0
 13 14  2  0  0  0
 14 15  1  0  0  0
 15 16  2  0  0  0
 16 17  1  0  0  0
 17 18  2  0  0  0
 16  1  1  0  0  0
  1 21  1  0  0  0
 21 22  1  0  0  0
 22 23  2  0  0  0
 22 24  1  0  0  0
 26 24  1  0  0  0
 26 32  1  0  0  0
 32 33  1  0  0  0
 33 34  2  0  0  0
 34 35  1  0  0  0
 35 36  2  0  0  0
 36 37  1  0  0  0
 37 38  2  0  0  0
 26 27  1  0  0  0
 27 28  2  0  0  0
 27 29  1  0  0  0
  1  2  1  0  0  0
  2  3  2  0  0  0
  3  4  1  0  0  0
  4  5  2  0  0  0
  5  6  1  0  0  0
  6  7  2  0  0  0
  7  8  1  0  0  0
  5  9  1  0  0  0
  9 10  1  0  0  0
 10 11  1  0  0  0
 18 13  1  0  0  0
 38 33  1  0  0  0
  7  2  1  0  0  0
 11  4  1  0  0  0
 24 25  1  0  0  0
 29 30  1  0  0  0
 29 31  1  0  0  0
  8 12  1  0  0  0
M  END
>  <minimizedAffinity>
-5.65370

>  <minimizedRMSD>
6.16497

$$$$
MolPort-046-795-594 Molport-047-806-688 85994845 CSSS00054665562 MCULE-4376635037 MCULE-9741859931 PubChem-121456123 PubChem-124157583 PubChem-124157584 PubChem-124157612 PubChem-129893478 PubChem-129893509 PubChem-131881835 PubChem-131881837 PubChem-146355928 PubChem-155226445 PubChem-156588918 PubChem-157243619 PubChem-44147907 PubChem-69507 PubChem-87081577 PubChem-87127767 PubChem-87196398 PubChem-87280000 PubChem-87326389 PubChem-87387697 PubChem-87400398 PubChem-87530746 PubChem-87866183 PubChem-87909342 PubChem-87931450 PubChem-88279612 PubChem-88433403 PubChem-88456303 PubChem-88653585 PubChem-90006288 PubChem-90373706 ZINC000085994845


 22 21  0  0  0  0  0  0  0  0999 V2000
    4.5583   19.7408   70.0017 C   0  0  0  0  0  0  0  0  0  0  0  0
    4.0542   18.8986   70.9942 O   0  0  0  0  0  0  0  0  0  0  0  0
    3.7797   19.4283   71.7590 H   0  0  0  0  0  0  0  0  0  0  0  0
    3.4676   20.7130   69.5451 C   0  0  0  0  0  0  0  0  0  0  0  0
    3.9176   21.4839   68.4684 O   0  0  0  0  0  0  0  0  0  0  0  0
    4.1292   20.9030   67.7210 H   0  0  0  0  0  0  0  0  0  0  0  0
    2.1960   19.9534   69.1561 C   0  0  0  0  0  0  0  0  0  0  0  0
    2.1351   19.7474   67.7744 O   0  0  0  0  0  0  0  0  0  0  0  0
    2.0925   20.6040   67.3213 H   0  0  0  0  0  0  0  0  0  0  0  0
    0.9569   20.6477   69.6364 C   0  0  0  0  0  0  0  0  0  0  0  0
    0.5638   20.4485   70.7746 O   0  0  0  0  0  0  0  0  0  0  0  0
    0.1932   21.5729   68.7418 C   0  0  0  0  0  0  0  0  0  0  0  0
   -0.3994   20.8489   67.7058 O   0  0  0  0  0  0  0  0  0  0  0  0
    0.2890   20.4025   67.1883 H   0  0  0  0  0  0  0  0  0  0  0  0
    5.7632   20.4834   70.5590 C   0  0  0  0  0  0  0  0  0  0  0  0
    6.3718   21.2317   69.5489 O   0  0  0  0  0  0  0  0  0  0  0  0
    8.0212   21.2659   69.9408 P   0  0  0  0  0  0  0  0  0  0  0  0
    8.2490   22.1713   71.1307 O   0  0  0  0  0  0  0  0  0  0  0  0
    8.8896   21.8609   68.6177 O   0  0  0  0  0  0  0  0  0  0  0  0
    8.5675   19.7059   70.3050 O   0  0  0  0  0  0  0  0  0  0  0  0
    8.5808   22.7552   68.4040 H   0  0  0  0  0  0  0  0  0  0  0  0
    8.0727   19.3589   71.0638 H   0  0  0  0  0  0  0  0  0  0  0  0
 15 16  1  0  0  0
  1 15  1  0  0  0
  1  4  1  0  0  0
  1  2  1  0  0  0
  4  7  1  0  0  0
  4  5  1  0  0  0
  7 10  1  0  0  0
  7  8  1  0  0  0
 10 11  2  0  0  0
 10 12  1  0  0  0
 12 13  1  0  0  0
 16 17  1  0  0  0
 17 18  2  0  0  0
 17 19  1  0  0  0
 17 20  1  0  0  0
 13 14  1  0  0  0
  8  9  1  0  0  0
  5  6  1  0  0  0
  2  3  1  0  0  0
 19 21  1  0  0  0
 20 22  1  0  0  0
M  END
>  <minimizedAffinity>
-5.64815

>  <minimizedRMSD>
1.44630

$$$$
Molport-049-213-550 MCULE-6798966837 PubChem-22856271


 34 35  0  0  0  0  0  0  0  0999 V2000
    0.6438   19.6726   71.4521 C   0  0  0  0  0  0  0  0  0  0  0  0
    1.8062   20.3930   70.7500 C   0  0  0  0  0  0  0  0  0  0  0  0
    1.2491   21.2609   69.6211 C   0  0  0  0  0  0  0  0  0  0  0  0
    0.3215   20.4619   68.6927 C   0  0  0  0  0  0  0  0  0  0  0  0
   -0.7241   19.7974   69.3892 O   0  0  0  0  0  0  0  0  0  0  0  0
   -0.2307   18.9451   70.4142 C   0  0  0  0  0  0  0  0  0  0  0  0
    0.3979   17.8131   69.8828 O   0  0  0  0  0  0  0  0  0  0  0  0
    2.2759   21.8805   68.9048 O   0  0  0  0  0  0  0  0  0  0  0  0
   -0.1492   20.6153   72.1129 O   0  0  0  0  0  0  0  0  0  0  0  0
    1.1817   18.0847   69.3801 H   0  0  0  0  0  0  0  0  0  0  0  0
    2.8296   21.2046   68.4834 H   0  0  0  0  0  0  0  0  0  0  0  0
    0.3869   21.0839   72.7717 H   0  0  0  0  0  0  0  0  0  0  0  0
    2.1757   17.9873   74.6139 C   0  0  0  0  0  0  0  0  0  0  0  0
    1.6860   19.0566   73.7065 C   0  0  0  0  0  0  0  0  0  0  0  0
    1.7549   20.2608   74.0696 O   0  0  0  0  0  0  0  0  0  0  0  0
    1.1463   18.7055   72.4282 N   0  0  0  0  0  0  0  0  0  0  0  0
    1.1110   17.7509   72.1902 H   0  0  0  0  0  0  0  0  0  0  0  0
    1.0526   19.5534   67.7050 C   0  0  0  0  0  0  0  0  0  0  0  0
    0.1272   18.8402   66.9437 O   0  0  0  0  0  0  0  0  0  0  0  0
   -0.4226   18.2964   67.5293 H   0  0  0  0  0  0  0  0  0  0  0  0
    2.7418   19.4740   70.2512 O   0  0  0  0  0  0  0  0  0  0  0  0
    3.9908   20.0335   70.5298 C   0  0  0  0  0  0  0  0  0  0  0  0
    4.6326   19.3001   71.7170 C   0  0  0  0  0  0  0  0  0  0  0  0
    6.1442   19.1059   71.5369 C   0  0  0  0  0  0  0  0  0  0  0  0
    6.8021   20.2612   70.7704 C   0  0  0  0  0  0  0  0  0  0  0  0
    5.8978   20.8149   69.6537 C   0  0  0  0  0  0  0  0  0  0  0  0
    4.8104   19.9626   69.3908 O   0  0  0  0  0  0  0  0  0  0  0  0
    7.1274   21.2887   71.6556 O   0  0  0  0  0  0  0  0  0  0  0  0
    6.3810   17.9072   70.8634 O   0  0  0  0  0  0  0  0  0  0  0  0
    6.3176   21.6301   72.0663 H   0  0  0  0  0  0  0  0  0  0  0  0
    5.9786   17.9468   69.9816 H   0  0  0  0  0  0  0  0  0  0  0  0
    6.6961   21.0623   68.3827 C   0  0  0  0  0  0  0  0  0  0  0  0
    7.8242   20.2402   68.3443 O   0  0  0  0  0  0  0  0  0  0  0  0
    8.3916   20.4338   69.1069 H   0  0  0  0  0  0  0  0  0  0  0  0
 13 14  1  0  0  0
 14 15  2  0  0  0
 14 16  1  0  0  0
  1 16  1  0  0  0
  1  2  1  0  0  0
  1  9  1  0  0  0
  2  3  1  0  0  0
  2 21  1  0  0  0
  3  4  1  0  0  0
  3  8  1  0  0  0
  4  5  1  0  0  0
  4 18  1  0  0  0
  5  6  1  0  0  0
  6  7  1  0  0  0
  6  1  1  0  0  0
 18 19  1  0  0  0
 22 21  1  0  0  0
 22 23  1  0  0  0
 23 24  1  0  0  0
 24 25  1  0  0  0
 24 29  1  0  0  0
 25 26  1  0  0  0
 25 28  1  0  0  0
 26 27  1  0  0  0
 26 32  1  0  0  0
 27 22  1  0  0  0
 32 33  1  0  0  0
 16 17  1  0  0  0
  7 10  1  0  0  0
 19 20  1  0  0  0
  8 11  1  0  0  0
 33 34  1  0  0  0
 28 30  1  0  0  0
 29 31  1  0  0  0
  9 12  1  0  0  0
M  END
>  <minimizedAffinity>
-5.61222

>  <minimizedRMSD>
3.06857

$$$$
MolPort-003-983-436 MolPort-005-934-296 MolPort-046-162-790 Molport-046-866-406 CHEMBL329592 CHEMBL383887 CHEMBL413187 CSSS00102519291 MCULE-1171103531 MCULE-3498812677 MCULE-9971211080 PubChem-159414369 PubChem-3467 PubChem-44134730 PubChem-44134731 PubChem-44361906 PubChem-457186 PubChem-57369621 PubChem-72956225 PubChem-73150451 PubChem-74331877 PubChem-75311183 PubChem-76419161 PubChem-77146878 PubChem-78092782 PubChem-78161629 PubChem-78184738 PubChem-78186206 PubChem-85077904


 44 46  0  0  0  0  0  0  0  0999 V2000
    4.2711   20.6668   69.6713 C   0  0  0  0  0  0  0  0  0  0  0  0
    4.0103   19.5777   70.7227 C   0  0  0  0  0  0  0  0  0  0  0  0
    4.2535   18.2472   70.1854 N   0  0  0  0  0  0  0  0  0  0  0  0
    2.5918   19.6822   71.2940 C   0  0  0  0  0  0  0  0  0  0  0  0
    1.5075   19.7334   70.2117 C   0  0  0  0  0  0  0  0  0  0  0  0
    1.3377   18.4287   69.5895 N   0  0  0  0  0  0  0  0  0  0  0  0
    1.8095   20.8203   69.1695 C   0  0  0  0  0  0  0  0  0  0  0  0
    3.2124   20.6939   68.5628 C   0  0  0  0  0  0  0  0  0  0  0  0
    3.3087   19.5635   67.7451 O   0  0  0  0  0  0  0  0  0  0  0  0
    3.6057   18.0667   69.4184 H   0  0  0  0  0  0  0  0  0  0  0  0
    4.1131   17.5532   70.9195 H   0  0  0  0  0  0  0  0  0  0  0  0
    2.2073   18.1543   69.1324 H   0  0  0  0  0  0  0  0  0  0  0  0
    0.5902   18.4769   68.8972 H   0  0  0  0  0  0  0  0  0  0  0  0
    3.1509   18.7666   68.2752 H   0  0  0  0  0  0  0  0  0  0  0  0
    5.5540   20.5414   69.1288 O   0  0  0  0  0  0  0  0  0  0  0  0
    7.4614   20.1386   72.0052 C   0  0  0  0  0  0  0  0  0  0  0  0
    8.5943   21.1842   71.8999 C   0  0  0  0  0  0  0  0  0  0  0  0
    8.8281   21.6410   70.4566 C   0  0  0  0  0  0  0  0  0  0  0  0
    7.5156   21.8808   69.7029 C   0  0  0  0  0  0  0  0  0  0  0  0
    7.7656   21.7604   68.2753 N   0  0  0  0  0  0  0  0  0  0  0  0
    6.4208   20.8960   70.1680 C   0  0  0  0  0  0  0  0  0  0  0  0
    6.9959   19.7464   70.7333 O   0  0  0  0  0  0  0  0  0  0  0  0
    8.1081   20.8223   68.0680 H   0  0  0  0  0  0  0  0  0  0  0  0
    8.4646   22.4476   67.9934 H   0  0  0  0  0  0  0  0  0  0  0  0
    7.9246   18.9179   72.7975 C   0  0  0  0  0  0  0  0  0  0  0  0
    8.6590   19.3499   74.0565 C   0  0  0  0  0  0  0  0  0  0  0  0
    7.2429   17.1583   74.1760 C   0  0  0  0  0  0  0  0  0  0  0  0
    6.7802   18.1032   73.1745 N   0  0  0  0  0  0  0  0  0  0  0  0
    6.0435   18.6923   73.5627 H   0  0  0  0  0  0  0  0  0  0  0  0
    0.8336   20.8364   68.1675 O   0  0  0  0  0  0  0  0  0  0  0  0
   -0.1775   21.6639   68.6627 C   0  0  0  0  0  0  0  0  0  0  0  0
   -0.9034   20.9858   69.6586 O   0  0  0  0  0  0  0  0  0  0  0  0
   -1.7003   21.9506   70.3030 C   0  0  0  0  0  0  0  0  0  0  0  0
   -2.8244   22.4222   69.3732 C   0  0  0  0  0  0  0  0  0  0  0  0
   -3.6792   23.4477   70.0995 C   0  0  0  0  0  0  0  0  0  0  0  0
   -3.6351   21.3342   69.0442 O   0  0  0  0  0  0  0  0  0  0  0  0
   -2.2135   23.0140   68.0818 C   0  0  0  0  0  0  0  0  0  0  0  0
   -1.1096   22.1042   67.5232 C   0  0  0  0  0  0  0  0  0  0  0  0
   -1.6757   20.9917   66.8961 O   0  0  0  0  0  0  0  0  0  0  0  0
   -4.0195   20.9612   69.8529 H   0  0  0  0  0  0  0  0  0  0  0  0
   -2.1982   20.4885   67.5401 H   0  0  0  0  0  0  0  0  0  0  0  0
   -1.6632   24.3442   68.3194 N   0  0  0  0  0  0  0  0  0  0  0  0
   -0.9919   24.7553   67.0986 C   0  0  0  0  0  0  0  0  0  0  0  0
   -0.9972   24.3142   69.0914 H   0  0  0  0  0  0  0  0  0  0  0  0
 27 28  1  0  0  0
 25 28  1  0  0  0
 25 26  1  0  0  0
 25 16  1  0  0  0
 16 17  1  0  0  0
 17 18  1  0  0  0
 18 19  1  0  0  0
 19 20  1  0  0  0
 19 21  1  0  0  0
 21 15  1  0  0  0
 21 22  1  0  0  0
  1 15  1  0  0  0
  1  2  1  0  0  0
  2  3  1  0  0  0
  2  4  1  0  0  0
  4  5  1  0  0  0
  5  6  1  0  0  0
  5  7  1  0  0  0
  7 30  1  0  0  0
  7  8  1  0  0  0
 31 30  1  0  0  0
 31 32  1  0  0  0
 32 33  1  0  0  0
 33 34  1  0  0  0
 34 35  1  0  0  0
 34 36  1  0  0  0
 34 37  1  0  0  0
 37 42  1  0  0  0
 37 38  1  0  0  0
 42 43  1  0  0  0
 38 39  1  0  0  0
 38 31  1  0  0  0
  8  9  1  0  0  0
  8  1  1  0  0  0
 22 16  1  0  0  0
 28 29  1  0  0  0
 20 23  1  0  0  0
 20 24  1  0  0  0
  3 10  1  0  0  0
  3 11  1  0  0  0
  6 12  1  0  0  0
  6 13  1  0  0  0
 36 40  1  0  0  0
 42 44  1  0  0  0
 39 41  1  0  0  0
  9 14  1  0  0  0
M  END
>  <minimizedAffinity>
-5.60948

>  <minimizedRMSD>
3.44913

$$$$
MolPort-046-612-019 MCULE-1345557191 PubChem-137904404


 28 29  0  0  0  0  0  0  0  0999 V2000
    6.2190   20.0236   71.6778 N   0  0  0  0  0  0  0  0  0  0  0  0
    4.7796   19.9666   71.8894 C   0  0  0  0  0  0  0  0  0  0  0  0
    4.4829   19.7774   73.3707 C   0  0  0  0  0  0  0  0  0  0  0  0
    4.4861   21.0946   74.1041 C   0  0  0  0  0  0  0  0  0  0  0  0
    3.4843   21.4420   74.7846 O   0  0  0  0  0  0  0  0  0  0  0  0
    5.6185   21.9720   74.0545 N   0  0  0  0  0  0  0  0  0  0  0  0
    6.8869   21.7059   73.3783 C   0  0  0  0  0  0  0  0  0  0  0  0
    7.6490   20.5898   74.0882 C   0  0  0  0  0  0  0  0  0  0  0  0
    8.7624   21.2563   74.8633 C   0  0  0  0  0  0  0  0  0  0  0  0
    9.0721   22.5170   74.0953 C   0  0  0  0  0  0  0  0  0  0  0  0
    7.7555   22.9484   73.4847 C   0  0  0  0  0  0  0  0  0  0  0  0
    6.6670   21.3974   71.8928 C   0  0  0  0  0  0  0  0  0  0  0  0
    5.5340   22.8355   74.5198 H   0  0  0  0  0  0  0  0  0  0  0  0
    3.2332   19.0392   73.5574 N   0  0  0  0  0  0  0  0  0  0  0  0
    2.2667   18.7927   72.5295 C   0  0  0  0  0  0  0  0  0  0  0  0
    2.4639   19.2043   71.3536 O   0  0  0  0  0  0  0  0  0  0  0  0
    1.0776   18.0698   72.8494 N   0  0  0  0  0  0  0  0  0  0  0  0
    3.0426   18.6858   74.4563 H   0  0  0  0  0  0  0  0  0  0  0  0
    0.9729   17.7121   73.7606 H   0  0  0  0  0  0  0  0  0  0  0  0
    0.0115   17.8400   71.8804 C   0  0  0  0  0  0  0  0  0  0  0  0
   -1.1305   18.8412   72.0460 C   0  0  0  0  0  0  0  0  0  0  0  0
   -0.9832   20.0261   71.1099 C   0  0  0  0  0  0  0  0  0  0  0  0
   -1.2435   19.3160   73.4829 C   0  0  0  0  0  0  0  0  0  0  0  0
    6.5192   19.6307   70.0152 S   0  0  0  0  0  0  0  0  0  0  0  0
    5.8922   18.3015   69.6981 O   0  0  0  0  0  0  0  0  0  0  0  0
    8.0026   19.5381   69.7871 O   0  0  0  0  0  0  0  0  0  0  0  0
    4.5897   20.3502   68.2534 C   0  0  0  0  0  0  0  0  0  0  0  0
    5.8330   20.8790   68.9397 C   0  0  0  0  0  0  0  0  0  0  0  0
 27 28  1  0  0  0
 28 24  1  0  0  0
 24 25  2  0  0  0
 24 26  2  0  0  0
 24  1  1  0  0  0
  1  2  1  0  0  0
  2  3  1  0  0  0
  3 14  1  0  0  0
 14 15  1  0  0  0
 15 16  2  0  0  0
 15 17  1  0  0  0
 17 20  1  0  0  0
 20 21  1  0  0  0
 21 22  1  0  0  0
 21 23  1  0  0  0
  3  4  1  0  0  0
  4  5  2  0  0  0
  4  6  1  0  0  0
  6  7  1  0  0  0
  7  8  1  0  0  0
  8  9  1  0  0  0
  9 10  1  0  0  0
 10 11  1  0  0  0
  7 12  1  0  0  0
 12  1  1  0  0  0
 11  7  1  0  0  0
 14 18  1  0  0  0
 17 19  1  0  0  0
  6 13  1  0  0  0
M  END
>  <minimizedAffinity>
-5.60338

>  <minimizedRMSD>
4.43948

$$$$
Molport-052-063-400


 36 35  0  0  0  0  0  0  0  0999 V2000
    0.1341   21.1791   69.6632 C   0  0  0  0  0  0  0  0  0  0  0  0
   -1.1771   21.8143   70.0695 C   0  0  0  0  0  0  0  0  0  0  0  0
   -1.3128   23.0584   69.9358 O   0  0  0  0  0  0  0  0  0  0  0  0
   -2.2731   21.0126   70.5468 N   0  0  0  0  0  0  0  0  0  0  0  0
   -2.1348   19.9797   70.6209 H   0  0  0  0  0  0  0  0  0  0  0  0
   -3.6150   21.5215   70.8628 C   0  0  0  0  0  0  0  0  0  0  0  0
   -3.6323   22.2157   72.1964 C   0  0  0  0  0  0  0  0  0  0  0  0
   -4.7785   22.8838   72.6098 O   0  0  0  0  0  0  0  0  0  0  0  0
   -2.6168   22.2062   72.9434 O   0  0  0  0  0  0  0  0  0  0  0  0
   -4.8054   23.3727   73.4971 H   0  0  0  0  0  0  0  0  0  0  0  0
   -4.1635   22.4208   69.7350 C   0  0  0  0  0  0  0  0  0  0  0  0
   -5.5780   22.0091   69.3099 C   0  0  0  0  0  0  0  0  0  0  0  0
   -5.7157   22.0714   67.8218 C   0  0  0  0  0  0  0  0  0  0  0  0
   -6.2679   20.9960   67.1284 O   0  0  0  0  0  0  0  0  0  0  0  0
   -5.3051   23.0828   67.1909 O   0  0  0  0  0  0  0  0  0  0  0  0
   -6.3311   21.0128   66.1184 H   0  0  0  0  0  0  0  0  0  0  0  0
    0.3183   19.6804   67.5301 C   0  0  0  0  0  0  0  0  0  0  0  0
    0.2969   21.1106   68.1063 C   0  0  0  0  0  0  0  0  0  0  0  0
   -0.7977   21.9313   67.4022 C   0  0  0  0  0  0  0  0  0  0  0  0
    0.2720   19.8634   70.3266 N   0  0  0  0  0  0  0  0  0  0  0  0
    0.1269   19.0646   69.6698 H   0  0  0  0  0  0  0  0  0  0  0  0
    1.5306   19.6881   71.0721 C   0  0  0  0  0  0  0  0  0  0  0  0
    2.6640   19.2470   70.1759 C   0  0  0  0  0  0  0  0  0  0  0  0
    2.5666   18.1901   69.5711 O   0  0  0  0  0  0  0  0  0  0  0  0
    3.9333   20.0582   70.0347 C   0  0  0  0  0  0  0  0  0  0  0  0
    3.6440   21.4191   70.2363 O   0  0  0  0  0  0  0  0  0  0  0  0
    4.3956   21.9317   69.8361 H   0  0  0  0  0  0  0  0  0  0  0  0
    5.0395   19.5940   71.0182 C   0  0  0  0  0  0  0  0  0  0  0  0
    4.4552   19.0596   72.1812 O   0  0  0  0  0  0  0  0  0  0  0  0
    4.2331   19.8223   72.7755 H   0  0  0  0  0  0  0  0  0  0  0  0
    5.9944   18.5422   70.3904 C   0  0  0  0  0  0  0  0  0  0  0  0
    5.7436   18.3882   69.0151 O   0  0  0  0  0  0  0  0  0  0  0  0
    5.8759   19.2716   68.5802 H   0  0  0  0  0  0  0  0  0  0  0  0
    7.4776   18.8976   70.6037 C   0  0  0  0  0  0  0  0  0  0  0  0
    7.6594   19.5247   71.8449 O   0  0  0  0  0  0  0  0  0  0  0  0
    8.6361   19.6900   71.9306 H   0  0  0  0  0  0  0  0  0  0  0  0
 17 18  1  0  0  0
 18 19  1  0  0  0
 18  1  1  0  0  0
  1 20  1  0  0  0
 20 22  1  0  0  0
 22 23  1  0  0  0
 23 24  2  0  0  0
 23 25  1  0  0  0
 25 26  1  0  0  0
 25 28  1  0  0  0
 28 29  1  0  0  0
 28 31  1  0  0  0
 31 32  1  0  0  0
 31 34  1  0  0  0
 34 35  1  0  0  0
  1  2  1  0  0  0
  2  3  2  0  0  0
  2  4  1  0  0  0
  4  6  1  0  0  0
  6 11  1  0  0  0
 11 12  1  0  0  0
 12 13  1  0  0  0
 13 14  1  0  0  0
 13 15  2  0  0  0
  6  7  1  0  0  0
  7  8  1  0  0  0
  7  9  2  0  0  0
 20 21  1  0  0  0
 26 27  1  0  0  0
 29 30  1  0  0  0
 32 33  1  0  0  0
 35 36  1  0  0  0
  4  5  1  0  0  0
 14 16  1  0  0  0
  8 10  1  0  0  0
M  END
>  <minimizedAffinity>
-5.59366

>  <minimizedRMSD>
3.10671

$$$$
MolPort-002-624-583 LN00652301 PubChem-9679555


 25 24  0  0  0  0  0  0  0  0999 V2000
    2.1950   20.5001   69.1421 C   0  0  0  0  0  0  0  0  0  0  0  0
    2.7707   21.6635   69.6632 O   0  0  0  0  0  0  0  0  0  0  0  0
    2.5418   21.7448   70.6023 H   0  0  0  0  0  0  0  0  0  0  0  0
    0.6683   20.5898   69.2622 C   0  0  0  0  0  0  0  0  0  0  0  0
    0.0624   19.5672   68.5292 O   0  0  0  0  0  0  0  0  0  0  0  0
    0.2940   19.6603   67.5919 H   0  0  0  0  0  0  0  0  0  0  0  0
   -0.7502   22.5428   69.3907 N   0  0  0  0  0  0  0  0  0  0  0  0
    0.1731   21.9035   68.7539 C   0  0  0  0  0  0  0  0  0  0  0  0
   -1.2099   23.7741   68.9082 N   0  0  0  0  0  0  0  0  0  0  0  0
   -0.9350   24.6006   69.3669 H   0  0  0  0  0  0  0  0  0  0  0  0
   -1.5735   24.4430   66.5668 N   0  0  0  0  0  0  0  0  0  0  0  0
   -2.0668   23.8645   67.7686 C   0  0  0  0  0  0  0  0  0  0  0  0
   -3.6077   23.3130   67.8211 S   0  0  0  0  0  0  0  0  0  0  0  0
   -2.1571   24.5093   65.7767 H   0  0  0  0  0  0  0  0  0  0  0  0
   -0.6484   24.7772   66.5249 H   0  0  0  0  0  0  0  0  0  0  0  0
    2.7556   19.2708   69.8830 C   0  0  0  0  0  0  0  0  0  0  0  0
    2.4213   18.0914   69.2135 O   0  0  0  0  0  0  0  0  0  0  0  0
    2.8444   18.0840   68.3407 H   0  0  0  0  0  0  0  0  0  0  0  0
    4.2754   19.3053   70.1033 C   0  0  0  0  0  0  0  0  0  0  0  0
    4.6390   20.3335   70.9741 O   0  0  0  0  0  0  0  0  0  0  0  0
    4.4189   21.1892   70.5739 H   0  0  0  0  0  0  0  0  0  0  0  0
    5.0650   19.3857   68.8341 C   0  0  0  0  0  0  0  0  0  0  0  0
    5.2957   20.6101   68.2189 O   0  0  0  0  0  0  0  0  0  0  0  0
    5.5391   18.3355   68.3292 O   0  0  0  0  0  0  0  0  0  0  0  0
    4.9446   21.3950   68.5912 H   0  0  0  0  0  0  0  0  0  0  0  0
 11 12  1  0  0  0
 12 13  2  0  0  0
 12  9  1  0  0  0
  9  7  1  0  0  0
  7  8  2  0  0  0
  4  8  1  0  0  0
  4  5  1  0  0  0
  4  1  1  0  0  0
  1  2  1  0  0  0
  1 16  1  0  0  0
 16 17  1  0  0  0
 16 19  1  0  0  0
 19 20  1  0  0  0
 19 22  1  0  0  0
 22 23  1  0  0  0
 22 24  2  0  0  0
 11 14  1  0  0  0
 11 15  1  0  0  0
  9 10  1  0  0  0
  5  6  1  0  0  0
  2  3  1  0  0  0
 17 18  1  0  0  0
 20 21  1  0  0  0
 23 25  1  0  0  0
M  END
>  <minimizedAffinity>
-5.56449

>  <minimizedRMSD>
2.30555

$$$$
MolPort-020-015-944 CHEMBL1563661 MCULE-4196310117 PubChem-16760222


 26 26  0  0  0  0  0  0  0  0999 V2000
    3.2145   19.7462   70.1692 C   0  0  0  0  0  0  0  0  0  0  0  0
    4.2795   19.2977   69.1706 C   0  0  0  0  0  0  0  0  0  0  0  0
    5.6372   19.9343   69.4677 C   0  0  0  0  0  0  0  0  0  0  0  0
    5.5489   21.3185   69.2817 O   0  0  0  0  0  0  0  0  0  0  0  0
    6.0588   19.6114   70.9162 C   0  0  0  0  0  0  0  0  0  0  0  0
    7.2600   20.2511   71.2354 O   0  0  0  0  0  0  0  0  0  0  0  0
    4.9820   20.0164   71.9290 C   0  0  0  0  0  0  0  0  0  0  0  0
    5.3756   19.6250   73.2102 O   0  0  0  0  0  0  0  0  0  0  0  0
    3.6374   19.3736   71.5889 C   0  0  0  0  0  0  0  0  0  0  0  0
    2.6702   19.8122   72.4960 O   0  0  0  0  0  0  0  0  0  0  0  0
    5.2833   21.5057   68.3678 H   0  0  0  0  0  0  0  0  0  0  0  0
    7.1383   21.2120   71.1837 H   0  0  0  0  0  0  0  0  0  0  0  0
    5.4781   18.6608   73.2365 H   0  0  0  0  0  0  0  0  0  0  0  0
    2.5847   20.7766   72.4363 H   0  0  0  0  0  0  0  0  0  0  0  0
    6.6359   19.3470   68.4736 C   0  0  0  0  0  0  0  0  0  0  0  0
    7.7335   20.1928   68.2969 O   0  0  0  0  0  0  0  0  0  0  0  0
    7.4316   21.0453   67.9461 H   0  0  0  0  0  0  0  0  0  0  0  0
    1.9500   19.1043   69.8436 N   0  0  0  0  0  0  0  0  0  0  0  0
    2.0920   18.4007   69.1189 H   0  0  0  0  0  0  0  0  0  0  0  0
    1.0514   20.1403   69.3621 C   0  0  0  0  0  0  0  0  0  0  0  0
   -0.1074   20.8611   67.3967 O   0  0  0  0  0  0  0  0  0  0  0  0
    0.5824   19.7864   67.9584 C   0  0  0  0  0  0  0  0  0  0  0  0
   -0.4015   20.6250   66.5030 H   0  0  0  0  0  0  0  0  0  0  0  0
   -0.1324   20.2493   70.3093 C   0  0  0  0  0  0  0  0  0  0  0  0
   -0.5442   21.5783   70.4136 O   0  0  0  0  0  0  0  0  0  0  0  0
    0.1848   22.1165   70.7596 H   0  0  0  0  0  0  0  0  0  0  0  0
 21 22  1  0  0  0
 22 20  1  0  0  0
 20 24  1  0  0  0
 20 18  1  0  0  0
 24 25  1  0  0  0
  1 18  1  0  0  0
  1  2  1  0  0  0
  2  3  1  0  0  0
  3  4  1  0  0  0
  3 15  1  0  0  0
  3  5  1  0  0  0
 15 16  1  0  0  0
  5  6  1  0  0  0
  5  7  1  0  0  0
  7  8  1  0  0  0
  7  9  1  0  0  0
  9 10  1  0  0  0
  9  1  1  0  0  0
 21 23  1  0  0  0
 25 26  1  0  0  0
 18 19  1  0  0  0
  4 11  1  0  0  0
 16 17  1  0  0  0
  6 12  1  0  0  0
  8 13  1  0  0  0
 10 14  1  0  0  0
M  END
>  <minimizedAffinity>
-5.56069

>  <minimizedRMSD>
1.86330

$$$$
MolPort-002-512-133 CSSS00160808313 MCULE-7698843292 PubChem-16396482


 32 32  0  0  0  0  0  0  0  0999 V2000
    0.8295   21.3116   69.0349 C   0  0  0  0  0  0  0  0  0  0  0  0
   -0.2164   21.8957   68.0826 C   0  0  0  0  0  0  0  0  0  0  0  0
   -0.9525   20.8714   67.4814 O   0  0  0  0  0  0  0  0  0  0  0  0
   -1.4406   20.3819   68.1618 H   0  0  0  0  0  0  0  0  0  0  0  0
   -1.1440   22.9187   68.7523 C   0  0  0  0  0  0  0  0  0  0  0  0
   -1.7021   22.3770   69.9146 O   0  0  0  0  0  0  0  0  0  0  0  0
   -2.2352   21.5997   69.6855 H   0  0  0  0  0  0  0  0  0  0  0  0
   -2.2511   23.3739   67.7988 C   0  0  0  0  0  0  0  0  0  0  0  0
   -3.1837   24.1466   68.4926 O   0  0  0  0  0  0  0  0  0  0  0  0
   -2.7471   24.9344   68.8526 H   0  0  0  0  0  0  0  0  0  0  0  0
   -1.4655   23.4099   65.5379 O   0  0  0  0  0  0  0  0  0  0  0  0
   -1.6827   24.2086   66.6608 C   0  0  0  0  0  0  0  0  0  0  0  0
   -1.1035   23.9527   64.8201 H   0  0  0  0  0  0  0  0  0  0  0  0
    2.0952   22.1558   69.0222 C   0  0  0  0  0  0  0  0  0  0  0  0
    3.0810   21.5472   69.7990 O   0  0  0  0  0  0  0  0  0  0  0  0
    2.7662   21.4623   70.7126 H   0  0  0  0  0  0  0  0  0  0  0  0
    0.3260   21.2102   70.3373 O   0  0  0  0  0  0  0  0  0  0  0  0
    0.0282   19.8512   70.5110 C   0  0  0  0  0  0  0  0  0  0  0  0
    1.0615   19.0382   69.9849 O   0  0  0  0  0  0  0  0  0  0  0  0
    2.1336   19.0368   70.8973 C   0  0  0  0  0  0  0  0  0  0  0  0
    1.7987   18.1834   72.1281 C   0  0  0  0  0  0  0  0  0  0  0  0
    2.5244   18.6444   73.2266 O   0  0  0  0  0  0  0  0  0  0  0  0
    0.2995   18.2146   72.4495 C   0  0  0  0  0  0  0  0  0  0  0  0
   -0.3292   17.1206   71.8537 O   0  0  0  0  0  0  0  0  0  0  0  0
   -0.3627   19.5119   71.9747 C   0  0  0  0  0  0  0  0  0  0  0  0
   -0.0240   20.5528   72.8436 O   0  0  0  0  0  0  0  0  0  0  0  0
    2.2755   19.5626   73.4162 H   0  0  0  0  0  0  0  0  0  0  0  0
   -0.2266   17.1737   70.8906 H   0  0  0  0  0  0  0  0  0  0  0  0
    0.9377   20.6794   72.8371 H   0  0  0  0  0  0  0  0  0  0  0  0
    3.4046   18.5448   70.2199 C   0  0  0  0  0  0  0  0  0  0  0  0
    3.4358   18.9468   68.8829 O   0  0  0  0  0  0  0  0  0  0  0  0
    2.6732   18.5723   68.4148 H   0  0  0  0  0  0  0  0  0  0  0  0
 11 12  1  0  0  0
  8 12  1  0  0  0
  8  9  1  0  0  0
  8  5  1  0  0  0
  5  6  1  0  0  0
  5  2  1  0  0  0
  2  3  1  0  0  0
  2  1  1  0  0  0
  1 14  1  0  0  0
  1 17  1  0  0  0
 14 15  1  0  0  0
 18 17  1  0  0  0
 18 19  1  0  0  0
 19 20  1  0  0  0
 20 30  1  0  0  0
 20 21  1  0  0  0
 30 31  1  0  0  0
 21 22  1  0  0  0
 21 23  1  0  0  0
 23 24  1  0  0  0
 23 25  1  0  0  0
 25 26  1  0  0  0
 25 18  1  0  0  0
 11 13  1  0  0  0
  9 10  1  0  0  0
  6  7  1  0  0  0
  3  4  1  0  0  0
 15 16  1  0  0  0
 31 32  1  0  0  0
 22 27  1  0  0  0
 24 28  1  0  0  0
 26 29  1  0  0  0
M  END
>  <minimizedAffinity>
-5.54504

>  <minimizedRMSD>
3.53144

$$$$
MolPort-003-941-077 MCULE-3584608395 PubChem-3294434


 33 33  0  0  0  0  0  0  0  0999 V2000
    2.7364   20.0915   71.3639 O   0  0  0  0  0  0  0  0  0  0  0  0
    2.0044   20.0332   70.1762 C   0  0  0  0  0  0  0  0  0  0  0  0
    1.2574   18.6939   70.0916 C   0  0  0  0  0  0  0  0  0  0  0  0
   -0.1511   18.8449   69.4991 C   0  0  0  0  0  0  0  0  0  0  0  0
   -0.2448   19.9648   68.4522 C   0  0  0  0  0  0  0  0  0  0  0  0
    0.6652   21.1622   68.7829 C   0  0  0  0  0  0  0  0  0  0  0  0
    1.1100   21.1144   70.1164 O   0  0  0  0  0  0  0  0  0  0  0  0
    0.0881   19.4621   67.1945 O   0  0  0  0  0  0  0  0  0  0  0  0
   -1.0610   19.0947   70.5268 O   0  0  0  0  0  0  0  0  0  0  0  0
    1.9995   17.7972   69.3235 O   0  0  0  0  0  0  0  0  0  0  0  0
    1.0051   19.1459   67.2051 H   0  0  0  0  0  0  0  0  0  0  0  0
   -0.8328   19.9295   70.9648 H   0  0  0  0  0  0  0  0  0  0  0  0
    2.0954   18.1450   68.4231 H   0  0  0  0  0  0  0  0  0  0  0  0
   -0.0466   22.4491   68.5095 C   0  0  0  0  0  0  0  0  0  0  0  0
   -0.0907   22.9043   67.3366 O   0  0  0  0  0  0  0  0  0  0  0  0
   -0.6507   23.1566   69.5423 O   0  0  0  0  0  0  0  0  0  0  0  0
   -0.6219   22.8238   70.4177 H   0  0  0  0  0  0  0  0  0  0  0  0
    4.0279   20.4598   70.9744 C   0  0  0  0  0  0  0  0  0  0  0  0
    4.6743   19.3364   70.1432 C   0  0  0  0  0  0  0  0  0  0  0  0
    5.4879   18.5240   70.9382 O   0  0  0  0  0  0  0  0  0  0  0  0
    6.2224   19.0495   71.2921 H   0  0  0  0  0  0  0  0  0  0  0  0
    5.4426   19.8623   68.9320 C   0  0  0  0  0  0  0  0  0  0  0  0
    4.5486   20.2168   67.9192 O   0  0  0  0  0  0  0  0  0  0  0  0
    4.0412   19.4359   67.6479 H   0  0  0  0  0  0  0  0  0  0  0  0
    6.3799   18.8187   68.4165 C   0  0  0  0  0  0  0  0  0  0  0  0
    7.1618   19.0831   67.5180 O   0  0  0  0  0  0  0  0  0  0  0  0
    4.8371   20.9663   72.1842 C   0  0  0  0  0  0  0  0  0  0  0  0
    6.2070   20.7954   71.9744 O   0  0  0  0  0  0  0  0  0  0  0  0
    6.4077   19.8490   71.9043 H   0  0  0  0  0  0  0  0  0  0  0  0
    4.4140   20.3704   73.4942 C   0  0  0  0  0  0  0  0  0  0  0  0
    3.9631   21.1122   74.4058 O   0  0  0  0  0  0  0  0  0  0  0  0
    4.5308   19.0037   73.7184 O   0  0  0  0  0  0  0  0  0  0  0  0
    4.8656   18.4453   73.0445 H   0  0  0  0  0  0  0  0  0  0  0  0
 25 26  2  0  0  0
 22 25  1  0  0  0
 22 19  1  0  0  0
 22 23  1  0  0  0
 19 18  1  0  0  0
 19 20  1  0  0  0
 18 27  1  0  0  0
 18  1  1  0  0  0
 27 30  1  0  0  0
 27 28  1  0  0  0
 30 31  2  0  0  0
 30 32  1  0  0  0
  2  1  1  0  0  0
  2  3  1  0  0  0
  3  4  1  0  0  0
  3 10  1  0  0  0
  4  5  1  0  0  0
  4  9  1  0  0  0
  5  6  1  0  0  0
  5  8  1  0  0  0
  6  7  1  0  0  0
  6 14  1  0  0  0
  7  2  1  0  0  0
 14 15  2  0  0  0
 14 16  1  0  0  0
 32 33  1  0  0  0
 28 29  1  0  0  0
 16 17  1  0  0  0
  8 11  1  0  0  0
  9 12  1  0  0  0
 10 13  1  0  0  0
 20 21  1  0  0  0
 23 24  1  0  0  0
M  END
>  <minimizedAffinity>
-5.52380

>  <minimizedRMSD>
2.07412

$$$$
MolPort-039-140-942 MolPort-046-764-222 LN02062726 MCULE-2549154362 MCULE-2573337513 MCULE-2985122441 MCULE-5032082497 MCULE-7914325874 MCULE-9698227460 PubChem-29269 PubChem-71773512


 23 22  0  0  0  0  0  0  0  0999 V2000
    1.8324   18.6468   68.8720 C   0  0  0  0  0  0  0  0  0  0  0  0
    1.6839   19.8581   68.0839 N   0  0  0  0  0  0  0  0  0  0  0  0
    2.2201   19.7826   67.2195 H   0  0  0  0  0  0  0  0  0  0  0  0
    0.2689   19.9925   67.7847 C   0  0  0  0  0  0  0  0  0  0  0  0
   -0.1233   21.4613   67.7584 C   0  0  0  0  0  0  0  0  0  0  0  0
   -1.4898   21.5812   67.2783 N   0  0  0  0  0  0  0  0  0  0  0  0
   -2.1165   21.0797   67.9077 H   0  0  0  0  0  0  0  0  0  0  0  0
   -1.5574   21.1821   66.3420 H   0  0  0  0  0  0  0  0  0  0  0  0
    0.0115   22.0758   69.1201 C   0  0  0  0  0  0  0  0  0  0  0  0
    1.1400   22.1258   69.6761 O   0  0  0  0  0  0  0  0  0  0  0  0
   -1.0946   22.6083   69.7732 O   0  0  0  0  0  0  0  0  0  0  0  0
   -1.9387   22.5758   69.3676 H   0  0  0  0  0  0  0  0  0  0  0  0
    2.9506   18.8211   69.8825 C   0  0  0  0  0  0  0  0  0  0  0  0
    4.2952   18.5555   69.2284 C   0  0  0  0  0  0  0  0  0  0  0  0
    5.4311   19.0477   70.1183 C   0  0  0  0  0  0  0  0  0  0  0  0
    5.6557   20.5614   70.0484 C   0  0  0  0  0  0  0  0  0  0  0  0
    4.6271   21.2869   70.7758 N   0  0  0  0  0  0  0  0  0  0  0  0
    3.7207   21.1222   70.3379 H   0  0  0  0  0  0  0  0  0  0  0  0
    4.8373   22.2848   70.7574 H   0  0  0  0  0  0  0  0  0  0  0  0
    5.7606   21.0634   68.6443 C   0  0  0  0  0  0  0  0  0  0  0  0
    6.8869   21.1201   68.0867 O   0  0  0  0  0  0  0  0  0  0  0  0
    4.6292   21.4837   67.9551 O   0  0  0  0  0  0  0  0  0  0  0  0
    3.7882   21.4434   68.3663 H   0  0  0  0  0  0  0  0  0  0  0  0
 14 13  1  0  0  0
 14 15  1  0  0  0
 13  1  1  0  0  0
  1  2  1  0  0  0
  2  4  1  0  0  0
  5  4  1  0  0  0
  5  9  1  0  0  0
  5  6  1  0  0  0
  9 10  2  0  0  0
  9 11  1  0  0  0
 16 15  1  0  0  0
 16 20  1  0  0  0
 16 17  1  0  0  0
 20 21  2  0  0  0
 20 22  1  0  0  0
  2  3  1  0  0  0
 11 12  1  0  0  0
  6  7  1  0  0  0
  6  8  1  0  0  0
 22 23  1  0  0  0
 17 18  1  0  0  0
 17 19  1  0  0  0
M  END
>  <minimizedAffinity>
-5.51709

>  <minimizedRMSD>
0.84935

$$$$
MolPort-028-750-692 CHEMBL4280954 MCULE-6018077328 PubChem-131718406 PubChem-131741647 PubChem-439197 PubChem-86665969 PubChem-86745271


 28 28  0  0  0  0  0  0  0  0999 V2000
    3.0734   18.8665   70.3736 C   0  0  0  0  0  0  0  0  0  0  0  0
    4.5215   18.3788   70.4025 C   0  0  0  0  0  0  0  0  0  0  0  0
    5.4424   19.4234   71.0348 C   0  0  0  0  0  0  0  0  0  0  0  0
    5.2469   20.8343   70.4288 C   0  0  0  0  0  0  0  0  0  0  0  0
    4.0808   20.9418   69.6210 O   0  0  0  0  0  0  0  0  0  0  0  0
    2.9711   20.4031   70.3020 C   0  0  0  0  0  0  0  0  0  0  0  0
    5.1868   21.7704   71.4645 O   0  0  0  0  0  0  0  0  0  0  0  0
    4.9418   18.1036   69.1010 O   0  0  0  0  0  0  0  0  0  0  0  0
    4.4136   21.5877   72.0210 H   0  0  0  0  0  0  0  0  0  0  0  0
    4.8952   18.9129   68.5682 H   0  0  0  0  0  0  0  0  0  0  0  0
    1.4444   18.2075   73.8558 C   0  0  0  0  0  0  0  0  0  0  0  0
    2.2627   18.8730   72.8104 C   0  0  0  0  0  0  0  0  0  0  0  0
    2.9170   19.9105   73.0984 O   0  0  0  0  0  0  0  0  0  0  0  0
    2.3082   18.3178   71.4912 N   0  0  0  0  0  0  0  0  0  0  0  0
    1.7827   17.5023   71.3240 H   0  0  0  0  0  0  0  0  0  0  0  0
    6.4518   21.1427   69.5861 C   0  0  0  0  0  0  0  0  0  0  0  0
    6.3199   21.6287   68.4295 O   0  0  0  0  0  0  0  0  0  0  0  0
    7.7273   20.8944   70.0812 O   0  0  0  0  0  0  0  0  0  0  0  0
    7.8348   20.5336   70.9392 H   0  0  0  0  0  0  0  0  0  0  0  0
    1.6652   20.8543   69.6388 C   0  0  0  0  0  0  0  0  0  0  0  0
    0.6515   20.9168   70.6009 O   0  0  0  0  0  0  0  0  0  0  0  0
    0.5068   20.0340   70.9759 H   0  0  0  0  0  0  0  0  0  0  0  0
    1.2564   19.9486   68.4646 C   0  0  0  0  0  0  0  0  0  0  0  0
    2.2770   19.9023   67.5114 O   0  0  0  0  0  0  0  0  0  0  0  0
    2.4213   20.7903   67.1488 H   0  0  0  0  0  0  0  0  0  0  0  0
   -0.0417   20.3986   67.8004 C   0  0  0  0  0  0  0  0  0  0  0  0
    0.0055   21.7582   67.4839 O   0  0  0  0  0  0  0  0  0  0  0  0
    0.1254   22.2752   68.2959 H   0  0  0  0  0  0  0  0  0  0  0  0
 11 12  1  0  0  0
 12 13  2  0  0  0
 12 14  1  0  0  0
  1 14  1  0  0  0
  1  2  1  0  0  0
  2  3  1  0  0  0
  2  8  1  0  0  0
  3  4  1  0  0  0
  4  5  1  0  0  0
  4 16  1  0  0  0
  4  7  1  0  0  0
  6  5  1  0  0  0
  6 20  1  0  0  0
  6  1  1  0  0  0
 20 23  1  0  0  0
 20 21  1  0  0  0
 23 26  1  0  0  0
 23 24  1  0  0  0
 26 27  1  0  0  0
 16 17  2  0  0  0
 16 18  1  0  0  0
 14 15  1  0  0  0
 27 28  1  0  0  0
 24 25  1  0  0  0
 21 22  1  0  0  0
 18 19  1  0  0  0
  7  9  1  0  0  0
  8 10  1  0  0  0
M  END
>  <minimizedAffinity>
-5.51143

>  <minimizedRMSD>
2.55752

$$$$
Molport-052-058-981 257537816 MCULE-2144443102 PubChem-131699269 ZINC000257537816


 33 34  0  0  0  0  0  0  0  0999 V2000
    5.8015   19.7270   68.2622 N   0  0  0  0  0  0  0  0  0  0  0  0
    5.5254   18.7714   68.4876 H   0  0  0  0  0  0  0  0  0  0  0  0
    6.8241   20.1801   69.1961 C   0  0  0  0  0  0  0  0  0  0  0  0
    7.8541   20.9837   68.4740 C   0  0  0  0  0  0  0  0  0  0  0  0
    7.9998   22.2042   68.7479 O   0  0  0  0  0  0  0  0  0  0  0  0
    8.6422   20.3965   67.4910 O   0  0  0  0  0  0  0  0  0  0  0  0
    8.5356   19.4885   67.2855 H   0  0  0  0  0  0  0  0  0  0  0  0
    7.4752   18.9890   69.8883 C   0  0  0  0  0  0  0  0  0  0  0  0
    9.9792   21.0324   73.1485 C   0  0  0  0  0  0  0  0  0  0  0  0
    9.4110   20.8949   74.4341 C   0  0  0  0  0  0  0  0  0  0  0  0
    8.2077   20.1868   74.6126 C   0  0  0  0  0  0  0  0  0  0  0  0
    7.6095   19.6316   73.4827 C   0  0  0  0  0  0  0  0  0  0  0  0
    8.1705   19.7560   72.2419 C   0  0  0  0  0  0  0  0  0  0  0  0
    9.3556   20.4569   72.0270 C   0  0  0  0  0  0  0  0  0  0  0  0
    7.3398   19.0949   71.3729 C   0  0  0  0  0  0  0  0  0  0  0  0
    6.2946   18.5911   72.1383 C   0  0  0  0  0  0  0  0  0  0  0  0
    6.4668   18.9224   73.4432 N   0  0  0  0  0  0  0  0  0  0  0  0
    5.8803   18.6926   74.1998 H   0  0  0  0  0  0  0  0  0  0  0  0
    4.6544   20.6163   68.3875 C   0  0  0  0  0  0  0  0  0  0  0  0
    3.9646   20.4196   69.7072 C   0  0  0  0  0  0  0  0  0  0  0  0
    3.8274   21.3805   70.4469 O   0  0  0  0  0  0  0  0  0  0  0  0
    3.4122   19.0813   70.1321 C   0  0  0  0  0  0  0  0  0  0  0  0
    3.2732   18.2122   69.0456 O   0  0  0  0  0  0  0  0  0  0  0  0
    2.6185   18.5709   68.4263 H   0  0  0  0  0  0  0  0  0  0  0  0
    2.0909   19.1848   70.9015 C   0  0  0  0  0  0  0  0  0  0  0  0
    2.2555   19.9153   72.0849 O   0  0  0  0  0  0  0  0  0  0  0  0
    2.5115   20.8258   71.8698 H   0  0  0  0  0  0  0  0  0  0  0  0
    0.9425   19.7459   70.0537 C   0  0  0  0  0  0  0  0  0  0  0  0
    0.7408   21.1077   70.3006 O   0  0  0  0  0  0  0  0  0  0  0  0
    0.4815   21.2334   71.2268 H   0  0  0  0  0  0  0  0  0  0  0  0
   -0.3496   18.9673   70.2762 C   0  0  0  0  0  0  0  0  0  0  0  0
   -0.2605   18.1686   71.4201 O   0  0  0  0  0  0  0  0  0  0  0  0
    0.4627   17.5310   71.3137 H   0  0  0  0  0  0  0  0  0  0  0  0
  9 10  2  0  0  0
 10 11  1  0  0  0
 11 12  2  0  0  0
 12 13  1  0  0  0
 13 14  2  0  0  0
 13 15  1  0  0  0
 15 16  2  0  0  0
 16 17  1  0  0  0
 15  8  1  0  0  0
  3  8  1  0  0  0
  3  4  1  0  0  0
  4  5  2  0  0  0
  4  6  1  0  0  0
  3  1  1  0  0  0
  1 19  1  0  0  0
 19 20  1  0  0  0
 20 21  2  0  0  0
 22 20  1  0  0  0
 22 25  1  0  0  0
 25 28  1  0  0  0
 28 31  1  0  0  0
 31 32  1  0  0  0
 28 29  1  0  0  0
 25 26  1  0  0  0
 22 23  1  0  0  0
 14  9  1  0  0  0
 17 12  1  0  0  0
 17 18  1  0  0  0
  6  7  1  0  0  0
  1  2  1  0  0  0
 32 33  1  0  0  0
 29 30  1  0  0  0
 26 27  1  0  0  0
 23 24  1  0  0  0
M  END
>  <minimizedAffinity>
-5.50331

>  <minimizedRMSD>
3.53226

$$$$
MolPort-046-569-594 1704324231 MCULE-8409198200 PubChem-135093244 ZINC001704324231


 37 39  0  0  0  0  0  0  0  0999 V2000
    2.4822   19.5246   73.1185 C   0  0  0  0  0  0  0  0  0  0  0  0
    2.4756   18.8918   71.8053 N   0  0  0  0  0  0  0  0  0  0  0  0
    2.4705   19.6341   70.5841 C   0  0  0  0  0  0  0  0  0  0  0  0
    2.2707   20.8797   70.5940 O   0  0  0  0  0  0  0  0  0  0  0  0
    2.6662   18.8967   69.2939 C   0  0  0  0  0  0  0  0  0  0  0  0
    1.3710   18.2154   68.9000 C   0  0  0  0  0  0  0  0  0  0  0  0
    3.1006   19.7689   68.2058 N   0  0  0  0  0  0  0  0  0  0  0  0
    4.3568   20.4557   68.1446 C   0  0  0  0  0  0  0  0  0  0  0  0
    4.7113   20.9888   67.0616 O   0  0  0  0  0  0  0  0  0  0  0  0
    5.2495   20.5819   69.3342 C   0  0  0  0  0  0  0  0  0  0  0  0
    6.0491   19.3124   69.5687 C   0  0  0  0  0  0  0  0  0  0  0  0
    5.6684   18.7025   70.9205 C   0  0  0  0  0  0  0  0  0  0  0  0
    6.4586   19.1939   72.0603 N   0  0  0  0  0  0  0  0  0  0  0  0
    6.4805   20.6548   72.1340 C   0  0  0  0  0  0  0  0  0  0  0  0
    5.1413   21.2088   72.6096 C   0  0  0  0  0  0  0  0  0  0  0  0
    4.9342   20.9986   74.1039 C   0  0  0  0  0  0  0  0  0  0  0  0
    4.6873   19.5955   74.4115 N   0  0  0  0  0  0  0  0  0  0  0  0
    3.5420   18.8676   73.9591 C   0  0  0  0  0  0  0  0  0  0  0  0
    3.4349   17.6482   74.2578 O   0  0  0  0  0  0  0  0  0  0  0  0
    2.4745   17.9085   71.7575 H   0  0  0  0  0  0  0  0  0  0  0  0
    2.4794   19.8952   67.4526 H   0  0  0  0  0  0  0  0  0  0  0  0
    5.3488   19.1199   74.9641 H   0  0  0  0  0  0  0  0  0  0  0  0
    0.0031   19.8390   72.8296 C   0  0  0  0  0  0  0  0  0  0  0  0
    1.1043   19.4081   73.7818 C   0  0  0  0  0  0  0  0  0  0  0  0
    1.0283   20.2816   75.0223 C   0  0  0  0  0  0  0  0  0  0  0  0
    7.8304   18.7271   71.9196 C   0  0  0  0  0  0  0  0  0  0  0  0
    8.6868   19.3453   72.9747 C   0  0  0  0  0  0  0  0  0  0  0  0
    8.8673   18.8929   74.2623 C   0  0  0  0  0  0  0  0  0  0  0  0
    8.2517   17.6919   74.8917 C   0  0  0  0  0  0  0  0  0  0  0  0
    9.6905   19.7101   74.8661 O   0  0  0  0  0  0  0  0  0  0  0  0
   10.0129   20.6378   73.9894 C   0  0  0  0  0  0  0  0  0  0  0  0
    9.4160   20.4612   72.7890 N   0  0  0  0  0  0  0  0  0  0  0  0
   10.9222   21.7478   74.2854 C   0  0  0  0  0  0  0  0  0  0  0  0
   12.2576   21.6220   74.6301 C   0  0  0  0  0  0  0  0  0  0  0  0
   12.8771   22.8599   74.8552 C   0  0  0  0  0  0  0  0  0  0  0  0
   12.0401   23.9618   74.6920 C   0  0  0  0  0  0  0  0  0  0  0  0
   10.5215   23.3751   74.2643 S   0  0  0  0  0  0  0  0  0  0  0  0
 23 24  1  0  0  0
 24 25  1  0  0  0
  1 24  1  0  0  0
  1  2  1  0  0  0
  2  3  1  0  0  0
  3  4  2  0  0  0
  3  5  1  0  0  0
  5  6  1  0  0  0
  5  7  1  0  0  0
  7  8  1  0  0  0
  8  9  2  0  0  0
  8 10  1  0  0  0
 10 11  1  0  0  0
 11 12  1  0  0  0
 12 13  1  0  0  0
 13 26  1  0  0  0
 26 27  1  0  0  0
 27 28  2  0  0  0
 28 29  1  0  0  0
 28 30  1  0  0  0
 30 31  1  0  0  0
 31 32  2  0  0  0
 31 33  1  0  0  0
 33 34  2  0  0  0
 34 35  1  0  0  0
 35 36  2  0  0  0
 36 37  1  0  0  0
 13 14  1  0  0  0
 14 15  1  0  0  0
 15 16  1  0  0  0
 16 17  1  0  0  0
 17 18  1  0  0  0
 18 19  2  0  0  0
 18  1  1  0  0  0
 32 27  1  0  0  0
 37 33  1  0  0  0
  2 20  1  0  0  0
  7 21  1  0  0  0
 17 22  1  0  0  0
M  END
>  <minimizedAffinity>
-5.48108

>  <minimizedRMSD>
4.56840

$$$$
MolPort-044-561-361 MolPort-044-875-296 Molport-003-925-602 3872462 CHEMBL28650 LN01267519 MCULE-2783113574 MCULE-4466748483 MCULE-4869552441 MCULE-9381716728 PubChem-16218848 PubChem-180936 PubChem-439518 PubChem-74764370 PubChem-91810301 ZINC000003872462


 41 40  0  0  0  0  0  0  0  0999 V2000
   -0.5459   22.0405   68.6732 C   0  0  0  0  0  0  0  0  0  0  0  0
   -0.2894   22.9720   69.4842 O   0  0  0  0  0  0  0  0  0  0  0  0
   -0.1112   20.7071   68.9421 N   0  0  0  0  0  0  0  0  0  0  0  0
   -0.3174   20.0018   68.2869 H   0  0  0  0  0  0  0  0  0  0  0  0
   -1.3142   22.3169   67.4158 C   0  0  0  0  0  0  0  0  0  0  0  0
   -3.6182   22.6373   68.4171 C   0  0  0  0  0  0  0  0  0  0  0  0
   -3.2419   23.6684   69.0388 O   0  0  0  0  0  0  0  0  0  0  0  0
   -2.7079   21.9222   67.5802 N   0  0  0  0  0  0  0  0  0  0  0  0
   -3.0349   21.1306   67.0947 H   0  0  0  0  0  0  0  0  0  0  0  0
   -5.0261   22.1523   68.5477 C   0  0  0  0  0  0  0  0  0  0  0  0
   -5.7481   23.0481   69.3396 O   0  0  0  0  0  0  0  0  0  0  0  0
   -5.7550   23.9209   68.9163 H   0  0  0  0  0  0  0  0  0  0  0  0
   -5.6881   21.9864   67.1751 C   0  0  0  0  0  0  0  0  0  0  0  0
   -6.2571   20.6537   67.0585 N   0  0  0  0  0  0  0  0  0  0  0  0
   -6.9721   20.5255   67.7746 H   0  0  0  0  0  0  0  0  0  0  0  0
   -5.5218   19.9580   67.1837 H   0  0  0  0  0  0  0  0  0  0  0  0
   -6.8013   23.0078   66.9733 C   0  0  0  0  0  0  0  0  0  0  0  0
   -6.3030   22.8555   64.5364 C   0  0  0  0  0  0  0  0  0  0  0  0
   -6.6042   23.7960   65.6879 C   0  0  0  0  0  0  0  0  0  0  0  0
   -7.8669   24.5715   65.3784 C   0  0  0  0  0  0  0  0  0  0  0  0
   -1.2056   23.7721   66.9351 C   0  0  0  0  0  0  0  0  0  0  0  0
   -2.2629   24.0902   65.8937 C   0  0  0  0  0  0  0  0  0  0  0  0
    0.1766   24.1242   66.4075 C   0  0  0  0  0  0  0  0  0  0  0  0
    0.6254   20.3480   70.1473 C   0  0  0  0  0  0  0  0  0  0  0  0
    1.7525   19.4207   69.8057 C   0  0  0  0  0  0  0  0  0  0  0  0
    1.5454   18.3914   69.1069 O   0  0  0  0  0  0  0  0  0  0  0  0
    3.0694   19.7322   70.2627 N   0  0  0  0  0  0  0  0  0  0  0  0
    3.1945   20.5205   70.8390 H   0  0  0  0  0  0  0  0  0  0  0  0
    4.2364   18.9316   69.9115 C   0  0  0  0  0  0  0  0  0  0  0  0
    5.2418   18.9535   71.0187 C   0  0  0  0  0  0  0  0  0  0  0  0
    5.1361   19.7738   71.9689 O   0  0  0  0  0  0  0  0  0  0  0  0
    6.2946   18.0492   71.0049 O   0  0  0  0  0  0  0  0  0  0  0  0
    6.3773   17.4372   70.3003 H   0  0  0  0  0  0  0  0  0  0  0  0
    4.8387   19.3584   68.5662 C   0  0  0  0  0  0  0  0  0  0  0  0
    5.0601   20.8336   68.4474 C   0  0  0  0  0  0  0  0  0  0  0  0
    6.2261   21.2789   68.2900 O   0  0  0  0  0  0  0  0  0  0  0  0
    3.9848   21.7125   68.4815 O   0  0  0  0  0  0  0  0  0  0  0  0
    3.1151   21.3842   68.5986 H   0  0  0  0  0  0  0  0  0  0  0  0
   -0.3186   19.8071   71.2320 C   0  0  0  0  0  0  0  0  0  0  0  0
   -1.3084   18.7806   70.7038 C   0  0  0  0  0  0  0  0  0  0  0  0
    0.4565   19.2361   72.4052 C   0  0  0  0  0  0  0  0  0  0  0  0
 18 19  1  0  0  0
 19 20  1  0  0  0
 19 17  1  0  0  0
 13 17  1  0  0  0
 13 14  1  0  0  0
 13 10  1  0  0  0
 10 11  1  0  0  0
 10  6  1  0  0  0
  6  7  2  0  0  0
  6  8  1  0  0  0
  5  8  1  0  0  0
  5  1  1  0  0  0
  5 21  1  0  0  0
  1  2  2  0  0  0
  1  3  1  0  0  0
 24  3  1  0  0  0
 24 25  1  0  0  0
 24 39  1  0  0  0
 25 26  2  0  0  0
 25 27  1  0  0  0
 29 27  1  0  0  0
 29 34  1  0  0  0
 29 30  1  0  0  0
 34 35  1  0  0  0
 35 36  2  0  0  0
 35 37  1  0  0  0
 30 31  2  0  0  0
 30 32  1  0  0  0
 39 40  1  0  0  0
 39 41  1  0  0  0
 21 22  1  0  0  0
 21 23  1  0  0  0
 14 15  1  0  0  0
 14 16  1  0  0  0
 11 12  1  0  0  0
  8  9  1  0  0  0
  3  4  1  0  0  0
 27 28  1  0  0  0
 37 38  1  0  0  0
 32 33  1  0  0  0
M  END
>  <minimizedAffinity>
-5.44089

>  <minimizedRMSD>
2.57727

$$$$
MolPort-035-912-924 MCULE-1400392885 MCULE-5412561161 MCULE-5883393920 MCULE-7250053595 PubChem-146355916 PubChem-146355929 PubChem-146355936 PubChem-155290723 PubChem-164511591 PubChem-164511647 PubChem-20158752 PubChem-20441004 PubChem-21872891 PubChem-43835010 PubChem-73555198 PubChem-78169928


 20 19  0  0  0  0  0  0  0  0999 V2000
    2.2311   20.0453   69.2968 C   0  0  0  0  0  0  0  0  0  0  0  0
    2.6569   18.7826   68.8740 O   0  0  0  0  0  0  0  0  0  0  0  0
    3.1898   18.8740   68.0686 H   0  0  0  0  0  0  0  0  0  0  0  0
    3.4335   20.9295   69.6504 C   0  0  0  0  0  0  0  0  0  0  0  0
    3.8953   20.6351   70.9345 O   0  0  0  0  0  0  0  0  0  0  0  0
    4.2137   19.7192   70.9615 H   0  0  0  0  0  0  0  0  0  0  0  0
    4.5746   20.8441   68.6373 C   0  0  0  0  0  0  0  0  0  0  0  0
    5.7989   21.1573   69.2345 O   0  0  0  0  0  0  0  0  0  0  0  0
    6.7855   19.8056   68.9661 P   0  0  0  0  0  0  0  0  0  0  0  0
    7.3382   19.3257   70.2881 O   0  0  0  0  0  0  0  0  0  0  0  0
    8.0695   20.2216   67.9454 O   0  0  0  0  0  0  0  0  0  0  0  0
    5.8816   18.5623   68.2584 O   0  0  0  0  0  0  0  0  0  0  0  0
    1.3363   20.6942   68.2327 C   0  0  0  0  0  0  0  0  0  0  0  0
    0.7944   19.7144   67.3981 O   0  0  0  0  0  0  0  0  0  0  0  0
    0.2277   19.1237   67.9185 H   0  0  0  0  0  0  0  0  0  0  0  0
    0.2208   21.5220   68.8138 C   0  0  0  0  0  0  0  0  0  0  0  0
    0.0106   21.5468   70.0177 O   0  0  0  0  0  0  0  0  0  0  0  0
   -0.6370   22.3328   67.9003 C   0  0  0  0  0  0  0  0  0  0  0  0
   -1.5218   21.4988   67.2167 O   0  0  0  0  0  0  0  0  0  0  0  0
   -1.0199   20.8547   66.6932 H   0  0  0  0  0  0  0  0  0  0  0  0
  7  8  1  0  0  0
  4  7  1  0  0  0
  4  1  1  0  0  0
  4  5  1  0  0  0
  1 13  1  0  0  0
  1  2  1  0  0  0
 13 16  1  0  0  0
 13 14  1  0  0  0
 16 17  2  0  0  0
 16 18  1  0  0  0
 18 19  1  0  0  0
  8  9  1  0  0  0
  9 10  2  0  0  0
  9 11  1  0  0  0
  9 12  1  0  0  0
 19 20  1  0  0  0
 14 15  1  0  0  0
  2  3  1  0  0  0
  5  6  1  0  0  0
M  CHG 1  11  -1
M  CHG 1  12  -1
M  END
>  <minimizedAffinity>
-5.43940

>  <minimizedRMSD>
2.12207

$$$$
Molport-006-111-672 Molport-051-912-675 13522851 LN02124825 MCULE-2660250643 MCULE-3600615609 PubChem-131728109 PubChem-90479496 PubChem-92797 ZINC000013522851 ZINC13522851


 31 31  0  0  0  0  0  0  0  0999 V2000
    2.1510   19.4067   69.8110 O   0  0  0  0  0  0  0  0  0  0  0  0
    5.3918   20.7074   69.6556 C   0  0  0  0  0  0  0  0  0  0  0  0
    6.0940   20.1542   70.9055 C   0  0  0  0  0  0  0  0  0  0  0  0
    5.0799   20.0090   72.0418 C   0  0  0  0  0  0  0  0  0  0  0  0
    3.7954   19.3346   71.5597 C   0  0  0  0  0  0  0  0  0  0  0  0
    3.3342   20.0018   70.2608 C   0  0  0  0  0  0  0  0  0  0  0  0
    4.3320   19.8618   69.2795 O   0  0  0  0  0  0  0  0  0  0  0  0
    2.8086   19.4623   72.5383 O   0  0  0  0  0  0  0  0  0  0  0  0
    5.6407   19.2669   73.0821 O   0  0  0  0  0  0  0  0  0  0  0  0
    7.1124   21.0219   71.3051 O   0  0  0  0  0  0  0  0  0  0  0  0
    2.6402   20.4026   72.7069 H   0  0  0  0  0  0  0  0  0  0  0  0
    5.8661   18.3797   72.7613 H   0  0  0  0  0  0  0  0  0  0  0  0
    6.7335   21.8895   71.5164 H   0  0  0  0  0  0  0  0  0  0  0  0
    6.3649   20.8584   68.4922 C   0  0  0  0  0  0  0  0  0  0  0  0
    7.4043   19.9313   68.5961 O   0  0  0  0  0  0  0  0  0  0  0  0
    7.0393   19.0328   68.5762 H   0  0  0  0  0  0  0  0  0  0  0  0
    1.1441   20.3428   70.0813 C   0  0  0  0  0  0  0  0  0  0  0  0
   -0.2430   19.6930   70.0450 C   0  0  0  0  0  0  0  0  0  0  0  0
   -0.3605   18.8829   68.9103 O   0  0  0  0  0  0  0  0  0  0  0  0
    0.3020   18.1754   68.9482 H   0  0  0  0  0  0  0  0  0  0  0  0
   -0.5104   18.8751   71.3146 C   0  0  0  0  0  0  0  0  0  0  0  0
    0.5507   17.9913   71.5347 O   0  0  0  0  0  0  0  0  0  0  0  0
    0.6195   17.3763   70.7877 H   0  0  0  0  0  0  0  0  0  0  0  0
   -1.8193   18.0799   71.2166 C   0  0  0  0  0  0  0  0  0  0  0  0
   -2.8614   18.8809   70.7442 O   0  0  0  0  0  0  0  0  0  0  0  0
   -3.0210   19.6055   71.3690 H   0  0  0  0  0  0  0  0  0  0  0  0
   -2.2134   17.4860   72.5648 C   0  0  0  0  0  0  0  0  0  0  0  0
   -1.5212   18.1166   73.6013 O   0  0  0  0  0  0  0  0  0  0  0  0
   -0.5675   17.9903   73.4770 H   0  0  0  0  0  0  0  0  0  0  0  0
    1.2335   21.4949   69.1273 C   0  0  0  0  0  0  0  0  0  0  0  0
    0.5594   21.5217   68.1095 O   0  0  0  0  0  0  0  0  0  0  0  0
 14 15  1  0  0  0
  2 14  1  0  0  0
  2  3  1  0  0  0
  3  4  1  0  0  0
  3 10  1  0  0  0
  4  5  1  0  0  0
  4  9  1  0  0  0
  5  6  1  0  0  0
  5  8  1  0  0  0
  6  7  1  0  0  0
  6  1  1  0  0  0
  7  2  1  0  0  0
 17  1  1  0  0  0
 17 30  1  0  0  0
 17 18  1  0  0  0
 30 31  2  0  0  0
 18 21  1  0  0  0
 18 19  1  0  0  0
 21 24  1  0  0  0
 21 22  1  0  0  0
 24 27  1  0  0  0
 24 25  1  0  0  0
 27 28  1  0  0  0
 28 29  1  0  0  0
 25 26  1  0  0  0
 22 23  1  0  0  0
 19 20  1  0  0  0
  8 11  1  0  0  0
  9 12  1  0  0  0
 10 13  1  0  0  0
 15 16  1  0  0  0
M  END
>  <minimizedAffinity>
-5.35236

>  <minimizedRMSD>
4.25054

$$$$
MolPort-042-624-478 136423236 CSSS00138410359 MCULE-5576391784 MCULE-5634897816 PubChem-10994544 ZINC000136423236


 40 43  0  0  0  0  0  0  0  0999 V2000
    5.7092   18.7001   72.9726 C   0  0  0  0  0  0  0  0  0  0  0  0
    5.9285   18.8139   74.4878 C   0  0  0  0  0  0  0  0  0  0  0  0
    4.8626   19.6814   75.1732 C   0  0  0  0  0  0  0  0  0  0  0  0
    3.4847   19.5799   74.5028 C   0  0  0  0  0  0  0  0  0  0  0  0
    3.5823   19.3966   72.9776 C   0  0  0  0  0  0  0  0  0  0  0  0
    4.8649   19.7230   72.5073 O   0  0  0  0  0  0  0  0  0  0  0  0
    2.7721   18.5140   75.0525 O   0  0  0  0  0  0  0  0  0  0  0  0
    5.2801   21.0127   75.1737 O   0  0  0  0  0  0  0  0  0  0  0  0
    5.9335   17.5385   75.0521 O   0  0  0  0  0  0  0  0  0  0  0  0
    3.2456   17.6852   74.8798 H   0  0  0  0  0  0  0  0  0  0  0  0
    5.3719   21.3231   74.2594 H   0  0  0  0  0  0  0  0  0  0  0  0
    5.0727   17.1163   74.9046 H   0  0  0  0  0  0  0  0  0  0  0  0
    6.9625   18.7678   72.3045 O   0  0  0  0  0  0  0  0  0  0  0  0
    6.2679   18.9402   69.9237 C   0  0  0  0  0  0  0  0  0  0  0  0
    7.1492   19.2374   70.9953 C   0  0  0  0  0  0  0  0  0  0  0  0
    8.2776   20.0320   70.7582 C   0  0  0  0  0  0  0  0  0  0  0  0
    8.5340   20.5521   69.4894 C   0  0  0  0  0  0  0  0  0  0  0  0
    7.6483   20.2743   68.4318 C   0  0  0  0  0  0  0  0  0  0  0  0
    6.5291   19.4729   68.6490 C   0  0  0  0  0  0  0  0  0  0  0  0
    7.9177   20.8049   67.1725 C   0  0  0  0  0  0  0  0  0  0  0  0
    9.0542   21.5935   66.9941 C   0  0  0  0  0  0  0  0  0  0  0  0
    9.8930   21.8279   68.0884 C   0  0  0  0  0  0  0  0  0  0  0  0
   10.9248   22.5334   67.9440 O   0  0  0  0  0  0  0  0  0  0  0  0
    9.6088   21.3080   69.2811 O   0  0  0  0  0  0  0  0  0  0  0  0
    3.9700   18.2060   69.3519 C   0  0  0  0  0  0  0  0  0  0  0  0
    5.1591   18.1105   70.1247 O   0  0  0  0  0  0  0  0  0  0  0  0
    2.5476   20.2555   72.2711 C   0  0  0  0  0  0  0  0  0  0  0  0
    1.3477   19.5519   72.1405 O   0  0  0  0  0  0  0  0  0  0  0  0
    1.0167   19.6563   70.7888 C   0  0  0  0  0  0  0  0  0  0  0  0
   -0.4958   19.8885   70.6437 C   0  0  0  0  0  0  0  0  0  0  0  0
   -0.8307   20.9229   69.5589 C   0  0  0  0  0  0  0  0  0  0  0  0
    0.1543   20.8994   68.3807 C   0  0  0  0  0  0  0  0  0  0  0  0
    1.5833   20.5362   68.8127 C   0  0  0  0  0  0  0  0  0  0  0  0
    1.7508   20.6989   70.1977 O   0  0  0  0  0  0  0  0  0  0  0  0
   -0.2832   19.9906   67.4177 O   0  0  0  0  0  0  0  0  0  0  0  0
   -0.8462   22.1982   70.1243 O   0  0  0  0  0  0  0  0  0  0  0  0
   -1.1235   18.6786   70.3501 O   0  0  0  0  0  0  0  0  0  0  0  0
   -0.3037   19.0993   67.7999 H   0  0  0  0  0  0  0  0  0  0  0  0
    0.0347   22.4087   70.4715 H   0  0  0  0  0  0  0  0  0  0  0  0
   -0.7897   18.3378   69.5055 H   0  0  0  0  0  0  0  0  0  0  0  0
 25 26  1  0  0  0
 26 14  1  0  0  0
 14 15  2  0  0  0
 15 16  1  0  0  0
 15 13  1  0  0  0
 16 17  2  0  0  0
 17 18  1  0  0  0
 18 19  2  0  0  0
 18 20  1  0  0  0
 19 14  1  0  0  0
 20 21  2  0  0  0
 21 22  1  0  0  0
 22 23  2  0  0  0
 22 24  1  0  0  0
 24 17  1  0  0  0
  1 13  1  0  0  0
  1  2  1  0  0  0
  2  3  1  0  0  0
  2  9  1  0  0  0
  3  4  1  0  0  0
  3  8  1  0  0  0
  4  5  1  0  0  0
  4  7  1  0  0  0
  5  6  1  0  0  0
  5 27  1  0  0  0
  6  1  1  0  0  0
 27 28  1  0  0  0
 29 28  1  0  0  0
 29 30  1  0  0  0
 30 31  1  0  0  0
 30 37  1  0  0  0
 31 32  1  0  0  0
 31 36  1  0  0  0
 32 33  1  0  0  0
 32 35  1  0  0  0
 33 34  1  0  0  0
 34 29  1  0  0  0
 35 38  1  0  0  0
 36 39  1  0  0  0
 37 40  1  0  0  0
  7 10  1  0  0  0
  8 11  1  0  0  0
  9 12  1  0  0  0
M  END
>  <minimizedAffinity>
-5.34607

>  <minimizedRMSD>
3.71902

$$$$
MolPort-002-326-785 4046284 CSSS02125566749 MCULE-9972791890 PubChem-7083892 ZINC000004046284


 41 43  0  0  0  0  0  0  0  0999 V2000
    8.3810   20.5816   75.7687 C   0  0  0  0  0  0  0  0  0  0  0  0
    7.9845   19.4903   74.9767 O   0  0  0  0  0  0  0  0  0  0  0  0
    6.6635   19.7486   74.5673 C   0  0  0  0  0  0  0  0  0  0  0  0
    6.6454   20.9049   73.5486 C   0  0  0  0  0  0  0  0  0  0  0  0
    7.3092   22.1542   74.1472 C   0  0  0  0  0  0  0  0  0  0  0  0
    7.5746   23.0813   73.1383 O   0  0  0  0  0  0  0  0  0  0  0  0
    8.6007   21.8190   74.8922 C   0  0  0  0  0  0  0  0  0  0  0  0
    8.9692   22.9041   75.6881 O   0  0  0  0  0  0  0  0  0  0  0  0
    8.1949   22.6958   72.4999 H   0  0  0  0  0  0  0  0  0  0  0  0
    8.2640   23.0905   76.3275 H   0  0  0  0  0  0  0  0  0  0  0  0
    6.0766   18.4851   73.9553 C   0  0  0  0  0  0  0  0  0  0  0  0
    5.7870   17.5621   74.9611 O   0  0  0  0  0  0  0  0  0  0  0  0
    6.6015   17.3364   75.4370 H   0  0  0  0  0  0  0  0  0  0  0  0
    9.5889   20.2456   76.5197 N   0  0  0  0  0  0  0  0  0  0  0  0
    9.6175   20.5082   77.4681 H   0  0  0  0  0  0  0  0  0  0  0  0
   14.1840   17.5785   74.3711 C   0  0  0  0  0  0  0  0  0  0  0  0
   12.9957   18.2899   74.9265 C   0  0  0  0  0  0  0  0  0  0  0  0
   11.9567   17.5343   75.4756 C   0  0  0  0  0  0  0  0  0  0  0  0
   10.8292   18.1673   76.0034 C   0  0  0  0  0  0  0  0  0  0  0  0
   10.7350   19.5663   75.9924 C   0  0  0  0  0  0  0  0  0  0  0  0
   11.7781   20.3216   75.4504 C   0  0  0  0  0  0  0  0  0  0  0  0
   12.9093   19.6947   74.9193 C   0  0  0  0  0  0  0  0  0  0  0  0
   13.9994   20.5414   74.3533 C   0  0  0  0  0  0  0  0  0  0  0  0
    5.2223   21.2379   73.0999 C   0  0  0  0  0  0  0  0  0  0  0  0
    5.2180   21.7321   71.7939 O   0  0  0  0  0  0  0  0  0  0  0  0
    5.4533   20.6135   70.9958 C   0  0  0  0  0  0  0  0  0  0  0  0
    6.8251   20.7198   70.3469 C   0  0  0  0  0  0  0  0  0  0  0  0
    7.5373   19.5166   70.5066 O   0  0  0  0  0  0  0  0  0  0  0  0
    8.9222   19.7702   70.3179 C   0  0  0  0  0  0  0  0  0  0  0  0
    9.2520   20.7082   69.1388 C   0  0  0  0  0  0  0  0  0  0  0  0
   10.3976   20.2550   68.4841 O   0  0  0  0  0  0  0  0  0  0  0  0
    8.0835   20.8006   68.1545 C   0  0  0  0  0  0  0  0  0  0  0  0
    8.3426   21.7781   67.1930 O   0  0  0  0  0  0  0  0  0  0  0  0
    6.7564   21.1038   68.8568 C   0  0  0  0  0  0  0  0  0  0  0  0
    5.7370   20.4033   68.2068 O   0  0  0  0  0  0  0  0  0  0  0  0
   10.2375   19.3662   68.1302 H   0  0  0  0  0  0  0  0  0  0  0  0
    8.4271   22.6423   67.6252 H   0  0  0  0  0  0  0  0  0  0  0  0
    5.9196   19.4517   68.2509 H   0  0  0  0  0  0  0  0  0  0  0  0
    9.5775   20.2703   71.5988 C   0  0  0  0  0  0  0  0  0  0  0  0
    9.6247   19.2426   72.5406 O   0  0  0  0  0  0  0  0  0  0  0  0
    8.7232   18.9456   72.7405 H   0  0  0  0  0  0  0  0  0  0  0  0
 16 17  1  0  0  0
 17 18  2  0  0  0
 18 19  1  0  0  0
 19 20  2  0  0  0
 20 14  1  0  0  0
 20 21  1  0  0  0
  1 14  1  0  0  0
  1  2  1  0  0  0
  2  3  1  0  0  0
  3 11  1  0  0  0
  3  4  1  0  0  0
 11 12  1  0  0  0
  4 24  1  0  0  0
  4  5  1  0  0  0
 24 25  1  0  0  0
 25 26  1  0  0  0
 27 26  1  0  0  0
 27 28  1  0  0  0
 28 29  1  0  0  0
 29 39  1  0  0  0
 29 30  1  0  0  0
 39 40  1  0  0  0
 30 31  1  0  0  0
 30 32  1  0  0  0
 32 33  1  0  0  0
 32 34  1  0  0  0
 34 35  1  0  0  0
 34 27  1  0  0  0
  5  6  1  0  0  0
  5  7  1  0  0  0
  7  8  1  0  0  0
  7  1  1  0  0  0
 21 22  2  0  0  0
 22 23  1  0  0  0
 22 17  1  0  0  0
 14 15  1  0  0  0
 12 13  1  0  0  0
 40 41  1  0  0  0
 31 36  1  0  0  0
 33 37  1  0  0  0
 35 38  1  0  0  0
  6  9  1  0  0  0
  8 10  1  0  0  0
M  END
>  <minimizedAffinity>
-5.33748

>  <minimizedRMSD>
6.14126

$$$$
MolPort-006-167-580 CHEMBL222813 MCULE-3766145459 PubChem-118289699 PubChem-118387180 PubChem-124124237 PubChem-131864335 PubChem-44300291 PubChem-44473359 PubChem-44511868 PubChem-60165259 PubChem-60855 PubChem-636424 PubChem-66691285 PubChem-66742162 PubChem-66781465 PubChem-67042770 PubChem-67531754 PubChem-87117919 PubChem-87415671 PubChem-90460455


 32 32  0  0  0  0  0  0  0  0999 V2000
    2.5492   19.4838   72.3189 C   0  0  0  0  0  0  0  0  0  0  0  0
    2.4838   20.0012   70.8750 C   0  0  0  0  0  0  0  0  0  0  0  0
    3.4838   19.3873   70.0572 O   0  0  0  0  0  0  0  0  0  0  0  0
    4.7369   19.0109   70.5650 C   0  0  0  0  0  0  0  0  0  0  0  0
    4.9934   19.1056   71.8760 C   0  0  0  0  0  0  0  0  0  0  0  0
    3.9847   19.6716   72.8401 C   0  0  0  0  0  0  0  0  0  0  0  0
    4.2689   21.0878   73.0550 N   0  0  0  0  0  0  0  0  0  0  0  0
    4.7946   21.5647   74.1415 C   0  0  0  0  0  0  0  0  0  0  0  0
    5.1569   20.7084   75.2221 N   0  0  0  0  0  0  0  0  0  0  0  0
    5.0261   22.9635   74.2511 N   0  0  0  0  0  0  0  0  0  0  0  0
    5.0005   19.7387   75.1555 H   0  0  0  0  0  0  0  0  0  0  0  0
    5.5634   21.0868   76.0350 H   0  0  0  0  0  0  0  0  0  0  0  0
    4.7793   23.5629   73.5101 H   0  0  0  0  0  0  0  0  0  0  0  0
    5.4331   23.3325   75.0681 H   0  0  0  0  0  0  0  0  0  0  0  0
    0.1564   18.5043   73.8656 C   0  0  0  0  0  0  0  0  0  0  0  0
    1.0614   17.5808   73.1250 C   0  0  0  0  0  0  0  0  0  0  0  0
    0.8329   16.3442   73.1519 O   0  0  0  0  0  0  0  0  0  0  0  0
    2.1764   18.0730   72.3782 N   0  0  0  0  0  0  0  0  0  0  0  0
    2.7228   17.4257   71.8765 H   0  0  0  0  0  0  0  0  0  0  0  0
    5.7528   18.4734   69.6519 C   0  0  0  0  0  0  0  0  0  0  0  0
    5.5093   18.3925   68.4195 O   0  0  0  0  0  0  0  0  0  0  0  0
    6.9868   18.0511   70.1340 O   0  0  0  0  0  0  0  0  0  0  0  0
    7.1764   18.1078   71.0499 H   0  0  0  0  0  0  0  0  0  0  0  0
    1.0912   19.8906   70.2517 C   0  0  0  0  0  0  0  0  0  0  0  0
    0.8857   18.5991   69.7563 O   0  0  0  0  0  0  0  0  0  0  0  0
    1.5409   18.4093   69.0667 H   0  0  0  0  0  0  0  0  0  0  0  0
    0.9180   20.9143   69.1324 C   0  0  0  0  0  0  0  0  0  0  0  0
    1.3419   22.1724   69.5673 O   0  0  0  0  0  0  0  0  0  0  0  0
    0.8048   22.4502   70.3257 H   0  0  0  0  0  0  0  0  0  0  0  0
   -0.5409   20.9964   68.7136 C   0  0  0  0  0  0  0  0  0  0  0  0
   -0.6275   21.2835   67.3514 O   0  0  0  0  0  0  0  0  0  0  0  0
   -0.1972   22.1341   67.1722 H   0  0  0  0  0  0  0  0  0  0  0  0
 15 16  1  0  0  0
 16 17  2  0  0  0
 16 18  1  0  0  0
  1 18  1  0  0  0
  1  2  1  0  0  0
  2 24  1  0  0  0
  2  3  1  0  0  0
 24 25  1  0  0  0
 24 27  1  0  0  0
 27 28  1  0  0  0
 27 30  1  0  0  0
 30 31  1  0  0  0
  3  4  1  0  0  0
  4 20  1  0  0  0
  4  5  2  0  0  0
 20 21  2  0  0  0
 20 22  1  0  0  0
  5  6  1  0  0  0
  6  7  1  0  0  0
  6  1  1  0  0  0
  7  8  2  0  0  0
  8  9  1  0  0  0
  8 10  1  0  0  0
 18 19  1  0  0  0
 25 26  1  0  0  0
 28 29  1  0  0  0
 31 32  1  0  0  0
 22 23  1  0  0  0
  9 11  1  0  0  0
  9 12  1  0  0  0
 10 13  1  0  0  0
 10 14  1  0  0  0
M  END
>  <minimizedAffinity>
-5.32228

>  <minimizedRMSD>
2.26935

$$$$
MolPort-007-567-665 CHEMBL4782156 CSSS00132983669 MCULE-1536837850 MCULE-7689651477 NSC13252 NSC44180 PubChem-75147659


 40 43  0  0  0  0  0  0  0  0999 V2000
   -0.0435   20.1272   71.7203 C   0  0  0  0  0  0  0  0  0  0  0  0
    1.2813   20.4930   70.9827 C   0  0  0  0  0  0  0  0  0  0  0  0
    2.4341   19.6126   71.4348 C   0  0  0  0  0  0  0  0  0  0  0  0
    3.7625   20.1738   70.9066 C   0  0  0  0  0  0  0  0  0  0  0  0
    3.6903   20.7056   69.4947 C   0  0  0  0  0  0  0  0  0  0  0  0
    2.5178   20.8160   68.8223 C   0  0  0  0  0  0  0  0  0  0  0  0
    2.5215   21.2154   67.4868 O   0  0  0  0  0  0  0  0  0  0  0  0
    1.1928   20.4175   69.4545 C   0  0  0  0  0  0  0  0  0  0  0  0
    0.9001   19.1068   69.0611 O   0  0  0  0  0  0  0  0  0  0  0  0
    0.0429   21.3034   69.0623 C   0  0  0  0  0  0  0  0  0  0  0  0
    0.1834   22.2495   68.2391 O   0  0  0  0  0  0  0  0  0  0  0  0
   -1.2670   21.0514   69.6966 C   0  0  0  0  0  0  0  0  0  0  0  0
   -1.3014   20.4286   70.8985 C   0  0  0  0  0  0  0  0  0  0  0  0
   -2.5246   20.0270   71.4282 O   0  0  0  0  0  0  0  0  0  0  0  0
    4.9676   21.1768   68.9282 C   0  0  0  0  0  0  0  0  0  0  0  0
    4.9669   22.0331   68.0012 O   0  0  0  0  0  0  0  0  0  0  0  0
    6.2478   20.6334   69.4544 C   0  0  0  0  0  0  0  0  0  0  0  0
    7.4864   21.0677   68.9228 C   0  0  0  0  0  0  0  0  0  0  0  0
    7.5586   22.1080   68.0029 O   0  0  0  0  0  0  0  0  0  0  0  0
    8.6730   20.4498   69.3042 C   0  0  0  0  0  0  0  0  0  0  0  0
    8.6541   19.3840   70.1911 C   0  0  0  0  0  0  0  0  0  0  0  0
    7.4550   18.9460   70.7482 C   0  0  0  0  0  0  0  0  0  0  0  0
    7.5486   17.5005   71.7479 Cl  0  0  0  0  0  0  0  0  0  0  0  0
    6.2341   19.6143   70.4513 C   0  0  0  0  0  0  0  0  0  0  0  0
    4.9238   19.1774   71.1174 C   0  0  0  0  0  0  0  0  0  0  0  0
    5.1164   19.0738   72.6282 C   0  0  0  0  0  0  0  0  0  0  0  0
    4.5614   17.9255   70.6129 O   0  0  0  0  0  0  0  0  0  0  0  0
    3.3250   21.4656   67.0749 H   0  0  0  0  0  0  0  0  0  0  0  0
    0.8452   19.0642   68.0936 H   0  0  0  0  0  0  0  0  0  0  0  0
   -3.3168   20.1930   70.9562 H   0  0  0  0  0  0  0  0  0  0  0  0
    6.7767   22.5440   67.7264 H   0  0  0  0  0  0  0  0  0  0  0  0
    5.2908   17.3000   70.7454 H   0  0  0  0  0  0  0  0  0  0  0  0
   -2.5118   21.4390   68.9772 C   0  0  0  0  0  0  0  0  0  0  0  0
   -2.4617   21.8179   67.6045 N   0  0  0  0  0  0  0  0  0  0  0  0
   -3.6260   21.4430   69.5643 O   0  0  0  0  0  0  0  0  0  0  0  0
   -1.6013   21.8218   67.1260 H   0  0  0  0  0  0  0  0  0  0  0  0
   -3.2875   22.0757   67.1346 H   0  0  0  0  0  0  0  0  0  0  0  0
   -1.5740   20.8738   73.3826 C   0  0  0  0  0  0  0  0  0  0  0  0
   -0.1616   20.7904   73.0402 N   0  0  0  0  0  0  0  0  0  0  0  0
    0.4287   20.0057   74.1174 C   0  0  0  0  0  0  0  0  0  0  0  0
 38 39  1  0  0  0
 39 40  1  0  0  0
  1 39  1  0  0  0
  1  2  1  0  0  0
  2  3  1  0  0  0
  4  3  1  0  0  0
  4  5  1  0  0  0
  5  6  2  0  0  0
  5 15  1  0  0  0
  6  7  1  0  0  0
  6  8  1  0  0  0
  8  9  1  0  0  0
  8 10  1  0  0  0
  8  2  1  0  0  0
 10 11  2  0  0  0
 10 12  1  0  0  0
 12 33  1  0  0  0
 12 13  2  0  0  0
 33 34  1  0  0  0
 33 35  2  0  0  0
 13 14  1  0  0  0
 13  1  1  0  0  0
 15 16  2  0  0  0
 15 17  1  0  0  0
 17 18  2  0  0  0
 18 19  1  0  0  0
 18 20  1  0  0  0
 20 21  2  0  0  0
 21 22  1  0  0  0
 22 23  1  0  0  0
 22 24  2  0  0  0
 24 25  1  0  0  0
 24 17  1  0  0  0
 25 26  1  0  0  0
 25 27  1  0  0  0
 25  4  1  0  0  0
  7 28  1  0  0  0
  9 29  1  0  0  0
 34 36  1  0  0  0
 34 37  1  0  0  0
 14 30  1  0  0  0
 19 31  1  0  0  0
 27 32  1  0  0  0
M  END
>  <minimizedAffinity>
-5.30562

>  <minimizedRMSD>
3.11912

$$$$
MolPort-039-063-071 2516117 CHEMBL1221952 LN02182109 MCULE-4172704301 MCULE-4291805174 PubChem-7015687 ZINC000002516117


 27 26  0  0  0  0  0  0  0  0999 V2000
    3.5251   20.4594   69.8586 C   0  0  0  0  0  0  0  0  0  0  0  0
    1.1535   20.9739   69.1252 C   0  0  0  0  0  0  0  0  0  0  0  0
    0.7828   21.1052   70.3245 O   0  0  0  0  0  0  0  0  0  0  0  0
    2.5177   20.6695   68.8256 N   0  0  0  0  0  0  0  0  0  0  0  0
    2.7886   20.5986   67.8817 H   0  0  0  0  0  0  0  0  0  0  0  0
   -0.1512   19.8332   67.4462 N   0  0  0  0  0  0  0  0  0  0  0  0
    0.1796   21.1367   67.9941 C   0  0  0  0  0  0  0  0  0  0  0  0
   -0.8128   19.9453   66.6780 H   0  0  0  0  0  0  0  0  0  0  0  0
   -0.5703   19.2548   68.1742 H   0  0  0  0  0  0  0  0  0  0  0  0
   -1.1014   21.8489   68.4079 C   0  0  0  0  0  0  0  0  0  0  0  0
   -0.8114   23.1495   68.8213 O   0  0  0  0  0  0  0  0  0  0  0  0
   -0.2068   23.1206   69.5793 H   0  0  0  0  0  0  0  0  0  0  0  0
    4.8969   20.7081   69.2996 C   0  0  0  0  0  0  0  0  0  0  0  0
    5.0122   21.4101   68.2592 O   0  0  0  0  0  0  0  0  0  0  0  0
    6.0642   20.1730   69.9413 N   0  0  0  0  0  0  0  0  0  0  0  0
    5.9321   19.6353   70.7553 H   0  0  0  0  0  0  0  0  0  0  0  0
    7.4340   20.3691   69.4732 C   0  0  0  0  0  0  0  0  0  0  0  0
    7.8283   21.8145   69.5686 C   0  0  0  0  0  0  0  0  0  0  0  0
    8.3457   22.2471   70.6310 O   0  0  0  0  0  0  0  0  0  0  0  0
    7.6167   22.6867   68.5063 O   0  0  0  0  0  0  0  0  0  0  0  0
    7.2320   22.3725   67.7117 H   0  0  0  0  0  0  0  0  0  0  0  0
    7.6098   19.7933   68.0726 C   0  0  0  0  0  0  0  0  0  0  0  0
    8.7063   20.3872   67.4468 O   0  0  0  0  0  0  0  0  0  0  0  0
    8.5609   21.3439   67.3792 H   0  0  0  0  0  0  0  0  0  0  0  0
    3.3698   19.0754   70.4921 C   0  0  0  0  0  0  0  0  0  0  0  0
    4.0298   18.1049   69.7345 O   0  0  0  0  0  0  0  0  0  0  0  0
    3.6481   18.0756   68.8433 H   0  0  0  0  0  0  0  0  0  0  0  0
  7  6  1  0  0  0
  7 10  1  0  0  0
  7  2  1  0  0  0
 10 11  1  0  0  0
  2  3  2  0  0  0
  2  4  1  0  0  0
  1  4  1  0  0  0
  1 25  1  0  0  0
  1 13  1  0  0  0
 25 26  1  0  0  0
 13 14  2  0  0  0
 13 15  1  0  0  0
 17 15  1  0  0  0
 17 22  1  0  0  0
 17 18  1  0  0  0
 22 23  1  0  0  0
 18 19  2  0  0  0
 18 20  1  0  0  0
  6  8  1  0  0  0
  6  9  1  0  0  0
 11 12  1  0  0  0
  4  5  1  0  0  0
 26 27  1  0  0  0
 15 16  1  0  0  0
 23 24  1  0  0  0
 20 21  1  0  0  0
M  END
>  <minimizedAffinity>
-5.29488

>  <minimizedRMSD>
1.19673

$$$$
Molport-051-903-300 MCULE-1960301208 MCULE-3718136698 PubChem-155242612


 28 27  0  0  0  0  0  0  0  0999 V2000
    3.9179   19.3359   71.6512 C   0  0  0  0  0  0  0  0  0  0  0  0
    4.5155   18.5555   70.8606 O   0  0  0  0  0  0  0  0  0  0  0  0
    4.6318   20.0103   72.6936 N   0  0  0  0  0  0  0  0  0  0  0  0
    4.1025   20.5156   73.3522 H   0  0  0  0  0  0  0  0  0  0  0  0
    2.4554   19.5826   71.4969 C   0  0  0  0  0  0  0  0  0  0  0  0
    1.6592   18.4335   72.0916 C   0  0  0  0  0  0  0  0  0  0  0  0
    0.9796   20.4572   69.6345 C   0  0  0  0  0  0  0  0  0  0  0  0
    0.1934   20.9937   70.4628 O   0  0  0  0  0  0  0  0  0  0  0  0
    2.1312   19.7432   70.0865 N   0  0  0  0  0  0  0  0  0  0  0  0
    2.7309   19.3429   69.4162 H   0  0  0  0  0  0  0  0  0  0  0  0
   -0.3834   21.5708   67.8983 C   0  0  0  0  0  0  0  0  0  0  0  0
    0.7189   20.5651   68.1693 C   0  0  0  0  0  0  0  0  0  0  0  0
    0.3433   19.2689   67.6328 N   0  0  0  0  0  0  0  0  0  0  0  0
   -0.5111   18.9473   68.0878 H   0  0  0  0  0  0  0  0  0  0  0  0
    1.0932   18.5993   67.8054 H   0  0  0  0  0  0  0  0  0  0  0  0
    6.0840   20.0072   72.8565 C   0  0  0  0  0  0  0  0  0  0  0  0
    6.5506   18.8619   73.7411 C   0  0  0  0  0  0  0  0  0  0  0  0
    6.7788   20.0173   71.5323 C   0  0  0  0  0  0  0  0  0  0  0  0
    7.0026   18.9378   70.9196 O   0  0  0  0  0  0  0  0  0  0  0  0
    7.1645   21.2665   70.9577 N   0  0  0  0  0  0  0  0  0  0  0  0
    7.0999   22.0822   71.5051 H   0  0  0  0  0  0  0  0  0  0  0  0
    7.6499   21.3739   69.5902 C   0  0  0  0  0  0  0  0  0  0  0  0
    6.6485   21.9127   68.7794 O   0  0  0  0  0  0  0  0  0  0  0  0
    6.1432   20.8275   68.0599 C   0  0  0  0  0  0  0  0  0  0  0  0
    4.6722   20.6903   68.2810 C   0  0  0  0  0  0  0  0  0  0  0  0
    4.0616   19.7037   67.7954 O   0  0  0  0  0  0  0  0  0  0  0  0
    3.9716   21.6366   69.0204 O   0  0  0  0  0  0  0  0  0  0  0  0
    4.4215   22.3735   69.3845 H   0  0  0  0  0  0  0  0  0  0  0  0
 12 11  1  0  0  0
 12  7  1  0  0  0
  7  8  2  0  0  0
  7  9  1  0  0  0
  9  5  1  0  0  0
  5  6  1  0  0  0
  5  1  1  0  0  0
  1  2  2  0  0  0
  1  3  1  0  0  0
  3 16  1  0  0  0
 16 17  1  0  0  0
 16 18  1  0  0  0
 18 19  2  0  0  0
 18 20  1  0  0  0
 20 22  1  0  0  0
 22 23  1  0  0  0
 23 24  1  0  0  0
 24 25  1  0  0  0
 25 26  2  0  0  0
 25 27  1  0  0  0
 12 13  1  0  0  0
  9 10  1  0  0  0
  3  4  1  0  0  0
 20 21  1  0  0  0
 27 28  1  0  0  0
 13 14  1  0  0  0
 13 15  1  0  0  0
M  END
>  <minimizedAffinity>
-5.26756

>  <minimizedRMSD>
1.72953

$$$$
MolPort-002-526-283 LN00384650 PubChem-16401611


 41 43  0  0  0  0  0  0  0  0999 V2000
    0.5060   21.3003   69.9030 C   0  0  0  0  0  0  0  0  0  0  0  0
    0.2788   22.2255   68.7028 C   0  0  0  0  0  0  0  0  0  0  0  0
   -0.0650   21.4811   67.5688 O   0  0  0  0  0  0  0  0  0  0  0  0
   -0.8169   23.2409   69.0333 C   0  0  0  0  0  0  0  0  0  0  0  0
   -1.1637   23.9894   67.9064 O   0  0  0  0  0  0  0  0  0  0  0  0
   -2.0525   22.5631   69.6465 C   0  0  0  0  0  0  0  0  0  0  0  0
   -1.7064   21.7784   70.7723 O   0  0  0  0  0  0  0  0  0  0  0  0
   -0.8437   20.7314   70.3767 C   0  0  0  0  0  0  0  0  0  0  0  0
   -0.8869   20.9946   67.7383 H   0  0  0  0  0  0  0  0  0  0  0  0
   -1.5257   23.4005   67.2259 H   0  0  0  0  0  0  0  0  0  0  0  0
   -0.6635   19.7819   71.5505 C   0  0  0  0  0  0  0  0  0  0  0  0
   -0.4970   18.4763   71.0885 O   0  0  0  0  0  0  0  0  0  0  0  0
   -1.2816   18.2091   70.5846 H   0  0  0  0  0  0  0  0  0  0  0  0
   -2.8008   21.7823   68.6620 N   0  0  0  0  0  0  0  0  0  0  0  0
   -2.5656   20.8347   68.5358 H   0  0  0  0  0  0  0  0  0  0  0  0
   -3.8582   22.3341   67.8753 C   0  0  0  0  0  0  0  0  0  0  0  0
   -5.0522   21.6200   67.7394 C   0  0  0  0  0  0  0  0  0  0  0  0
   -6.1000   22.1392   66.9734 C   0  0  0  0  0  0  0  0  0  0  0  0
   -5.9638   23.3790   66.3350 C   0  0  0  0  0  0  0  0  0  0  0  0
   -4.7657   24.0943   66.4719 C   0  0  0  0  0  0  0  0  0  0  0  0
   -3.7180   23.5752   67.2376 C   0  0  0  0  0  0  0  0  0  0  0  0
   -7.0703   23.9209   65.5299 C   0  0  0  0  0  0  0  0  0  0  0  0
   -7.0910   23.7342   64.1524 O   0  0  0  0  0  0  0  0  0  0  0  0
   -8.0078   24.5580   66.0796 O   0  0  0  0  0  0  0  0  0  0  0  0
   -6.3988   23.2618   63.7332 H   0  0  0  0  0  0  0  0  0  0  0  0
    1.3898   20.2718   69.5534 O   0  0  0  0  0  0  0  0  0  0  0  0
    4.4102   20.9445   69.3154 C   0  0  0  0  0  0  0  0  0  0  0  0
    3.3361   21.4001   70.1203 O   0  0  0  0  0  0  0  0  0  0  0  0
    2.4372   20.3556   70.4771 C   0  0  0  0  0  0  0  0  0  0  0  0
    3.0761   18.9745   70.7040 C   0  0  0  0  0  0  0  0  0  0  0  0
    2.3791   18.2797   71.6931 O   0  0  0  0  0  0  0  0  0  0  0  0
    4.5500   19.0945   71.0739 C   0  0  0  0  0  0  0  0  0  0  0  0
    4.6929   19.7251   72.3124 O   0  0  0  0  0  0  0  0  0  0  0  0
    5.3002   19.8876   70.0082 C   0  0  0  0  0  0  0  0  0  0  0  0
    5.8950   19.0218   69.0876 O   0  0  0  0  0  0  0  0  0  0  0  0
    2.4291   18.7698   72.5287 H   0  0  0  0  0  0  0  0  0  0  0  0
    4.3213   20.6198   72.2645 H   0  0  0  0  0  0  0  0  0  0  0  0
    5.2068   18.5139   68.6301 H   0  0  0  0  0  0  0  0  0  0  0  0
    3.2372   19.5478   67.7196 O   0  0  0  0  0  0  0  0  0  0  0  0
    4.0243   20.6930   67.8513 C   0  0  0  0  0  0  0  0  0  0  0  0
    3.0107   19.4168   66.7855 H   0  0  0  0  0  0  0  0  0  0  0  0
 39 40  1  0  0  0
 27 40  1  0  0  0
 27 28  1  0  0  0
 28 29  1  0  0  0
 29 26  1  0  0  0
 29 30  1  0  0  0
  1 26  1  0  0  0
  1  2  1  0  0  0
  2  3  1  0  0  0
  2  4  1  0  0  0
  4  5  1  0  0  0
  4  6  1  0  0  0
  6 14  1  0  0  0
  6  7  1  0  0  0
 14 16  1  0  0  0
 16 17  2  0  0  0
 17 18  1  0  0  0
 18 19  2  0  0  0
 19 20  1  0  0  0
 19 22  1  0  0  0
 20 21  2  0  0  0
 21 16  1  0  0  0
 22 23  1  0  0  0
 22 24  2  0  0  0
  7  8  1  0  0  0
  8 11  1  0  0  0
  8  1  1  0  0  0
 11 12  1  0  0  0
 30 31  1  0  0  0
 30 32  1  0  0  0
 32 33  1  0  0  0
 32 34  1  0  0  0
 34 35  1  0  0  0
 34 27  1  0  0  0
 39 41  1  0  0  0
  3  9  1  0  0  0
  5 10  1  0  0  0
 14 15  1  0  0  0
 23 25  1  0  0  0
 12 13  1  0  0  0
 31 36  1  0  0  0
 33 37  1  0  0  0
 35 38  1  0  0  0
M  END
>  <minimizedAffinity>
-5.22524

>  <minimizedRMSD>
2.25560

$$$$
MolPort-001-749-325 4201109 CSSS00159288263 MCULE-9165280998 PubChem-7128130 ZINC000004201109 ZINC04201109


 39 41  0  0  0  0  0  0  0  0999 V2000
    3.8105   20.2692   70.2126 C   0  0  0  0  0  0  0  0  0  0  0  0
    2.3330   20.0187   70.4545 C   0  0  0  0  0  0  0  0  0  0  0  0
    2.0611   18.5768   70.0449 C   0  0  0  0  0  0  0  0  0  0  0  0
    3.2842   18.0960   69.2861 C   0  0  0  0  0  0  0  0  0  0  0  0
    4.2871   19.1312   69.4415 N   0  0  0  0  0  0  0  0  0  0  0  0
    5.6214   18.9812   68.9217 C   0  0  0  0  0  0  0  0  0  0  0  0
    6.0078   17.8400   68.5469 O   0  0  0  0  0  0  0  0  0  0  0  0
    6.5569   20.1224   68.8136 C   0  0  0  0  0  0  0  0  0  0  0  0
    6.2045   21.2577   68.1501 N   0  0  0  0  0  0  0  0  0  0  0  0
    7.0580   22.3086   68.0348 C   0  0  0  0  0  0  0  0  0  0  0  0
    8.3289   22.2238   68.6032 C   0  0  0  0  0  0  0  0  0  0  0  0
    8.6917   21.0909   69.2596 N   0  0  0  0  0  0  0  0  0  0  0  0
    7.8375   20.0403   69.3748 C   0  0  0  0  0  0  0  0  0  0  0  0
    1.5504   20.9150   69.6189 N   0  0  0  0  0  0  0  0  0  0  0  0
    0.1632   21.1508   69.8570 C   0  0  0  0  0  0  0  0  0  0  0  0
   -0.4196   20.5751   70.8157 O   0  0  0  0  0  0  0  0  0  0  0  0
   -0.5470   22.0480   68.9943 N   0  0  0  0  0  0  0  0  0  0  0  0
    1.9905   21.3727   68.8665 H   0  0  0  0  0  0  0  0  0  0  0  0
   -0.0297   22.4604   68.2652 H   0  0  0  0  0  0  0  0  0  0  0  0
   -1.9325   22.4081   69.0819 C   0  0  0  0  0  0  0  0  0  0  0  0
   -2.5940   22.8247   67.9219 C   0  0  0  0  0  0  0  0  0  0  0  0
   -3.9506   23.1871   67.9610 C   0  0  0  0  0  0  0  0  0  0  0  0
   -4.6418   23.1286   69.1750 C   0  0  0  0  0  0  0  0  0  0  0  0
   -3.9891   22.7138   70.3385 C   0  0  0  0  0  0  0  0  0  0  0  0
   -2.6396   22.3549   70.2923 C   0  0  0  0  0  0  0  0  0  0  0  0
   -4.6310   23.6058   66.8143 O   0  0  0  0  0  0  0  0  0  0  0  0
   -5.9584   23.1952   66.5165 C   0  0  0  0  0  0  0  0  0  0  0  0
    5.0397   19.1863   72.1498 N   0  0  0  0  0  0  0  0  0  0  0  0
    4.5269   20.3637   71.5233 C   0  0  0  0  0  0  0  0  0  0  0  0
    4.6599   21.4888   72.0744 O   0  0  0  0  0  0  0  0  0  0  0  0
    4.8690   18.3110   71.7327 H   0  0  0  0  0  0  0  0  0  0  0  0
    5.8076   19.2412   73.3871 C   0  0  0  0  0  0  0  0  0  0  0  0
    7.0738   18.3851   73.2981 C   0  0  0  0  0  0  0  0  0  0  0  0
    7.3229   17.8551   71.8939 C   0  0  0  0  0  0  0  0  0  0  0  0
    8.2796   19.1778   73.7652 C   0  0  0  0  0  0  0  0  0  0  0  0
    4.9554   18.8453   74.5484 C   0  0  0  0  0  0  0  0  0  0  0  0
    5.3945   18.0013   75.3752 O   0  0  0  0  0  0  0  0  0  0  0  0
    3.4738   20.6821   75.2473 C   0  0  0  0  0  0  0  0  0  0  0  0
    3.6782   19.3903   74.6960 O   0  0  0  0  0  0  0  0  0  0  0  0
 38 39  1  0  0  0
 39 36  1  0  0  0
 36 37  2  0  0  0
 32 36  1  0  0  0
 32 28  1  0  0  0
 32 33  1  0  0  0
 28 29  1  0  0  0
 29 30  2  0  0  0
  1 29  1  0  0  0
  1  2  1  0  0  0
  2  3  1  0  0  0
  2 14  1  0  0  0
  3  4  1  0  0  0
  4  5  1  0  0  0
  5  6  1  0  0  0
  5  1  1  0  0  0
  6  7  2  0  0  0
  6  8  1  0  0  0
  8  9  2  0  0  0
  9 10  1  0  0  0
 10 11  2  0  0  0
 11 12  1  0  0  0
 12 13  2  0  0  0
 13  8  1  0  0  0
 14 15  1  0  0  0
 15 16  2  0  0  0
 15 17  1  0  0  0
 17 20  1  0  0  0
 20 21  2  0  0  0
 21 22  1  0  0  0
 22 26  1  0  0  0
 22 23  2  0  0  0
 26 27  1  0  0  0
 23 24  1  0  0  0
 24 25  2  0  0  0
 25 20  1  0  0  0
 33 34  1  0  0  0
 33 35  1  0  0  0
 28 31  1  0  0  0
 14 18  1  0  0  0
 17 19  1  0  0  0
M  END
>  <minimizedAffinity>
-5.18677

>  <minimizedRMSD>
1.57439

$$$$
Molport-047-048-238 643569855 MCULE-4856755216 PubChem-133076419


 40 41  0  0  0  0  0  0  0  0999 V2000
    2.1125   19.5030   73.5267 C   0  0  0  0  0  0  0  0  0  0  0  0
    1.1450   19.3900   72.3894 C   0  0  0  0  0  0  0  0  0  0  0  0
    0.4364   20.3857   72.0931 O   0  0  0  0  0  0  0  0  0  0  0  0
    1.0723   18.1768   71.6274 N   0  0  0  0  0  0  0  0  0  0  0  0
    0.2889   17.9549   70.4132 C   0  0  0  0  0  0  0  0  0  0  0  0
    0.6629   18.8865   69.3019 C   0  0  0  0  0  0  0  0  0  0  0  0
    1.3990   18.4667   68.3693 O   0  0  0  0  0  0  0  0  0  0  0  0
    0.1986   20.2380   69.3034 N   0  0  0  0  0  0  0  0  0  0  0  0
    0.6436   21.2331   68.3391 C   0  0  0  0  0  0  0  0  0  0  0  0
    1.8644   21.9783   68.8719 C   0  0  0  0  0  0  0  0  0  0  0  0
    3.1142   21.1793   68.7234 C   0  0  0  0  0  0  0  0  0  0  0  0
    3.5091   20.8401   67.5761 O   0  0  0  0  0  0  0  0  0  0  0  0
    3.8844   20.8522   69.8815 N   0  0  0  0  0  0  0  0  0  0  0  0
    5.2062   20.2441   69.7868 C   0  0  0  0  0  0  0  0  0  0  0  0
    6.0761   20.6068   70.9952 C   0  0  0  0  0  0  0  0  0  0  0  0
    5.7604   19.8338   72.2776 C   0  0  0  0  0  0  0  0  0  0  0  0
    4.4400   20.2110   72.8573 C   0  0  0  0  0  0  0  0  0  0  0  0
    4.2049   21.4073   73.1772 O   0  0  0  0  0  0  0  0  0  0  0  0
    3.4581   19.1976   73.0637 N   0  0  0  0  0  0  0  0  0  0  0  0
    1.6042   17.4161   71.9556 H   0  0  0  0  0  0  0  0  0  0  0  0
   -0.4535   20.5089   69.9894 H   0  0  0  0  0  0  0  0  0  0  0  0
    3.5106   21.0434   70.7720 H   0  0  0  0  0  0  0  0  0  0  0  0
    3.6986   18.2594   72.8869 H   0  0  0  0  0  0  0  0  0  0  0  0
   -0.4669   22.1976   68.0695 C   0  0  0  0  0  0  0  0  0  0  0  0
   -1.6032   22.2438   68.8933 C   0  0  0  0  0  0  0  0  0  0  0  0
   -2.6320   23.1494   68.6213 C   0  0  0  0  0  0  0  0  0  0  0  0
   -2.5303   24.0119   67.5266 C   0  0  0  0  0  0  0  0  0  0  0  0
   -1.4032   23.9649   66.7008 C   0  0  0  0  0  0  0  0  0  0  0  0
   -0.3731   23.0598   66.9720 C   0  0  0  0  0  0  0  0  0  0  0  0
   -3.5263   24.8906   67.2647 F   0  0  0  0  0  0  0  0  0  0  0  0
    5.1235   18.7713   69.5325 C   0  0  0  0  0  0  0  0  0  0  0  0
    6.0368   18.2012   68.8817 O   0  0  0  0  0  0  0  0  0  0  0  0
    4.0538   18.0272   70.0161 O   0  0  0  0  0  0  0  0  0  0  0  0
    3.3716   18.4482   70.5013 H   0  0  0  0  0  0  0  0  0  0  0  0
    0.2581   18.3856   74.8128 C   0  0  0  0  0  0  0  0  0  0  0  0
    1.7508   18.6510   74.7500 C   0  0  0  0  0  0  0  0  0  0  0  0
    2.5201   17.3400   74.8128 C   0  0  0  0  0  0  0  0  0  0  0  0
   -1.2119   17.8349   70.6745 C   0  0  0  0  0  0  0  0  0  0  0  0
   -1.8367   19.0822   70.6765 O   0  0  0  0  0  0  0  0  0  0  0  0
   -1.4610   19.6309   71.3826 H   0  0  0  0  0  0  0  0  0  0  0  0
 35 36  1  0  0  0
 36 37  1  0  0  0
  1 36  1  0  0  0
  1  2  1  0  0  0
  2  3  2  0  0  0
  2  4  1  0  0  0
  4  5  1  0  0  0
  5  6  1  0  0  0
  6  7  2  0  0  0
  6  8  1  0  0  0
  8  9  1  0  0  0
  9 10  1  0  0  0
 10 11  1  0  0  0
 11 12  2  0  0  0
 11 13  1  0  0  0
 13 14  1  0  0  0
 14 15  1  0  0  0
 15 16  1  0  0  0
 16 17  1  0  0  0
 17 18  2  0  0  0
 17 19  1  0  0  0
 14 31  1  0  0  0
 31 32  2  0  0  0
 31 33  1  0  0  0
  9 24  1  0  0  0
 24 25  2  0  0  0
 25 26  1  0  0  0
 26 27  2  0  0  0
 27 28  1  0  0  0
 28 29  2  0  0  0
 27 30  1  0  0  0
  5 38  1  0  0  0
 38 39  1  0  0  0
 19  1  1  0  0  0
 29 24  1  0  0  0
  4 20  1  0  0  0
  8 21  1  0  0  0
 13 22  1  0  0  0
 19 23  1  0  0  0
 33 34  1  0  0  0
 39 40  1  0  0  0
M  END
>  <minimizedAffinity>
-5.16486

>  <minimizedRMSD>
3.59410

$$$$
MolPort-035-900-533 PubChem-135699723 ZINC05744418


 31 33  0  0  0  0  0  0  0  0999 V2000
    4.1253   18.6784   70.1682 C   0  0  0  0  0  0  0  0  0  0  0  0
    2.8329   18.5456   70.1552 N   0  0  0  0  0  0  0  0  0  0  0  0
    8.3422   17.9002   72.7043 C   0  0  0  0  0  0  0  0  0  0  0  0
    6.9325   18.3695   72.6858 C   0  0  0  0  0  0  0  0  0  0  0  0
    6.1923   18.3049   71.5048 C   0  0  0  0  0  0  0  0  0  0  0  0
    4.8602   18.7501   71.4590 C   0  0  0  0  0  0  0  0  0  0  0  0
    4.2796   19.2671   72.6418 C   0  0  0  0  0  0  0  0  0  0  0  0
    5.0275   19.3249   73.8224 C   0  0  0  0  0  0  0  0  0  0  0  0
    6.3497   18.8786   73.8458 C   0  0  0  0  0  0  0  0  0  0  0  0
    2.9721   19.7384   72.6620 O   0  0  0  0  0  0  0  0  0  0  0  0
    2.4517   19.7100   71.8833 H   0  0  0  0  0  0  0  0  0  0  0  0
    2.0997   18.4658   68.9624 N   0  0  0  0  0  0  0  0  0  0  0  0
    1.1380   19.4623   68.6243 C   0  0  0  0  0  0  0  0  0  0  0  0
    0.9300   20.4363   69.3949 O   0  0  0  0  0  0  0  0  0  0  0  0
    0.4092   19.3557   67.4078 N   0  0  0  0  0  0  0  0  0  0  0  0
    2.2514   17.7104   68.3495 H   0  0  0  0  0  0  0  0  0  0  0  0
    0.5692   18.5956   66.8030 H   0  0  0  0  0  0  0  0  0  0  0  0
   -0.2555   20.0422   67.1705 H   0  0  0  0  0  0  0  0  0  0  0  0
    4.8926   18.7594   68.8767 C   0  0  0  0  0  0  0  0  0  0  0  0
    4.9720   20.4724   68.2524 S   0  0  0  0  0  0  0  0  0  0  0  0
    5.4452   21.1734   69.8379 C   0  0  0  0  0  0  0  0  0  0  0  0
    4.5494   21.5539   70.7667 N   0  0  0  0  0  0  0  0  0  0  0  0
    5.2731   21.9794   71.7922 N   0  0  0  0  0  0  0  0  0  0  0  0
    6.5630   21.8665   71.5138 N   0  0  0  0  0  0  0  0  0  0  0  0
    6.7011   21.3680   70.2964 N   0  0  0  0  0  0  0  0  0  0  0  0
    7.9741   21.0910   69.6838 C   0  0  0  0  0  0  0  0  0  0  0  0
    8.2825   21.5466   68.3930 C   0  0  0  0  0  0  0  0  0  0  0  0
    9.5253   21.2687   67.8173 C   0  0  0  0  0  0  0  0  0  0  0  0
   10.4753   20.5326   68.5290 C   0  0  0  0  0  0  0  0  0  0  0  0
   10.1822   20.0759   69.8160 C   0  0  0  0  0  0  0  0  0  0  0  0
    8.9385   20.3550   70.3900 C   0  0  0  0  0  0  0  0  0  0  0  0
  3  4  1  0  0  0
  4  5  2  0  0  0
  5  6  1  0  0  0
  6  7  2  0  0  0
  7  8  1  0  0  0
  8  9  2  0  0  0
  7 10  1  0  0  0
  6  1  1  0  0  0
  1  2  2  0  0  0
  2 12  1  0  0  0
 12 13  1  0  0  0
 13 14  2  0  0  0
 13 15  1  0  0  0
  1 19  1  0  0  0
 19 20  1  0  0  0
 20 21  1  0  0  0
 21 22  2  0  0  0
 22 23  1  0  0  0
 23 24  2  0  0  0
 24 25  1  0  0  0
 25 26  1  0  0  0
 26 27  2  0  0  0
 27 28  1  0  0  0
 28 29  2  0  0  0
 29 30  1  0  0  0
 30 31  2  0  0  0
  9  4  1  0  0  0
 25 21  1  0  0  0
 31 26  1  0  0  0
 10 11  1  0  0  0
 12 16  1  0  0  0
 15 17  1  0  0  0
 15 18  1  0  0  0
M  END
>  <minimizedAffinity>
-5.13959

>  <minimizedRMSD>
3.27156

$$$$
MolPort-003-941-483 9915770 MCULE-4017900014 MCULE-4878503750 PubChem-76599 ZINC000009915770 ZINC09915770


 20 19  0  0  0  0  0  0  0  0999 V2000
    1.6689   19.5525   70.2237 C   0  0  0  0  0  0  0  0  0  0  0  0
    1.2632   18.2686   69.8469 O   0  0  0  0  0  0  0  0  0  0  0  0
    1.5271   18.1026   68.9284 H   0  0  0  0  0  0  0  0  0  0  0  0
    0.9685   20.6277   69.3785 C   0  0  0  0  0  0  0  0  0  0  0  0
    1.7678   21.7702   69.3039 O   0  0  0  0  0  0  0  0  0  0  0  0
    1.8859   22.1407   70.1925 H   0  0  0  0  0  0  0  0  0  0  0  0
   -0.4090   21.0217   69.9165 C   0  0  0  0  0  0  0  0  0  0  0  0
   -1.2166   19.8968   70.1055 O   0  0  0  0  0  0  0  0  0  0  0  0
   -1.3650   19.4584   69.2530 H   0  0  0  0  0  0  0  0  0  0  0  0
   -0.8210   23.3228   69.4357 O   0  0  0  0  0  0  0  0  0  0  0  0
   -1.0964   22.0249   69.0054 C   0  0  0  0  0  0  0  0  0  0  0  0
   -1.2624   23.9580   68.8504 H   0  0  0  0  0  0  0  0  0  0  0  0
    3.1976   19.6699   70.1711 C   0  0  0  0  0  0  0  0  0  0  0  0
    3.7366   19.0398   71.2954 O   0  0  0  0  0  0  0  0  0  0  0  0
    3.5040   18.0982   71.2809 H   0  0  0  0  0  0  0  0  0  0  0  0
    3.8077   19.0787   68.8930 C   0  0  0  0  0  0  0  0  0  0  0  0
    3.8560   20.0434   67.8846 O   0  0  0  0  0  0  0  0  0  0  0  0
    4.4159   20.7822   68.1704 H   0  0  0  0  0  0  0  0  0  0  0  0
    5.1923   18.5798   69.1576 C   0  0  0  0  0  0  0  0  0  0  0  0
    5.9164   18.2508   68.2323 O   0  0  0  0  0  0  0  0  0  0  0  0
 10 11  1  0  0  0
  7 11  1  0  0  0
  7  8  1  0  0  0
  7  4  1  0  0  0
  4  5  1  0  0  0
  4  1  1  0  0  0
  1  2  1  0  0  0
  1 13  1  0  0  0
 13 14  1  0  0  0
 13 16  1  0  0  0
 16 17  1  0  0  0
 16 19  1  0  0  0
 19 20  2  0  0  0
 10 12  1  0  0  0
  8  9  1  0  0  0
  5  6  1  0  0  0
  2  3  1  0  0  0
 14 15  1  0  0  0
 17 18  1  0  0  0
M  END
>  <minimizedAffinity>
-5.11107

>  <minimizedRMSD>
2.14872

$$$$
MolPort-047-935-399 MCULE-4634587320 PubChem-71434031


 40 42  0  0  0  0  0  0  0  0999 V2000
    8.0246   19.5744   73.6066 C   0  0  0  0  0  0  0  0  0  0  0  0
    6.5246   19.2422   73.5822 C   0  0  0  0  0  0  0  0  0  0  0  0
    5.9984   18.9960   75.0085 C   0  0  0  0  0  0  0  0  0  0  0  0
    7.0795   18.3941   75.9094 C   0  0  0  0  0  0  0  0  0  0  0  0
    8.3418   19.2951   75.8717 C   0  0  0  0  0  0  0  0  0  0  0  0
    8.3673   20.2314   74.8050 O   0  0  0  0  0  0  0  0  0  0  0  0
    7.3708   17.0884   75.4971 O   0  0  0  0  0  0  0  0  0  0  0  0
    6.3123   18.1214   72.7760 O   0  0  0  0  0  0  0  0  0  0  0  0
    7.6921   17.1024   74.5819 H   0  0  0  0  0  0  0  0  0  0  0  0
    6.7977   17.3646   73.1400 H   0  0  0  0  0  0  0  0  0  0  0  0
    9.6614   18.5392   76.0027 C   0  0  0  0  0  0  0  0  0  0  0  0
    9.8697   17.7493   74.8723 O   0  0  0  0  0  0  0  0  0  0  0  0
    9.1448   17.1104   74.7863 H   0  0  0  0  0  0  0  0  0  0  0  0
    8.3580   20.4036   72.4996 O   0  0  0  0  0  0  0  0  0  0  0  0
    5.3300   21.1269   70.4679 C   0  0  0  0  0  0  0  0  0  0  0  0
    6.1622   20.9458   71.5749 C   0  0  0  0  0  0  0  0  0  0  0  0
    7.5103   20.5939   71.4016 C   0  0  0  0  0  0  0  0  0  0  0  0
    8.0123   20.4208   70.1029 C   0  0  0  0  0  0  0  0  0  0  0  0
    7.1763   20.6031   68.9974 C   0  0  0  0  0  0  0  0  0  0  0  0
    5.8307   20.9576   69.1708 C   0  0  0  0  0  0  0  0  0  0  0  0
    9.6891   19.9782   69.8387 Cl  0  0  0  0  0  0  0  0  0  0  0  0
    4.9739   21.1446   68.0363 N   0  0  0  0  0  0  0  0  0  0  0  0
    5.0502   22.1837   67.3480 O   0  0  0  0  0  0  0  0  0  0  0  0
    4.0541   20.1801   67.6940 O   0  0  0  0  0  0  0  0  0  0  0  0
    4.8456   18.2028   75.0048 O   0  0  0  0  0  0  0  0  0  0  0  0
    3.7815   19.1023   75.1612 C   0  0  0  0  0  0  0  0  0  0  0  0
    2.5828   18.4742   75.9187 C   0  0  0  0  0  0  0  0  0  0  0  0
    1.2698   18.8402   75.2207 C   0  0  0  0  0  0  0  0  0  0  0  0
    1.3122   18.5255   73.7157 C   0  0  0  0  0  0  0  0  0  0  0  0
    2.7256   18.7337   73.1576 C   0  0  0  0  0  0  0  0  0  0  0  0
    3.4294   19.6888   73.9191 O   0  0  0  0  0  0  0  0  0  0  0  0
    0.9146   17.2084   73.4732 O   0  0  0  0  0  0  0  0  0  0  0  0
    0.1771   18.2330   75.8448 O   0  0  0  0  0  0  0  0  0  0  0  0
    2.7126   17.0837   76.0040 O   0  0  0  0  0  0  0  0  0  0  0  0
    1.5261   16.5994   73.9159 H   0  0  0  0  0  0  0  0  0  0  0  0
    0.2613   17.2690   75.7781 H   0  0  0  0  0  0  0  0  0  0  0  0
    2.7232   16.7045   75.1112 H   0  0  0  0  0  0  0  0  0  0  0  0
    2.6497   19.1776   71.7089 C   0  0  0  0  0  0  0  0  0  0  0  0
    3.6551   18.5536   70.9704 O   0  0  0  0  0  0  0  0  0  0  0  0
    4.5211   18.7968   71.3334 H   0  0  0  0  0  0  0  0  0  0  0  0
 15 16  2  0  0  0
 16 17  1  0  0  0
 17 18  2  0  0  0
 17 14  1  0  0  0
 18 19  1  0  0  0
 18 21  1  0  0  0
 19 20  2  0  0  0
 20 22  1  0  0  0
 20 15  1  0  0  0
 22 23  2  0  0  0
 22 24  1  0  0  0
  1 14  1  0  0  0
  1  2  1  0  0  0
  2  3  1  0  0  0
  2  8  1  0  0  0
  3  4  1  0  0  0
  3 25  1  0  0  0
  4  5  1  0  0  0
  4  7  1  0  0  0
  5  6  1  0  0  0
  5 11  1  0  0  0
  6  1  1  0  0  0
 11 12  1  0  0  0
 26 25  1  0  0  0
 26 27  1  0  0  0
 27 28  1  0  0  0
 27 34  1  0  0  0
 28 29  1  0  0  0
 28 33  1  0  0  0
 29 30  1  0  0  0
 29 32  1  0  0  0
 30 31  1  0  0  0
 30 38  1  0  0  0
 31 26  1  0  0  0
 38 39  1  0  0  0
 12 13  1  0  0  0
  7  9  1  0  0  0
 39 40  1  0  0  0
 32 35  1  0  0  0
 33 36  1  0  0  0
 34 37  1  0  0  0
  8 10  1  0  0  0
M  CHG 1  22   1
M  CHG 1  24  -1
M  END
>  <minimizedAffinity>
-5.09319

>  <minimizedRMSD>
6.67113

$$$$
Molport-051-972-265 MCULE-7096028216 MCULE-8209651474 PubChem-412912 PubChem-71317366


 20 19  0  0  0  0  0  0  0  0999 V2000
    2.2175   19.8657   68.4732 C   0  0  0  0  0  0  0  0  0  0  0  0
    1.4733   18.6897   68.3441 O   0  0  0  0  0  0  0  0  0  0  0  0
    1.4446   18.2298   69.1976 H   0  0  0  0  0  0  0  0  0  0  0  0
    1.5482   20.8454   69.4471 C   0  0  0  0  0  0  0  0  0  0  0  0
    1.1796   20.1903   70.6938 N   0  0  0  0  0  0  0  0  0  0  0  0
    0.4933   19.4600   70.5042 H   0  0  0  0  0  0  0  0  0  0  0  0
    0.7782   20.8766   71.3327 H   0  0  0  0  0  0  0  0  0  0  0  0
    0.3523   21.4963   68.8302 C   0  0  0  0  0  0  0  0  0  0  0  0
   -0.0574   21.1627   67.6505 N   0  0  0  0  0  0  0  0  0  0  0  0
   -1.1595   21.7773   67.1067 O   0  0  0  0  0  0  0  0  0  0  0  0
   -1.4565   21.5354   66.2515 H   0  0  0  0  0  0  0  0  0  0  0  0
    3.6667   19.5377   68.8470 C   0  0  0  0  0  0  0  0  0  0  0  0
    3.7107   18.7298   69.9874 O   0  0  0  0  0  0  0  0  0  0  0  0
    3.3248   19.2083   70.7377 H   0  0  0  0  0  0  0  0  0  0  0  0
    4.5018   20.8035   69.0539 C   0  0  0  0  0  0  0  0  0  0  0  0
    4.7077   21.4563   67.8360 O   0  0  0  0  0  0  0  0  0  0  0  0
    5.2033   20.8756   67.2376 H   0  0  0  0  0  0  0  0  0  0  0  0
    5.8463   20.4876   69.6995 C   0  0  0  0  0  0  0  0  0  0  0  0
    6.4401   19.3822   69.0862 O   0  0  0  0  0  0  0  0  0  0  0  0
    6.5888   19.5745   68.1472 H   0  0  0  0  0  0  0  0  0  0  0  0
 18 19  1  0  0  0
 15 18  1  0  0  0
 15 12  1  0  0  0
 15 16  1  0  0  0
 12  1  1  0  0  0
 12 13  1  0  0  0
  1  4  1  0  0  0
  1  2  1  0  0  0
  4  8  1  0  0  0
  4  5  1  0  0  0
  8  9  2  0  0  0
  9 10  1  0  0  0
 10 11  1  0  0  0
  5  6  1  0  0  0
  5  7  1  0  0  0
  2  3  1  0  0  0
 13 14  1  0  0  0
 16 17  1  0  0  0
 19 20  1  0  0  0
M  END
>  <minimizedAffinity>
-5.08316

>  <minimizedRMSD>
1.31909

$$$$
Molport-052-005-659 LN02221130 MCULE-3605806150 MCULE-6720446213 PubChem-11463858 PubChem-145707608 ZINC000015721327


 38 37  0  0  0  0  0  0  0  0999 V2000
    4.8163   19.3797   74.2142 C   0  0  0  0  0  0  0  0  0  0  0  0
    5.3949   20.4516   74.5360 O   0  0  0  0  0  0  0  0  0  0  0  0
    4.7013   18.9980   72.8428 N   0  0  0  0  0  0  0  0  0  0  0  0
    4.2264   18.1639   72.6239 H   0  0  0  0  0  0  0  0  0  0  0  0
    4.2072   18.5240   75.2710 C   0  0  0  0  0  0  0  0  0  0  0  0
    1.7059   18.8242   75.0114 C   0  0  0  0  0  0  0  0  0  0  0  0
    1.6758   18.0327   74.0291 O   0  0  0  0  0  0  0  0  0  0  0  0
    2.9325   19.0839   75.6977 N   0  0  0  0  0  0  0  0  0  0  0  0
    2.9148   19.6654   76.4919 H   0  0  0  0  0  0  0  0  0  0  0  0
    0.4535   19.4961   75.4740 C   0  0  0  0  0  0  0  0  0  0  0  0
    0.6371   20.9369   75.4641 N   0  0  0  0  0  0  0  0  0  0  0  0
    0.8363   21.2477   74.5132 H   0  0  0  0  0  0  0  0  0  0  0  0
    1.4170   21.1845   76.0731 H   0  0  0  0  0  0  0  0  0  0  0  0
   -0.7251   19.1274   74.5872 C   0  0  0  0  0  0  0  0  0  0  0  0
   -1.4593   17.9229   75.1531 C   0  0  0  0  0  0  0  0  0  0  0  0
   -2.1217   17.1293   74.0388 C   0  0  0  0  0  0  0  0  0  0  0  0
   -1.1740   16.0841   73.4709 C   0  0  0  0  0  0  0  0  0  0  0  0
   -0.3198   16.6758   72.4562 N   0  0  0  0  0  0  0  0  0  0  0  0
   -0.8957   17.0417   71.6981 H   0  0  0  0  0  0  0  0  0  0  0  0
    0.3142   15.9660   72.0894 H   0  0  0  0  0  0  0  0  0  0  0  0
    5.2562   19.7897   71.7551 C   0  0  0  0  0  0  0  0  0  0  0  0
    4.1465   20.2794   70.8834 C   0  0  0  0  0  0  0  0  0  0  0  0
    4.0823   21.5038   70.5938 O   0  0  0  0  0  0  0  0  0  0  0  0
    3.1630   19.3640   70.3909 N   0  0  0  0  0  0  0  0  0  0  0  0
    3.2684   18.4058   70.5907 H   0  0  0  0  0  0  0  0  0  0  0  0
    2.0132   19.7910   69.6068 C   0  0  0  0  0  0  0  0  0  0  0  0
    0.9161   20.2503   70.5138 C   0  0  0  0  0  0  0  0  0  0  0  0
    0.1518   21.1803   70.1482 O   0  0  0  0  0  0  0  0  0  0  0  0
    0.7401   19.6620   71.7606 O   0  0  0  0  0  0  0  0  0  0  0  0
    1.3076   18.9692   72.0361 H   0  0  0  0  0  0  0  0  0  0  0  0
    1.5384   18.6366   68.7407 C   0  0  0  0  0  0  0  0  0  0  0  0
    0.7253   19.1138   67.7121 O   0  0  0  0  0  0  0  0  0  0  0  0
   -0.0468   19.5618   68.0916 H   0  0  0  0  0  0  0  0  0  0  0  0
    6.2447   18.9494   70.9539 C   0  0  0  0  0  0  0  0  0  0  0  0
    6.9366   19.7740   69.9211 C   0  0  0  0  0  0  0  0  0  0  0  0
    7.7045   20.7097   70.2663 O   0  0  0  0  0  0  0  0  0  0  0  0
    6.7441   19.4980   68.5745 O   0  0  0  0  0  0  0  0  0  0  0  0
    6.1727   18.8018   68.3159 H   0  0  0  0  0  0  0  0  0  0  0  0
 15 16  1  0  0  0
 15 14  1  0  0  0
 16 17  1  0  0  0
 17 18  1  0  0  0
 10 14  1  0  0  0
 10  6  1  0  0  0
 10 11  1  0  0  0
  6  7  2  0  0  0
  6  8  1  0  0  0
  8  5  1  0  0  0
  5  1  1  0  0  0
  1  2  2  0  0  0
  1  3  1  0  0  0
 21  3  1  0  0  0
 21 34  1  0  0  0
 21 22  1  0  0  0
 34 35  1  0  0  0
 35 36  2  0  0  0
 35 37  1  0  0  0
 22 23  2  0  0  0
 22 24  1  0  0  0
 26 24  1  0  0  0
 26 31  1  0  0  0
 26 27  1  0  0  0
 31 32  1  0  0  0
 27 28  2  0  0  0
 27 29  1  0  0  0
 18 19  1  0  0  0
 18 20  1  0  0  0
  8  9  1  0  0  0
  3  4  1  0  0  0
 37 38  1  0  0  0
 24 25  1  0  0  0
 32 33  1  0  0  0
 29 30  1  0  0  0
 11 12  1  0  0  0
 11 13  1  0  0  0
M  END
>  <minimizedAffinity>
-5.07731

>  <minimizedRMSD>
2.13603

$$$$
Molport-053-146-250 3872257 CHEMBL3809116 LN02181368 MCULE-4417427444 MCULE-6280214853 PubChem-151610 ZINC000003872257


 34 34  0  0  0  0  0  0  0  0999 V2000
    4.4019   20.1919   73.4777 C   0  0  0  0  0  0  0  0  0  0  0  0
    5.8902   20.6890   71.4717 N   0  0  0  0  0  0  0  0  0  0  0  0
    5.3749   21.0739   72.7503 C   0  0  0  0  0  0  0  0  0  0  0  0
    5.7183   22.1718   73.2663 O   0  0  0  0  0  0  0  0  0  0  0  0
    5.5598   19.8587   71.0586 H   0  0  0  0  0  0  0  0  0  0  0  0
    6.8854   21.4792   70.7579 C   0  0  0  0  0  0  0  0  0  0  0  0
    6.7153   21.3675   69.2748 C   0  0  0  0  0  0  0  0  0  0  0  0
    7.3898   22.1069   68.5119 O   0  0  0  0  0  0  0  0  0  0  0  0
    5.8294   20.4448   68.7301 O   0  0  0  0  0  0  0  0  0  0  0  0
    5.3244   19.8915   69.2929 H   0  0  0  0  0  0  0  0  0  0  0  0
    8.3144   21.1712   71.2420 C   0  0  0  0  0  0  0  0  0  0  0  0
    7.9106   18.7709   70.4599 C   0  0  0  0  0  0  0  0  0  0  0  0
    8.9353   19.8403   70.7891 C   0  0  0  0  0  0  0  0  0  0  0  0
    9.9125   20.0232   69.6438 C   0  0  0  0  0  0  0  0  0  0  0  0
    3.7488   19.2541   72.5699 N   0  0  0  0  0  0  0  0  0  0  0  0
    2.3315   19.2024   72.3959 C   0  0  0  0  0  0  0  0  0  0  0  0
    1.5794   20.0076   73.0068 O   0  0  0  0  0  0  0  0  0  0  0  0
    4.3093   18.6298   72.0549 H   0  0  0  0  0  0  0  0  0  0  0  0
    1.7370   18.1950   71.4727 C   0  0  0  0  0  0  0  0  0  0  0  0
    1.7690   18.6841   70.1012 N   0  0  0  0  0  0  0  0  0  0  0  0
    0.6693   19.3692   69.4975 C   0  0  0  0  0  0  0  0  0  0  0  0
   -0.4067   19.5405   70.1305 O   0  0  0  0  0  0  0  0  0  0  0  0
    2.5828   18.5366   69.5671 H   0  0  0  0  0  0  0  0  0  0  0  0
    0.7840   19.8524   68.0958 C   0  0  0  0  0  0  0  0  0  0  0  0
    0.2387   18.8574   67.1898 N   0  0  0  0  0  0  0  0  0  0  0  0
    0.7587   17.9855   67.2895 H   0  0  0  0  0  0  0  0  0  0  0  0
    0.3175   19.1924   66.2296 H   0  0  0  0  0  0  0  0  0  0  0  0
    5.0567   19.4682   74.6623 C   0  0  0  0  0  0  0  0  0  0  0  0
    6.4748   19.0600   74.4081 C   0  0  0  0  0  0  0  0  0  0  0  0
    6.7697   17.8090   73.8510 C   0  0  0  0  0  0  0  0  0  0  0  0
    8.0993   17.4258   73.6517 C   0  0  0  0  0  0  0  0  0  0  0  0
    9.1374   18.2890   74.0151 C   0  0  0  0  0  0  0  0  0  0  0  0
    8.8458   19.5341   74.5804 C   0  0  0  0  0  0  0  0  0  0  0  0
    7.5161   19.9171   74.7804 C   0  0  0  0  0  0  0  0  0  0  0  0
 12 13  1  0  0  0
 13 14  1  0  0  0
 13 11  1  0  0  0
  6 11  1  0  0  0
  6  7  1  0  0  0
  6  2  1  0  0  0
  7  8  2  0  0  0
  7  9  1  0  0  0
  2  3  1  0  0  0
  3  4  2  0  0  0
  1  3  1  0  0  0
  1 28  1  0  0  0
  1 15  1  0  0  0
 28 29  1  0  0  0
 29 30  2  0  0  0
 30 31  1  0  0  0
 31 32  2  0  0  0
 32 33  1  0  0  0
 33 34  2  0  0  0
 34 29  1  0  0  0
 15 16  1  0  0  0
 16 17  2  0  0  0
 16 19  1  0  0  0
 19 20  1  0  0  0
 20 21  1  0  0  0
 21 22  2  0  0  0
 21 24  1  0  0  0
 24 25  1  0  0  0
  9 10  1  0  0  0
  2  5  1  0  0  0
 15 18  1  0  0  0
 20 23  1  0  0  0
 25 26  1  0  0  0
 25 27  1  0  0  0
M  END
>  <minimizedAffinity>
-5.07126

>  <minimizedRMSD>
2.27692

$$$$
MolPort-047-919-236 PubChem-14189369


 35 38  0  0  0  0  0  0  0  0999 V2000
   -0.3606   20.9620   68.4294 C   0  0  0  0  0  0  0  0  0  0  0  0
    0.1666   19.9180   67.7096 N   0  0  0  0  0  0  0  0  0  0  0  0
    0.7806   18.8651   68.3261 C   0  0  0  0  0  0  0  0  0  0  0  0
    1.2538   17.9124   67.6528 O   0  0  0  0  0  0  0  0  0  0  0  0
    0.8589   18.8819   69.7107 C   0  0  0  0  0  0  0  0  0  0  0  0
    0.3386   19.9184   70.3995 C   0  0  0  0  0  0  0  0  0  0  0  0
   -0.2775   20.9635   69.7973 N   0  0  0  0  0  0  0  0  0  0  0  0
    0.5135   19.7146   71.7075 N   0  0  0  0  0  0  0  0  0  0  0  0
    1.1406   18.5112   71.7823 C   0  0  0  0  0  0  0  0  0  0  0  0
    1.3777   17.9689   70.5535 N   0  0  0  0  0  0  0  0  0  0  0  0
   -0.6546   21.7028   70.3268 H   0  0  0  0  0  0  0  0  0  0  0  0
    0.0365   20.5471   72.8045 C   0  0  0  0  0  0  0  0  0  0  0  0
   -1.4371   20.2997   73.0480 C   0  0  0  0  0  0  0  0  0  0  0  0
   -1.5414   20.1970   74.5514 C   0  0  0  0  0  0  0  0  0  0  0  0
   -0.1448   20.5077   75.0330 C   0  0  0  0  0  0  0  0  0  0  0  0
    0.7513   20.2625   73.9806 O   0  0  0  0  0  0  0  0  0  0  0  0
   -2.4456   21.1192   75.0861 O   0  0  0  0  0  0  0  0  0  0  0  0
   -2.1775   21.3709   72.5397 O   0  0  0  0  0  0  0  0  0  0  0  0
   -2.1724   22.0178   74.8437 H   0  0  0  0  0  0  0  0  0  0  0  0
   -1.8700   22.1972   72.9442 H   0  0  0  0  0  0  0  0  0  0  0  0
    0.1952   19.6288   76.2224 C   0  0  0  0  0  0  0  0  0  0  0  0
    1.5522   19.3070   76.2009 O   0  0  0  0  0  0  0  0  0  0  0  0
    1.7581   18.8284   75.3828 H   0  0  0  0  0  0  0  0  0  0  0  0
   -1.2665   23.3378   68.2639 C   0  0  0  0  0  0  0  0  0  0  0  0
   -0.8988   23.6541   69.4262 O   0  0  0  0  0  0  0  0  0  0  0  0
   -1.0038   22.0343   67.7317 N   0  0  0  0  0  0  0  0  0  0  0  0
   -1.2902   21.8605   66.8059 H   0  0  0  0  0  0  0  0  0  0  0  0
   -1.9994   24.3342   67.4325 C   0  0  0  0  0  0  0  0  0  0  0  0
   -3.3339   23.8949   67.1969 O   0  0  0  0  0  0  0  0  0  0  0  0
   -5.6809   21.8755   70.0408 C   0  0  0  0  0  0  0  0  0  0  0  0
   -4.9152   22.9755   70.4370 C   0  0  0  0  0  0  0  0  0  0  0  0
   -4.1313   23.6549   69.5002 C   0  0  0  0  0  0  0  0  0  0  0  0
   -4.1080   23.2365   68.1592 C   0  0  0  0  0  0  0  0  0  0  0  0
   -4.8793   22.1359   67.7703 C   0  0  0  0  0  0  0  0  0  0  0  0
   -5.6634   21.4563   68.7076 C   0  0  0  0  0  0  0  0  0  0  0  0
 30 31  2  0  0  0
 31 32  1  0  0  0
 32 33  2  0  0  0
 33 34  1  0  0  0
 33 29  1  0  0  0
 34 35  2  0  0  0
 35 30  1  0  0  0
 29 28  1  0  0  0
 28 24  1  0  0  0
 24 25  2  0  0  0
 24 26  1  0  0  0
 26  1  1  0  0  0
  1  2  2  0  0  0
  2  3  1  0  0  0
  3  4  2  0  0  0
  3  5  1  0  0  0
  5  6  2  0  0  0
  6  7  1  0  0  0
  6  8  1  0  0  0
  7  1  1  0  0  0
  8  9  1  0  0  0
  9 10  2  0  0  0
 10  5  1  0  0  0
 12  8  1  0  0  0
 12 13  1  0  0  0
 13 14  1  0  0  0
 13 18  1  0  0  0
 14 15  1  0  0  0
 14 17  1  0  0  0
 15 16  1  0  0  0
 15 21  1  0  0  0
 16 12  1  0  0  0
 21 22  1  0  0  0
 26 27  1  0  0  0
  7 11  1  0  0  0
 22 23  1  0  0  0
 17 19  1  0  0  0
 18 20  1  0  0  0
M  END
>  <minimizedAffinity>
-5.04232

>  <minimizedRMSD>
5.59533

$$$$
MolPort-046-627-488 1549162248 CSSS00159305966 MCULE-8117645548 PubChem-137918464 ZINC001549162248


 30 32  0  0  0  0  0  0  0  0999 V2000
    1.3110   20.0044   70.6198 C   0  0  0  0  0  0  0  0  0  0  0  0
    1.0107   20.1927   69.2613 O   0  0  0  0  0  0  0  0  0  0  0  0
    2.1655   19.8038   68.5625 C   0  0  0  0  0  0  0  0  0  0  0  0
    2.8875   18.7377   69.3579 C   0  0  0  0  0  0  0  0  0  0  0  0
    2.5489   17.4805   68.8589 O   0  0  0  0  0  0  0  0  0  0  0  0
    2.3252   18.8861   70.7407 C   0  0  0  0  0  0  0  0  0  0  0  0
    1.5854   17.3717   68.8834 H   0  0  0  0  0  0  0  0  0  0  0  0
    3.3659   19.2107   71.7144 N   0  0  0  0  0  0  0  0  0  0  0  0
    3.2924   18.9661   73.1262 C   0  0  0  0  0  0  0  0  0  0  0  0
    2.2676   18.4283   73.6227 O   0  0  0  0  0  0  0  0  0  0  0  0
    4.3738   19.3250   73.9960 N   0  0  0  0  0  0  0  0  0  0  0  0
    4.1869   19.6330   71.3724 H   0  0  0  0  0  0  0  0  0  0  0  0
    4.2460   19.1330   74.9531 H   0  0  0  0  0  0  0  0  0  0  0  0
    5.6209   19.9320   73.6303 C   0  0  0  0  0  0  0  0  0  0  0  0
    5.7632   21.3213   73.4923 C   0  0  0  0  0  0  0  0  0  0  0  0
    6.9955   21.8746   73.1329 C   0  0  0  0  0  0  0  0  0  0  0  0
    8.0950   21.0422   72.9084 C   0  0  0  0  0  0  0  0  0  0  0  0
    9.2897   21.5769   72.5601 F   0  0  0  0  0  0  0  0  0  0  0  0
    7.9613   19.6578   73.0432 C   0  0  0  0  0  0  0  0  0  0  0  0
    6.7279   19.1063   73.4029 C   0  0  0  0  0  0  0  0  0  0  0  0
    0.0447   19.6969   71.4163 C   0  0  0  0  0  0  0  0  0  0  0  0
   -2.3721   21.8161   69.8290 C   0  0  0  0  0  0  0  0  0  0  0  0
   -1.0490   21.4497   70.0163 C   0  0  0  0  0  0  0  0  0  0  0  0
   -1.0956   20.4524   70.9163 N   0  0  0  0  0  0  0  0  0  0  0  0
   -2.3512   20.2147   71.2533 N   0  0  0  0  0  0  0  0  0  0  0  0
   -3.1577   21.0380   70.6042 N   0  0  0  0  0  0  0  0  0  0  0  0
   -4.0264   23.6612   69.5263 C   0  0  0  0  0  0  0  0  0  0  0  0
   -2.8688   22.8972   68.9066 C   0  0  0  0  0  0  0  0  0  0  0  0
   -1.7485   23.8770   68.6129 C   0  0  0  0  0  0  0  0  0  0  0  0
   -3.3417   22.2823   67.6028 C   0  0  0  0  0  0  0  0  0  0  0  0
 27 28  1  0  0  0
 28 29  1  0  0  0
 28 30  1  0  0  0
 28 22  1  0  0  0
 22 23  2  0  0  0
 23 24  1  0  0  0
 24 21  1  0  0  0
  1 21  1  0  0  0
  1  2  1  0  0  0
  2  3  1  0  0  0
  3  4  1  0  0  0
  4  5  1  0  0  0
  4  6  1  0  0  0
  6  8  1  0  0  0
  8  9  1  0  0  0
  9 10  2  0  0  0
  9 11  1  0  0  0
 11 14  1  0  0  0
 14 15  2  0  0  0
 15 16  1  0  0  0
 16 17  2  0  0  0
 17 18  1  0  0  0
 17 19  1  0  0  0
 19 20  2  0  0  0
 24 25  1  0  0  0
 25 26  2  0  0  0
 26 22  1  0  0  0
  6  1  1  0  0  0
 20 14  1  0  0  0
  5  7  1  0  0  0
  8 12  1  0  0  0
 11 13  1  0  0  0
M  END
>  <minimizedAffinity>
-5.03761

>  <minimizedRMSD>
9.00669

$$$$
