MolPort-006-822-498 CSSS00020617458 LN01285449 MCULE-4568201349 PubChem-3659


 36 39  0  0  0  0  0  0  0  0999 V2000
    6.4934   17.1203   68.7952 C   0  0  0  0  0
    6.3332   18.8780   70.3438 C   0  0  0  0  0
    7.4476   19.8618   69.9682 C   0  0  0  0  0
    6.9928   21.3251   69.8199 C   0  0  0  0  0
    5.4993   21.4769   69.4810 C   0  0  0  0  0
    4.5911   20.7519   70.4878 C   0  0  0  0  0
    2.7532   21.5432   71.4452 C   0  0  0  0  0
    0.9646   20.6543   72.5945 C   0  0  0  0  0
    0.5909   19.6546   71.4975 C   0  0  0  0  0
    0.1309   21.9368   72.5204 C   0  0  0  0  0
    0.6238   22.8860   71.4251 C   0  0  0  0  0
    1.0459   23.1226   69.2784 C   0  0  0  0  0
    2.1164   22.9260   71.2518 C   0  0  0  0  0
   -0.7013   24.2409   68.2566 C   0  0  0  0  0
   -1.4452   25.5801   68.1845 C   0  0  0  0  0
   -0.7877   26.5909   67.2542 C   0  0  0  0  0
   -0.6246   23.4575   66.9319 C   0  0  0  0  0
   -0.0120   22.0800   67.1959 C   0  0  0  0  0
    1.2552   22.1994   68.0557 C   0  0  0  0  0
    5.2672   19.5632   71.1960 C   0  0  0  0  0
    5.7389   18.3182   69.1390 N   0  0  0  0  0
    7.8034   21.9818   68.8061 N   0  0  0  0  0
   -2.8245   25.3631   67.7888 N   0  0  0  0  0
    5.2356   21.0113   68.1907 O   0  0  0  0  0
    4.1443   21.6649   71.4420 O   0  0  0  0  0
    2.3503   20.9423   72.6602 O   0  0  0  0  0
    1.2123   18.4252   71.7379 O   0  0  0  0  0
    0.1847   22.5898   73.7547 O   0  0  0  0  0
    0.1248   22.5349   70.1785 O   0  0  0  0  0
    2.2971   23.3161   69.9195 O   0  0  0  0  0
    0.5743   24.3903   68.8455 O   0  0  0  0  0
    0.3844   27.0735   67.8284 O   0  0  0  0  0
    0.1482   24.1455   65.9903 O   0  0  0  0  0
   -0.9534   21.2639   67.8176 O   0  0  0  0  0
    1.7052   20.9335   68.4514 O   0  0  0  0  0
    4.3038   18.6448   71.5937 O   0  0  0  0  0
  1 21  1  0  0  0
  2 21  1  0  0  0
  2  3  1  0  0  0
  3  4  1  0  0  0
  4 22  1  0  0  0
  4  5  1  0  0  0
  5 24  1  0  0  0
  5  6  1  0  0  0
  6 25  1  0  0  0
  6 20  1  0  0  0
  7 25  1  0  0  0
  7 26  1  0  0  0
  8 26  1  0  0  0
  8  9  1  0  0  0
  8 10  1  0  0  0
  9 27  1  0  0  0
 10 28  1  0  0  0
 10 11  1  0  0  0
 11 29  1  0  0  0
 12 29  1  0  0  0
 12 30  1  0  0  0
 12 31  1  0  0  0
 13 30  1  0  0  0
 13  7  1  0  0  0
 13 11  1  0  0  0
 14 31  1  0  0  0
 14 15  1  0  0  0
 14 17  1  0  0  0
 15 23  1  0  0  0
 15 16  1  0  0  0
 16 32  1  0  0  0
 17 33  1  0  0  0
 17 18  1  0  0  0
 18 34  1  0  0  0
 18 19  1  0  0  0
 19 35  1  0  0  0
 19 12  1  0  0  0
 20 36  1  0  0  0
 20  2  1  0  0  0
M  END
> <rmsd>
0.715923369

$$$$
Molport-053-110-193 MCULE-1924363487 MCULE-7391755458


 41 41  0  0  0  0  0  0  0  0999 V2000
    3.1256   17.0318   72.6607 C   0  0  0  0  0
    3.5741   17.9230   71.5492 C   0  0  0  0  0
    3.7118   20.2722   70.5610 C   0  0  0  0  0
    4.2953   21.5728   71.1849 C   0  0  0  0  0
    4.6503   22.6702   70.1550 C   0  0  0  0  0
    5.7035   22.2320   69.1701 C   0  0  0  0  0
    7.1391   22.3717   69.4628 C   0  0  0  0  0
    2.5041   20.4656   69.5908 C   0  0  0  0  0
    1.2707   21.1487   70.2431 C   0  0  0  0  0
    0.2696   21.7234   69.2012 C   0  0  0  0  0
   -0.5555   20.6275   68.4983 C   0  0  0  0  0
   -0.5649   23.9510   69.4344 C   0  0  0  0  0
   -1.7014   24.7134   70.1802 C   0  0  0  0  0
   -2.9778   24.7451   69.3293 C   0  0  0  0  0
   -2.6906   25.4592   67.9886 C   0  0  0  0  0
   -4.2094   27.4946   67.7648 C   0  0  0  0  0
   -4.4349   28.9516   68.0071 C   0  0  0  0  0
   -1.2129   25.2380   67.5365 C   0  0  0  0  0
   -1.0493   25.2362   65.9956 C   0  0  0  0  0
   -1.4815   26.5531   65.2926 C   0  0  0  0  0
   -0.6217   27.7741   65.6868 C   0  0  0  0  0
    0.7781   24.5468   69.8155 C   0  0  0  0  0
    4.1556   17.4239   70.5482 O   0  0  0  0  0
    5.4402   21.2361   71.9283 O   0  0  0  0  0
    5.3489   21.7176   68.0760 O   0  0  0  0  0
    8.0802   21.9241   68.5443 O   0  0  0  0  0
    7.5277   22.8989   70.5386 O   0  0  0  0  0
    2.1256   19.2136   69.0762 O   0  0  0  0  0
    0.6269   20.2531   71.1148 O   0  0  0  0  0
   -1.5046   21.2006   67.6399 O   0  0  0  0  0
   -0.6282   22.5984   69.8788 O   0  0  0  0  0
   -3.4267   23.4367   69.0796 O   0  0  0  0  0
   -5.1116   26.8082   67.2132 O   0  0  0  0  0
   -0.7478   23.9853   68.0146 O   0  0  0  0  0
    0.2951   24.9529   65.6898 O   0  0  0  0  0
   -1.4742   26.3762   63.8967 O   0  0  0  0  0
   -1.0096   28.9028   64.9507 O   0  0  0  0  0
    1.7048   24.8808   68.8347 O   0  0  0  0  0
    1.0856   24.6938   71.0286 O   0  0  0  0  0
    3.3535   19.3382   71.6363 N   0  0  0  0  0
   -2.9616   26.8946   68.1397 N   0  0  0  0  0
  1  2  1  0  0  0
  2 40  1  0  0  0
  3 40  1  0  0  0
  3  4  1  0  0  0
  3  8  1  0  0  0
  4 24  1  0  0  0
  4  5  1  0  0  0
  5  6  1  0  0  0
  6  7  1  0  0  0
  7 26  1  0  0  0
  8 28  1  0  0  0
  8  9  1  0  0  0
  9 29  1  0  0  0
  9 10  1  0  0  0
 10 11  1  0  0  0
 10 31  1  0  0  0
 11 30  1  0  0  0
 12 31  1  0  0  0
 12 13  1  0  0  0
 12 22  1  0  0  0
 12 34  1  0  0  0
 13 14  1  0  0  0
 14 32  1  0  0  0
 14 15  1  0  0  0
 15 41  1  0  0  0
 15 18  1  0  0  0
 17 16  1  0  0  0
 18 34  1  0  0  0
 18 19  1  0  0  0
 19 35  1  0  0  0
 19 20  1  0  0  0
 20 36  1  0  0  0
 20 21  1  0  0  0
 21 37  1  0  0  0
 22 38  1  0  0  0
 41 16  1  0  0  0
  2 23  2  0  0  0
  6 25  2  0  0  0
  7 27  2  0  0  0
 16 33  2  0  0  0
 22 39  2  0  0  0
M  CHG  2  26  -1  38  -1
M  END
> <rmsd>
0.793810904

$$$$
Molport-046-935-292


 23 23  0  0  0  0  0  0  0  0999 V2000
    3.0507   25.0779   65.0091 O   0  0  0  0  0
    0.5566   24.3705   66.0017 O   0  0  0  0  0
    2.6587   22.7847   68.5360 O   0  0  0  0  0
    4.7964   21.9372   68.1643 O   0  0  0  0  0
    7.4730   21.6284   68.9211 O   0  0  0  0  0
    5.3338   21.4086   71.7496 O   0  0  0  0  0
    3.3658   19.4091   71.1143 O   0  0  0  0  0
    1.7189   20.0888   68.8772 O   0  0  0  0  0
    0.3280   22.3555   69.8153 O   0  0  0  0  0
   -1.6195   24.4540   68.1104 O   0  0  0  0  0
   -1.0581   20.9846   67.8228 O   0  0  0  0  0
    2.9201   24.0071   65.9053 C   0  0  0  0  0
    1.6929   24.2066   66.8127 C   0  0  0  0  0
    1.4727   23.0101   67.7830 C   0  0  0  0  0
    3.4075   21.6524   68.0975 C   0  0  0  0  0
    5.2105   22.2455   69.4887 C   0  0  0  0  0
    6.6868   22.6616   69.4494 C   0  0  0  0  0
    4.9902   21.0424   70.4373 C   0  0  0  0  0
    3.5168   20.6046   70.3923 C   0  0  0  0  0
    3.0872   20.3929   68.9332 C   0  0  0  0  0
    0.3353   23.3194   68.7944 C   0  0  0  0  0
   -1.0344   23.3817   68.1411 C   0  0  0  0  0
   -1.7021   22.1875   67.5004 C   0  0  0  0  0
 12  1  1  0  0  0
 12 13  1  0  0  0
 13  2  1  0  0  0
 13 14  1  0  0  0
 14  3  1  0  0  0
 14 21  1  0  0  0
 15  3  1  0  0  0
 15  4  1  0  0  0
 16  4  1  0  0  0
 16 17  1  0  0  0
 16 18  1  0  0  0
 17  5  1  0  0  0
 18  6  1  0  0  0
 18 19  1  0  0  0
 19  7  1  0  0  0
 19 20  1  0  0  0
 20  8  1  0  0  0
 20 15  1  0  0  0
 21  9  1  0  0  0
 21 22  1  0  0  0
 23 22  1  0  0  0
 23 11  1  0  0  0
 22 10  2  0  0  0
M  END
> <rmsd>
0.654444337

$$$$
MolPort-047-145-608 CSSS00161148745 MCULE-2432798859 PubChem-75009172


 33 35  0  0  0  0  0  0  0  0999 V2000
    7.2166   25.7017   65.6156 C   0  0  0  0  0
    7.7547   24.4112   65.6455 C   0  0  0  0  0
    7.6845   23.6508   66.8171 C   0  0  0  0  0
    7.0646   24.1752   67.9615 C   0  0  0  0  0
    6.5411   25.4723   67.9299 C   0  0  0  0  0
    6.6141   26.2336   66.7587 C   0  0  0  0  0
    6.9896   23.3833   69.2347 C   0  0  0  0  0
    8.1996   23.6139   70.0871 C   0  0  0  0  0
    5.4807   21.7477   69.1521 C   0  0  0  0  0
    5.2830   20.8382   70.3728 C   0  0  0  0  0
    4.1029   19.8777   70.1607 C   0  0  0  0  0
    2.9922   20.5547   69.3618 C   0  0  0  0  0
    3.5452   21.1523   68.0528 C   0  0  0  0  0
    2.9629   22.5341   67.7728 C   0  0  0  0  0
    0.9678   23.3194   68.3512 C   0  0  0  0  0
   -0.1175   24.1297   67.6267 C   0  0  0  0  0
   -1.2421   23.2199   67.1421 C   0  0  0  0  0
   -1.4564   22.0223   68.0725 C   0  0  0  0  0
   -0.8602   22.2501   69.4766 C   0  0  0  0  0
   -1.6963   23.2184   70.3027 C   0  0  0  0  0
    9.3367   23.2148   69.7092 O   0  0  0  0  0
    8.0669   24.2626   71.3109 O   0  0  0  0  0
    6.8410   22.0142   68.9745 O   0  0  0  0  0
    4.9606   21.1575   67.9804 O   0  0  0  0  0
    1.6022   22.4262   67.4777 O   0  0  0  0  0
    0.5111   22.6302   69.5099 O   0  0  0  0  0
   -2.9646   22.6861   70.5312 O   0  0  0  0  0
   -0.9018   20.8760   67.5011 O   0  0  0  0  0
   -2.4258   23.9519   67.0400 O   0  0  0  0  0
    0.4316   24.8259   66.5481 O   0  0  0  0  0
    1.9817   19.6363   69.0671 O   0  0  0  0  0
    3.6137   19.4080   71.3823 O   0  0  0  0  0
    5.0743   21.6364   71.5021 O   0  0  0  0  0
  2  3  1  0  0  0
  4  5  1  0  0  0
  6  1  1  0  0  0
  7  4  1  0  0  0
  7  8  1  0  0  0
  7 23  1  0  0  0
  8 22  1  0  0  0
  9 23  1  0  0  0
  9 10  1  0  0  0
  9 24  1  0  0  0
 10 11  1  0  0  0
 10 33  1  0  0  0
 11 12  1  0  0  0
 11 32  1  0  0  0
 12 13  1  0  0  0
 12 31  1  0  0  0
 13 24  1  0  0  0
 13 14  1  0  0  0
 14 25  1  0  0  0
 15 25  1  0  0  0
 15 16  1  0  0  0
 15 26  1  0  0  0
 16 17  1  0  0  0
 16 30  1  0  0  0
 17 18  1  0  0  0
 17 29  1  0  0  0
 18 19  1  0  0  0
 18 28  1  0  0  0
 19 26  1  0  0  0
 19 20  1  0  0  0
 20 27  1  0  0  0
  1  2  2  0  0  0
  3  4  2  0  0  0
  5  6  2  0  0  0
  8 21  2  0  0  0
M  END
> <rmsd>
0.796199203

$$$$
