MolPort-051-572-025 CSSS06744556178 MCULE-1304134144 MCULE-3958471621 PubChem-102194984


 32 33  0  0  0  0  0  0  0  0999 V2000
   -5.9629   23.4727   63.4582 C   0  0  0  0  0
   -3.9903   23.3171   65.1466 C   0  0  0  0  0
   -4.2931   22.6023   66.2230 C   0  0  0  0  0
   -4.0264   23.0925   67.5783 C   0  0  0  0  0
   -4.0364   22.6241   70.0669 C   0  0  0  0  0
   -2.6207   22.1896   70.4111 C   0  0  0  0  0
   -0.6885   22.1024   69.3361 C   0  0  0  0  0
   -0.5717   22.1062   67.8035 C   0  0  0  0  0
    0.8848   22.0241   67.3260 C   0  0  0  0  0
    1.7733   21.1975   68.2653 C   0  0  0  0  0
    1.3925   21.3767   69.7463 C   0  0  0  0  0
    2.6395   21.5365   70.6034 C   0  0  0  0  0
    4.6399   22.3724   70.1526 C   0  0  0  0  0
    5.1446   22.7885   68.7616 C   0  0  0  0  0
    6.5731   23.3501   68.7981 C   0  0  0  0  0
    7.4475   22.6933   69.8757 C   0  0  0  0  0
    6.6488   22.3324   71.1410 C   0  0  0  0  0
    7.4437   22.6626   72.3955 C   0  0  0  0  0
   -4.3348   22.6733   63.5158 S   0  0  0  0  0
   -3.5127   24.2307   67.7600 O   0  0  0  0  0
   -1.6937   22.9847   69.7341 O   0  0  0  0  0
    0.5277   22.4697   69.9356 O   0  0  0  0  0
    3.2983   22.7298   70.2916 O   0  0  0  0  0
    5.3992   22.9762   71.1688 O   0  0  0  0  0
    7.6443   24.0406   72.5006 O   0  0  0  0  0
    8.0461   21.5436   69.3610 O   0  0  0  0  0
    6.5238   24.7270   69.0173 O   0  0  0  0  0
    5.0905   21.6924   67.9014 O   0  0  0  0  0
    1.6933   19.8475   67.9249 O   0  0  0  0  0
    1.4077   23.3123   67.2087 O   0  0  0  0  0
   -1.2999   21.0382   67.2802 O   0  0  0  0  0
   -4.3582   22.2633   68.6933 N   0  0  0  0  0
  1 19  1  0  0  0
  2 19  1  0  0  0
  3  4  1  0  0  0
  4 32  1  0  0  0
  5 32  1  0  0  0
  5  6  1  0  0  0
  6 21  1  0  0  0
  7 21  1  0  0  0
  7  8  1  0  0  0
  7 22  1  0  0  0
  8  9  1  0  0  0
  8 31  1  0  0  0
  9 10  1  0  0  0
  9 30  1  0  0  0
 10 11  1  0  0  0
 10 29  1  0  0  0
 11 22  1  0  0  0
 11 12  1  0  0  0
 12 23  1  0  0  0
 13 23  1  0  0  0
 13 14  1  0  0  0
 13 24  1  0  0  0
 14 15  1  0  0  0
 14 28  1  0  0  0
 15 16  1  0  0  0
 15 27  1  0  0  0
 16 17  1  0  0  0
 16 26  1  0  0  0
 17 24  1  0  0  0
 17 18  1  0  0  0
 18 25  1  0  0  0
  2  3  2  0  0  0
  4 20  2  0  0  0
M  END
> <rmsd>
0.76889497

$$$$
MolPort-002-535-177 CSSS00161013809 LN00364859 MCULE-1637782753 PubChem-16407120


 45 49  0  0  0  0  0  0  0  0999 V2000
    0.4522   26.2929   71.5088 C   0  0  0  0  0
    0.7244   24.1830   72.7813 C   0  0  0  0  0
    1.3606   22.9255   72.9270 C   0  0  0  0  0
    2.3306   22.8169   70.6250 C   0  0  0  0  0
    4.1681   21.4822   70.2429 C   0  0  0  0  0
    5.6623   21.4895   69.9394 C   0  0  0  0  0
    6.7152   21.0529   68.0393 C   0  0  0  0  0
    8.8948   20.3735   67.7316 C   0  0  0  0  0
    9.0604   19.4021   68.8900 C   0  0  0  0  0
    8.4711   19.6430   66.4442 C   0  0  0  0  0
    7.4278   20.4600   65.6842 C   0  0  0  0  0
    6.2474   20.8392   66.5938 C   0  0  0  0  0
    3.4160   20.5166   69.3171 C   0  0  0  0  0
    1.9320   20.5234   69.6722 C   0  0  0  0  0
    1.4036   21.9551   69.7503 C   0  0  0  0  0
   -0.6595   22.6590   69.3254 C   0  0  0  0  0
   -1.6385   24.6944   68.8684 C   0  0  0  0  0
   -0.5250   25.3648   68.0783 C   0  0  0  0  0
   -2.6445   23.9950   67.9369 C   0  0  0  0  0
   -3.0583   22.6437   68.5165 C   0  0  0  0  0
   -1.8263   21.7859   68.8436 C   0  0  0  0  0
    1.0804   22.1345   74.0475 C   0  0  0  0  0
    0.1592   22.5564   75.0066 C   0  0  0  0  0
   -0.9787   22.1502   77.0016 C   0  0  0  0  0
   -1.6622   23.3667   76.9069 C   0  0  0  0  0
   -1.4127   24.1974   75.8142 C   0  0  0  0  0
   -0.4922   23.7946   74.8493 C   0  0  0  0  0
   -0.2075   24.6003   73.7479 C   0  0  0  0  0
    1.0410   25.0132   71.6996 O   0  0  0  0  0
    2.2833   22.4254   71.9985 O   0  0  0  0  0
    3.6552   22.7936   70.1323 O   0  0  0  0  0
    5.9055   22.0048   68.6618 O   0  0  0  0  0
    8.0632   21.4687   68.0801 O   0  0  0  0  0
    9.5915   19.4334   65.6399 O   0  0  0  0  0
    6.9895   19.7706   64.5511 O   0  0  0  0  0
    5.2664   19.8434   66.5764 O   0  0  0  0  0
    3.9188   19.2225   69.4690 O   0  0  0  0  0
    1.2170   19.8076   68.7111 O   0  0  0  0  0
    0.1021   21.9580   70.2634 O   0  0  0  0  0
   -1.1265   23.8617   69.8963 O   0  0  0  0  0
   -3.7666   24.8078   67.7701 O   0  0  0  0  0
   -3.9200   21.9743   67.6441 O   0  0  0  0  0
   -1.4169   21.0616   67.7220 O   0  0  0  0  0
   -0.1052   21.7913   76.0622 O   0  0  0  0  0
   -1.1897   21.3908   77.9824 O   0  0  0  0  0
  1 29  1  0  0  0
  2 29  1  0  0  0
  3 30  1  0  0  0
  3 22  1  0  0  0
  4 30  1  0  0  0
  4 31  1  0  0  0
  5 31  1  0  0  0
  5  6  1  0  0  0
  5 13  1  0  0  0
  6 32  1  0  0  0
  7 32  1  0  0  0
  7 33  1  0  0  0
  8 33  1  0  0  0
  8  9  1  0  0  0
  8 10  1  0  0  0
 10 34  1  0  0  0
 10 11  1  0  0  0
 11 35  1  0  0  0
 11 12  1  0  0  0
 12 36  1  0  0  0
 12  7  1  0  0  0
 13 37  1  0  0  0
 13 14  1  0  0  0
 14 38  1  0  0  0
 14 15  1  0  0  0
 15 39  1  0  0  0
 15  4  1  0  0  0
 16 39  1  0  0  0
 16 40  1  0  0  0
 17 40  1  0  0  0
 17 18  1  0  0  0
 17 19  1  0  0  0
 19 41  1  0  0  0
 19 20  1  0  0  0
 20 42  1  0  0  0
 20 21  1  0  0  0
 21 43  1  0  0  0
 21 16  1  0  0  0
 23 44  1  0  0  0
 24 44  1  0  0  0
 24 25  1  0  0  0
 26 27  1  0  0  0
 27 23  1  0  0  0
 28  2  1  0  0  0
  2  3  2  0  0  0
 22 23  2  0  0  0
 24 45  2  0  0  0
 25 26  2  0  0  0
 27 28  2  0  0  0
M  END
> <rmsd>
0.715120077

$$$$
Molport-053-107-012 15721332 LN02182510 MCULE-7986509004 PubChem-90477384 ZINC000015721332


 33 33  0  0  0  0  0  0  0  0999 V2000
   -3.8698   21.4885   63.4452 C   0  0  0  0  0
   -2.0156   22.5852   64.9207 C   0  0  0  0  0
   -1.4927   23.5688   65.9598 C   0  0  0  0  0
   -1.6112   23.0392   67.3891 C   0  0  0  0  0
   -3.0318   22.9318   67.8539 C   0  0  0  0  0
   -5.0510   21.4876   68.3808 C   0  0  0  0  0
   -5.1892   21.7481   69.8421 C   0  0  0  0  0
   -0.0080   21.5397   68.6367 C   0  0  0  0  0
    0.7586   20.2579   68.6882 C   0  0  0  0  0
    0.3592   19.4120   69.8899 C   0  0  0  0  0
   -0.8247   18.5564   69.5822 C   0  0  0  0  0
   -0.6668   17.1693   69.4905 C   0  0  0  0  0
   -1.7691   16.3535   69.2172 C   0  0  0  0  0
   -3.0339   16.9234   69.0415 C   0  0  0  0  0
   -3.1967   18.3080   69.1419 C   0  0  0  0  0
   -2.0946   19.1237   69.4159 C   0  0  0  0  0
    2.9980   20.5158   67.5567 C   0  0  0  0  0
    4.4627   20.7794   67.6517 C   0  0  0  0  0
    5.1481   19.6410   68.3935 C   0  0  0  0  0
    6.6183   19.6470   68.1437 C   0  0  0  0  0
   -3.7677   22.9085   64.5686 S   0  0  0  0  0
   -3.6704   23.9830   68.1265 O   0  0  0  0  0
   -4.8215   20.8798   70.6757 O   0  0  0  0  0
   -5.7073   22.9581   70.2844 O   0  0  0  0  0
    0.1260   22.3978   69.5518 O   0  0  0  0  0
   -4.1280   16.1141   68.7702 O   0  0  0  0  0
    2.4872   20.2649   66.4324 O   0  0  0  0  0
    7.1519   18.6842   67.5349 O   0  0  0  0  0
    7.4047   20.6969   68.5992 O   0  0  0  0  0
   -3.6655   21.6527   67.9625 N   0  0  0  0  0
   -0.8921   21.7806   67.5423 N   0  0  0  0  0
    2.1859   20.5324   68.7337 N   0  0  0  0  0
    4.6945   22.0393   68.3394 N   0  0  0  0  0
  1 21  1  0  0  0
  2 21  1  0  0  0
  2  3  1  0  0  0
  4  3  1  0  0  0
  4  5  1  0  0  0
  4 31  1  0  0  0
  5 30  1  0  0  0
  6 30  1  0  0  0
  6  7  1  0  0  0
  7 24  1  0  0  0
  9  8  1  0  0  0
  9 10  1  0  0  0
  9 32  1  0  0  0
 10 11  1  0  0  0
 12 13  1  0  0  0
 14 15  1  0  0  0
 14 26  1  0  0  0
 16 11  1  0  0  0
 18 17  1  0  0  0
 18 19  1  0  0  0
 18 33  1  0  0  0
 19 20  1  0  0  0
 20 29  1  0  0  0
 31  8  1  0  0  0
 32 17  1  0  0  0
  5 22  2  0  0  0
  7 23  2  0  0  0
  8 25  2  0  0  0
 11 12  2  0  0  0
 13 14  2  0  0  0
 15 16  2  0  0  0
 17 27  2  0  0  0
 20 28  2  0  0  0
M  END
> <rmsd>
0.557802677

$$$$
MolPort-051-561-930 3934111 LN02221127 MCULE-6998140473 ZINC000003934111


 42 42  0  0  0  0  0  0  0  0999 V2000
   -5.6445   25.2083   73.7688 N   0  0  0  0  0
   -7.7037   24.4473   74.6040 N   0  0  0  0  0
   -6.8382   23.6586   72.4341 N   0  0  0  0  0
   -6.0466   19.4487   70.5952 N   0  0  0  0  0
   -7.6947   17.1350   68.9445 N   0  0  0  0  0
   -3.6978   21.0482   68.5603 N   0  0  0  0  0
   -0.8144   22.7178   67.5184 N   0  0  0  0  0
    2.0063   22.8173   69.5932 N   0  0  0  0  0
    5.1555   23.2751   69.4025 N   0  0  0  0  0
   -6.6812   24.4496   73.6145 C   0  0  0  0  0
   -5.8362   23.5970   71.3786 C   0  0  0  0  0
   -4.6624   22.7300   71.8070 C   0  0  0  0  0
   -5.0613   21.2631   71.8820 C   0  0  0  0  0
   -5.2792   20.6798   70.4930 C   0  0  0  0  0
   -7.3064   19.2880   69.9414 C   0  0  0  0  0
   -8.0374   17.9977   70.0615 C   0  0  0  0  0
   -3.9776   20.4106   69.8087 C   0  0  0  0  0
   -2.4548   20.8279   67.8326 C   0  0  0  0  0
   -1.3759   21.7090   68.3645 C   0  0  0  0  0
    0.2638   23.6242   67.9127 C   0  0  0  0  0
   -0.1765   24.5523   69.0454 C   0  0  0  0  0
   -1.1920   25.5774   68.5614 C   0  0  0  0  0
   -2.5791   25.0345   68.6368 C   0  0  0  0  0
    1.5057   22.8488   68.2486 C   0  0  0  0  0
    3.0805   21.9536   70.0836 C   0  0  0  0  0
    2.6092   20.5112   70.2869 C   0  0  0  0  0
    4.3470   22.0958   69.2802 C   0  0  0  0  0
    4.7752   24.4199   70.2042 C   0  0  0  0  0
    5.8866   25.4365   70.0297 C   0  0  0  0  0
    6.7483   24.9454   68.8741 C   0  0  0  0  0
    6.3668   23.4959   68.6335 C   0  0  0  0  0
    7.4626   22.5854   69.0953 C   0  0  0  0  0
   -7.7898   20.2179   69.2405 O   0  0  0  0  0
   -3.1440   19.6146   70.3220 O   0  0  0  0  0
   -0.9568   21.5505   69.5419 O   0  0  0  0  0
   -3.0756   24.7169   69.7484 O   0  0  0  0  0
   -3.3300   24.8895   67.4782 O   0  0  0  0  0
    2.0923   22.2114   67.3336 O   0  0  0  0  0
    2.1818   19.9395   69.0874 O   0  0  0  0  0
    4.7001   21.1759   68.4928 O   0  0  0  0  0
    7.8090   22.5561   70.3066 O   0  0  0  0  0
    8.0996   21.7620   68.1786 O   0  0  0  0  0
  4 15  1  0  0  0
 10  2  1  0  0  0
 10  3  1  0  0  0
 11  3  1  0  0  0
 11 12  1  0  0  0
 12 13  1  0  0  0
 14 13  1  0  0  0
 14  4  1  0  0  0
 14 17  1  0  0  0
 16 15  1  0  0  0
 16  5  1  0  0  0
 17  6  1  0  0  0
 18  6  1  0  0  0
 18 19  1  0  0  0
 19  7  1  0  0  0
 20  7  1  0  0  0
 20 21  1  0  0  0
 20 24  1  0  0  0
 21 22  1  0  0  0
 22 23  1  0  0  0
 23 37  1  0  0  0
 24  8  1  0  0  0
 25  8  1  0  0  0
 25 26  1  0  0  0
 25 27  1  0  0  0
 26 39  1  0  0  0
 27  9  1  0  0  0
 28  9  1  0  0  0
 28 29  1  0  0  0
 29 30  1  0  0  0
 30 31  1  0  0  0
 31 32  1  0  0  0
 31  9  1  0  0  0
 32 42  1  0  0  0
 10  1  2  0  0  0
 15 33  2  0  0  0
 17 34  2  0  0  0
 19 35  2  0  0  0
 23 36  2  0  0  0
 24 38  2  0  0  0
 27 40  2  0  0  0
 32 41  2  0  0  0
M  END
> <rmsd>
0.868138969

$$$$
MolPort-006-130-865 CHEMBL1566 CHEMBL4760828 CSSS02125556683 CSSS02235353540 MCULE-4961983403 MCULE-6444590371 MCULE-7686841690 MCULE-9093392448 PubChem-117974738 PubChem-129837378 PubChem-444254 PubChem-66769438 PubChem-66769873 PubChem-67363027 PubChem-67363420 PubChem-67372326 PubChem-67718293 PubChem-70141752 PubChem-70304021 PubChem-70678368 PubChem-87132412 PubChem-87145753 PubChem-87301024 PubChem-87520324 PubChem-87602966 PubChem-87603784 PubChem-88092022 PubChem-88225647 PubChem-88366768 PubChem-89836732 ZINC000085537042 ZINC85537042


 44 47  0  0  0  0  0  0  0  0999 V2000
    2.9937   24.9426   67.2645 C   0  0  0  0  0
    3.5384   23.8628   68.1936 C   0  0  0  0  0
    1.5716   22.6815   68.3954 C   0  0  0  0  0
   -0.6037   23.0403   68.6521 C   0  0  0  0  0
   -1.2160   24.0540   69.6479 C   0  0  0  0  0
   -0.6606   25.4564   69.4367 C   0  0  0  0  0
   -3.1103   24.0522   68.3473 C   0  0  0  0  0
   -4.4471   25.6012   67.4914 C   0  0  0  0  0
   -4.7379   26.8521   68.3430 C   0  0  0  0  0
   -3.4510   27.6216   68.5695 C   0  0  0  0  0
   -6.9004   26.9680   67.7751 C   0  0  0  0  0
   -6.8896   25.8175   66.7592 C   0  0  0  0  0
   -5.4648   25.4125   66.3555 C   0  0  0  0  0
   -2.9447   22.6500   67.7420 C   0  0  0  0  0
   -1.6424   21.9996   68.2191 C   0  0  0  0  0
    2.1349   21.3859   67.8073 C   0  0  0  0  0
    3.2746   21.7143   66.8427 C   0  0  0  0  0
    4.2576   22.7322   67.4355 C   0  0  0  0  0
    6.5024   22.6500   68.1021 C   0  0  0  0  0
    6.8848   23.5253   69.2605 C   0  0  0  0  0
    8.1372   23.9917   69.3315 C   0  0  0  0  0
    8.5376   24.8697   70.4756 C   0  0  0  0  0
    9.1155   23.6235   68.2375 C   0  0  0  0  0
    9.0057   22.1370   67.8499 C   0  0  0  0  0
    7.5714   21.5677   67.8725 C   0  0  0  0  0
    2.5690   23.3817   69.1068 O   0  0  0  0  0
    0.4935   22.4042   69.2412 O   0  0  0  0  0
    0.6443   25.5311   69.9227 O   0  0  0  0  0
   -2.6342   24.0693   69.6722 O   0  0  0  0  0
   -4.4441   24.4695   68.3106 O   0  0  0  0  0
   -3.6589   28.6245   69.5159 O   0  0  0  0  0
   -5.6931   27.6843   67.7311 O   0  0  0  0  0
   -7.9671   27.8247   67.5052 O   0  0  0  0  0
   -7.5569   24.7179   67.2975 O   0  0  0  0  0
   -5.0649   26.1595   65.2476 O   0  0  0  0  0
   -4.0170   21.8303   68.0987 O   0  0  0  0  0
   -1.1248   21.1948   67.2041 O   0  0  0  0  0
    2.5930   20.5453   68.8244 O   0  0  0  0  0
    2.7514   22.2022   65.6447 O   0  0  0  0  0
    8.5286   24.1391   71.6633 O   0  0  0  0  0
   10.4278   23.9206   68.6108 O   0  0  0  0  0
    9.5695   21.9363   66.5904 O   0  0  0  0  0
    7.4886   20.5795   68.8561 O   0  0  0  0  0
    5.1923   22.0566   68.3222 N   0  0  0  0  0
  2  1  1  0  0  0
  2 26  1  0  0  0
  3 26  1  0  0  0
  3 27  1  0  0  0
  3 16  1  0  0  0
  4 27  1  0  0  0
  4  5  1  0  0  0
  5  6  1  0  0  0
  5 29  1  0  0  0
  6 28  1  0  0  0
  7 29  1  0  0  0
  7 30  1  0  0  0
  7 14  1  0  0  0
  8 30  1  0  0  0
  8  9  1  0  0  0
  9 10  1  0  0  0
  9 32  1  0  0  0
 10 31  1  0  0  0
 11 32  1  0  0  0
 11 33  1  0  0  0
 11 12  1  0  0  0
 12 34  1  0  0  0
 12 13  1  0  0  0
 13 35  1  0  0  0
 13  8  1  0  0  0
 14 36  1  0  0  0
 14 15  1  0  0  0
 15 37  1  0  0  0
 15  4  1  0  0  0
 16 38  1  0  0  0
 16 17  1  0  0  0
 17 39  1  0  0  0
 17 18  1  0  0  0
 18 44  1  0  0  0
 18  2  1  0  0  0
 19 44  1  0  0  0
 19 20  1  0  0  0
 22 21  1  0  0  0
 22 40  1  0  0  0
 23 21  1  0  0  0
 23 41  1  0  0  0
 23 24  1  0  0  0
 24 42  1  0  0  0
 24 25  1  0  0  0
 25 43  1  0  0  0
 25 19  1  0  0  0
 20 21  2  0  0  0
M  END
> <rmsd>
0.767389596

$$$$
Molport-047-085-569 2037977916 MCULE-1974213848 PubChem-156000933


 28 31  0  0  0  0  0  0  0  0999 V2000
    3.0540   21.6890   69.7383 N   0  0  0  0  0
    4.3775   21.2144   71.5133 N   0  0  0  0  0
    6.9956   21.4792   68.9777 N   0  0  0  0  0
    4.8175   21.8526   68.0941 N   0  0  0  0  0
    7.3568   20.9825   71.3232 N   0  0  0  0  0
   -3.3338   21.9426   68.6824 N   0  0  0  0  0
   -5.2729   21.5142   66.5315 N   0  0  0  0  0
    3.1039   21.4156   71.0693 C   0  0  0  0  0
    5.1185   21.3715   70.4004 C   0  0  0  0  0
    6.4925   21.2784   70.2319 C   0  0  0  0  0
    6.1710   21.7632   67.9176 C   0  0  0  0  0
    4.3289   21.6529   69.3423 C   0  0  0  0  0
    1.8777   21.9400   68.9139 C   0  0  0  0  0
    1.1093   23.1671   69.4323 C   0  0  0  0  0
   -0.9514   22.3261   69.1158 C   0  0  0  0  0
   -0.4581   21.0260   68.4507 C   0  0  0  0  0
    0.9836   20.6934   68.8656 C   0  0  0  0  0
   -2.3308   22.1214   69.7244 C   0  0  0  0  0
   -3.7202   22.9891   67.7871 C   0  0  0  0  0
   -4.6986   22.7160   66.7290 C   0  0  0  0  0
   -5.1588   23.6312   65.8020 C   0  0  0  0  0
   -6.0747   21.7442   65.4757 C   0  0  0  0  0
   -6.9406   20.7021   64.8634 C   0  0  0  0  0
   -0.0606   22.7769   70.1079 O   0  0  0  0  0
   -0.5500   21.1614   67.0635 O   0  0  0  0  0
    1.5376   19.7244   68.0267 O   0  0  0  0  0
   -3.2255   24.1430   67.9055 O   0  0  0  0  0
   -6.0115   22.9821   65.0449 O   0  0  0  0  0
  1  8  1  0  0  0
  6 19  1  0  0  0
  9  2  1  0  0  0
 10  3  1  0  0  0
 10  5  1  0  0  0
 11  4  1  0  0  0
 12  1  1  0  0  0
 12  9  1  0  0  0
 13  1  1  0  0  0
 13 14  1  0  0  0
 14 24  1  0  0  0
 15 24  1  0  0  0
 15 16  1  0  0  0
 15 18  1  0  0  0
 16 25  1  0  0  0
 16 17  1  0  0  0
 17 26  1  0  0  0
 17 13  1  0  0  0
 18  6  1  0  0  0
 19 20  1  0  0  0
 20  7  1  0  0  0
 21 28  1  0  0  0
 22 28  1  0  0  0
 23 22  1  0  0  0
  8  2  2  0  0  0
  9 10  2  0  0  0
 11  3  2  0  0  0
 12  4  2  0  0  0
 19 27  2  0  0  0
 20 21  2  0  0  0
 22  7  2  0  0  0
M  END
> <rmsd>
0.7557109

$$$$
MolPort-003-927-841 MolPort-009-752-931 Molport-039-140-440


 31 30  0  0  0  0  0  0  0  0999 V2000
    9.2372   18.5800   67.2239 O   0  0  0  0  0
    6.4164   18.3300   67.6106 O   0  0  0  0  0
    7.1238   21.5515   69.0953 O   0  0  0  0  0
    4.9396   21.5439   67.3924 O   0  0  0  0  0
    4.5502   22.5017   69.9680 O   0  0  0  0  0
    2.2690   19.8906   68.9231 O   0  0  0  0  0
    2.3019   21.7340   71.6642 O   0  0  0  0  0
    0.4354   21.7534   70.3390 O   0  0  0  0  0
    2.4582   22.3432   65.7551 O   0  0  0  0  0
    2.7979   23.8461   67.4534 O   0  0  0  0  0
    1.2276   25.6722   66.0858 O   0  0  0  0  0
   -0.0979   24.1686   68.1906 O   0  0  0  0  0
   -0.2490   21.6187   67.3143 O   0  0  0  0  0
   -2.9817   23.3312   65.6359 O   0  0  0  0  0
   -4.2056   21.9845   68.0428 O   0  0  0  0  0
   -4.1260   24.7385   67.7523 O   0  0  0  0  0
    8.5418   19.1768   68.2768 C   0  0  0  0  0
    7.1255   19.5152   67.8335 C   0  0  0  0  0
    6.4209   20.3606   68.8924 C   0  0  0  0  0
    4.9785   20.6620   68.4798 C   0  0  0  0  0
    4.1543   21.1971   69.6553 C   0  0  0  0  0
    2.6514   21.1666   69.3454 C   0  0  0  0  0
    1.8011   21.5700   70.5178 C   0  0  0  0  0
    2.1248   23.5036   66.4452 C   0  0  0  0  0
    0.9395   24.3100   66.0117 C   0  0  0  0  0
   -0.3199   23.9947   66.8194 C   0  0  0  0  0
   -0.8506   22.5907   66.5072 C   0  0  0  0  0
   -2.3760   22.4805   66.5665 C   0  0  0  0  0
   -2.9734   22.6338   67.9720 C   0  0  0  0  0
   -3.1084   24.0780   68.4457 C   0  0  0  0  0
    9.6724   20.5842   71.8779 Ca  0  0  0  0  0
  8 31  1  0  0  0
 17  1  1  0  0  0
 18 17  1  0  0  0
 18  2  1  0  0  0
 18 19  1  0  0  0
 19  3  1  0  0  0
 19 20  1  0  0  0
 20  4  1  0  0  0
 20 21  1  0  0  0
 21  5  1  0  0  0
 21 22  1  0  0  0
 22  6  1  0  0  0
 22 23  1  0  0  0
 23  8  1  0  0  0
 24  9  1  0  0  0
 25 24  1  0  0  0
 25 11  1  0  0  0
 25 26  1  0  0  0
 26 12  1  0  0  0
 26 27  1  0  0  0
 27 13  1  0  0  0
 27 28  1  0  0  0
 28 14  1  0  0  0
 28 29  1  0  0  0
 29 15  1  0  0  0
 29 30  1  0  0  0
 30 16  1  0  0  0
 31  9  1  0  0  0
 23  7  2  0  0  0
 24 10  2  0  0  0
M  END
> <rmsd>
0.735132515

$$$$
MolPort-047-585-664 PubChem-154831875


 44 48  0  0  0  0  0  0  0  0999 V2000
   -0.9502   25.5982   68.3456 C   0  0  0  0  0
   -1.8638   24.6417   69.0958 C   0  0  0  0  0
   -0.6810   22.6739   68.9322 C   0  0  0  0  0
    1.4602   22.1070   68.7919 C   0  0  0  0  0
    2.4827   23.0645   69.4766 C   0  0  0  0  0
    2.0881   23.4919   70.8868 C   0  0  0  0  0
    1.7819   22.4967   73.1155 C   0  0  0  0  0
    1.8299   21.2966   73.9901 C   0  0  0  0  0
    4.1338   22.2745   68.1485 C   0  0  0  0  0
    6.3191   22.9638   67.2067 C   0  0  0  0  0
    7.7242   22.7998   67.1404 C   0  0  0  0  0
    8.4235   21.8221   67.8773 C   0  0  0  0  0
    9.8077   21.7305   67.7558 C   0  0  0  0  0
   10.4866   22.6101   66.9038 C   0  0  0  0  0
    8.4830   23.6540   66.3017 C   0  0  0  0  0
    7.8493   24.6446   65.5489 C   0  0  0  0  0
    6.4665   24.8028   65.6168 C   0  0  0  0  0
    5.7084   23.9692   66.4381 C   0  0  0  0  0
   11.9542   22.5357   66.7543 C   0  0  0  0  0
   12.6069   23.3867   65.8499 C   0  0  0  0  0
   13.9952   23.3295   65.6979 C   0  0  0  0  0
   14.7435   22.4205   66.4504 C   0  0  0  0  0
   14.1038   21.5679   67.3536 C   0  0  0  0  0
   12.7153   21.6247   67.5050 C   0  0  0  0  0
    3.4387   20.9935   67.6702 C   0  0  0  0  0
    2.0997   20.7722   68.3843 C   0  0  0  0  0
   -1.8470   21.7861   68.4814 C   0  0  0  0  0
   -3.1696   22.5714   68.4840 C   0  0  0  0  0
   -2.9401   24.0492   68.1674 C   0  0  0  0  0
   -1.1244   23.6732   69.8222 O   0  0  0  0  0
    0.3004   21.8955   69.5493 O   0  0  0  0  0
    2.1235   22.3787   71.7694 O   0  0  0  0  0
    1.4304   23.6058   73.5995 O   0  0  0  0  0
    3.7955   22.5453   69.4845 O   0  0  0  0  0
    5.5431   22.1354   68.0277 O   0  0  0  0  0
    7.8280   21.0227   68.6474 O   0  0  0  0  0
    9.8035   23.5255   66.2203 O   0  0  0  0  0
    5.8432   25.7897   64.8659 O   0  0  0  0  0
   16.1220   22.3630   66.2995 O   0  0  0  0  0
    3.2318   21.0657   66.2937 O   0  0  0  0  0
    2.3027   19.9716   69.5105 O   0  0  0  0  0
   -1.5681   21.2820   67.2089 O   0  0  0  0  0
   -4.0908   22.0128   67.5938 O   0  0  0  0  0
   -4.1296   24.7619   68.3203 O   0  0  0  0  0
  1  2  1  0  0  0
  2 30  1  0  0  0
  3 30  1  0  0  0
  3 31  1  0  0  0
  3 27  1  0  0  0
  4 31  1  0  0  0
  4  5  1  0  0  0
  5  6  1  0  0  0
  5 34  1  0  0  0
  6 32  1  0  0  0
  7 32  1  0  0  0
  8  7  1  0  0  0
  9 34  1  0  0  0
  9 35  1  0  0  0
  9 25  1  0  0  0
 10 35  1  0  0  0
 11 12  1  0  0  0
 12 13  1  0  0  0
 14 37  1  0  0  0
 14 19  1  0  0  0
 15 37  1  0  0  0
 15 11  1  0  0  0
 16 17  1  0  0  0
 17 38  1  0  0  0
 18 10  1  0  0  0
 20 21  1  0  0  0
 22 39  1  0  0  0
 22 23  1  0  0  0
 24 19  1  0  0  0
 25 40  1  0  0  0
 25 26  1  0  0  0
 26 41  1  0  0  0
 26  4  1  0  0  0
 27 42  1  0  0  0
 27 28  1  0  0  0
 28 43  1  0  0  0
 28 29  1  0  0  0
 29 44  1  0  0  0
 29  2  1  0  0  0
  7 33  2  0  0  0
 10 11  2  0  0  0
 12 36  2  0  0  0
 13 14  2  0  0  0
 15 16  2  0  0  0
 17 18  2  0  0  0
 19 20  2  0  0  0
 21 22  2  0  0  0
 23 24  2  0  0  0
M  END
> <rmsd>
0.716831088

$$$$
MolPort-039-144-881 CSSS00102649497 LN03249993 MCULE-5349590494 MCULE-6389077711 PubChem-91873341


 28 30  0  0  0  0  0  0  0  0999 V2000
    8.0161   20.7622   67.6578 C   0  0  0  0  0
    9.0818   21.7734   67.2434 C   0  0  0  0  0
    8.4599   23.1662   67.1996 C   0  0  0  0  0
    7.7285   23.4562   68.5088 C   0  0  0  0  0
    6.8002   22.2898   68.8795 C   0  0  0  0  0
    4.5816   22.1455   68.8326 C   0  0  0  0  0
    3.7008   23.3691   68.5776 C   0  0  0  0  0
    1.7503   22.2897   68.9240 C   0  0  0  0  0
    2.4034   20.9308   69.2043 C   0  0  0  0  0
    3.7772   20.8788   68.5337 C   0  0  0  0  0
   -0.3510   22.9332   68.6050 C   0  0  0  0  0
   -0.8145   24.3154   69.1056 C   0  0  0  0  0
   -2.8098   24.1718   68.1022 C   0  0  0  0  0
   -2.7237   22.6962   67.6681 C   0  0  0  0  0
   -1.5299   21.9905   68.3238 C   0  0  0  0  0
    7.5128   21.0678   68.9409 O   0  0  0  0  0
    5.7058   22.1986   68.0049 O   0  0  0  0  0
    2.5714   23.3235   69.4125 O   0  0  0  0  0
    4.4776   19.7576   68.9807 O   0  0  0  0  0
    1.6013   19.9054   68.7011 O   0  0  0  0  0
    0.5014   22.3547   69.5497 O   0  0  0  0  0
   -2.1994   24.3552   69.3519 O   0  0  0  0  0
   -1.1121   20.9269   67.5241 O   0  0  0  0  0
   -3.8933   22.0072   67.9986 O   0  0  0  0  0
   -4.1315   24.6214   68.1421 O   0  0  0  0  0
    6.9978   24.6410   68.4012 O   0  0  0  0  0
    9.4574   24.1210   66.9968 O   0  0  0  0  0
    9.5731   21.4365   65.9823 O   0  0  0  0  0
  1  2  1  0  0  0
  1 16  1  0  0  0
  2  3  1  0  0  0
  2 28  1  0  0  0
  3  4  1  0  0  0
  3 27  1  0  0  0
  4  5  1  0  0  0
  4 26  1  0  0  0
  5 16  1  0  0  0
  5 17  1  0  0  0
  6 17  1  0  0  0
  6  7  1  0  0  0
  7 18  1  0  0  0
  8 18  1  0  0  0
  8  9  1  0  0  0
  8 21  1  0  0  0
  9 10  1  0  0  0
  9 20  1  0  0  0
 10 19  1  0  0  0
 10  6  1  0  0  0
 11 21  1  0  0  0
 11 12  1  0  0  0
 12 22  1  0  0  0
 13 22  1  0  0  0
 13 14  1  0  0  0
 13 25  1  0  0  0
 14 15  1  0  0  0
 14 24  1  0  0  0
 15 23  1  0  0  0
 15 11  1  0  0  0
M  END
> <rmsd>
0.612840712

$$$$
Molport-051-934-575 MCULE-3909553429 MCULE-6477839534 PubChem-153541803


 45 47  0  0  0  0  0  0  0  0999 V2000
    7.0078   23.5993   64.8946 C   0  0  0  0  0
    5.4918   23.6024   64.6358 C   0  0  0  0  0
    4.9489   22.6821   65.6767 C   0  0  0  0  0
    7.1729   22.6646   66.0448 C   0  0  0  0  0
    6.5175   20.8538   68.5170 C   0  0  0  0  0
    6.3546   19.5779   69.2685 C   0  0  0  0  0
    3.9003   19.0234   69.0584 C   0  0  0  0  0
    2.5219   19.1233   69.6338 C   0  0  0  0  0
    1.7136   17.8477   69.3959 C   0  0  0  0  0
    0.5104   17.7804   70.2762 C   0  0  0  0  0
   -0.5999   18.6012   70.0363 C   0  0  0  0  0
   -1.7319   18.5079   70.8513 C   0  0  0  0  0
   -1.7591   17.5890   71.9042 C   0  0  0  0  0
   -0.6565   16.7608   72.1400 C   0  0  0  0  0
    0.4754   16.8538   71.3243 C   0  0  0  0  0
    1.4197   20.5174   67.7792 C   0  0  0  0  0
    0.7286   21.7801   67.4022 C   0  0  0  0  0
   -1.4127   21.7740   68.7489 C   0  0  0  0  0
   -2.8689   21.4577   68.8281 C   0  0  0  0  0
   -3.8773   23.3739   67.5101 C   0  0  0  0  0
   -4.5238   23.8450   66.2517 C   0  0  0  0  0
   -5.9880   24.1846   66.4830 C   0  0  0  0  0
   -6.8581   22.9443   66.3495 C   0  0  0  0  0
   -7.4289   22.5585   67.7026 C   0  0  0  0  0
   -6.6823   21.3664   68.2796 C   0  0  0  0  0
   -6.1787   19.2516   66.9107 C   0  0  0  0  0
   -6.8262   17.9620   66.6752 C   0  0  0  0  0
   -8.0555   18.0291   67.1947 C   0  0  0  0  0
   -8.2142   19.3631   67.7708 C   0  0  0  0  0
    3.7343   22.3649   65.7665 O   0  0  0  0  0
    8.2936   22.2888   66.4735 O   0  0  0  0  0
    5.7549   21.0805   67.3677 O   0  0  0  0  0
    7.2904   21.7394   68.9661 O   0  0  0  0  0
    4.0776   18.5575   67.8992 O   0  0  0  0  0
    1.5934   19.6229   66.9090 O   0  0  0  0  0
   -0.8033   22.1525   69.7832 O   0  0  0  0  0
   -3.6045   24.2004   68.4235 O   0  0  0  0  0
   -4.9943   19.5300   66.5923 O   0  0  0  0  0
   -9.2385   19.7652   68.3829 O   0  0  0  0  0
    5.9383   22.1795   66.5492 N   0  0  0  0  0
    5.0112   19.4949   69.8221 N   0  0  0  0  0
    1.8327   20.3148   69.1358 N   0  0  0  0  0
   -0.7114   21.6098   67.5141 N   0  0  0  0  0
   -3.5731   21.9860   67.6669 N   0  0  0  0  0
   -7.0513   20.1491   67.5706 N   0  0  0  0  0
  1  2  1  0  0  0
  1  4  1  0  0  0
  2  3  1  0  0  0
  3 40  1  0  0  0
  5 32  1  0  0  0
  6  5  1  0  0  0
  6 41  1  0  0  0
  8  7  1  0  0  0
  8  9  1  0  0  0
  8 42  1  0  0  0
  9 10  1  0  0  0
 11 12  1  0  0  0
 13 14  1  0  0  0
 15 10  1  0  0  0
 17 16  1  0  0  0
 17 43  1  0  0  0
 19 18  1  0  0  0
 19 44  1  0  0  0
 21 20  1  0  0  0
 21 22  1  0  0  0
 22 23  1  0  0  0
 23 24  1  0  0  0
 24 25  1  0  0  0
 25 45  1  0  0  0
 26 27  1  0  0  0
 28 29  1  0  0  0
 29 45  1  0  0  0
 40  4  1  0  0  0
 40 32  1  0  0  0
 41  7  1  0  0  0
 42 16  1  0  0  0
 43 18  1  0  0  0
 44 20  1  0  0  0
 45 26  1  0  0  0
  3 30  2  0  0  0
  4 31  2  0  0  0
  5 33  2  0  0  0
  7 34  2  0  0  0
 10 11  2  0  0  0
 12 13  2  0  0  0
 14 15  2  0  0  0
 16 35  2  0  0  0
 18 36  2  0  0  0
 20 37  2  0  0  0
 26 38  2  0  0  0
 27 28  2  0  0  0
 29 39  2  0  0  0
M  END
> <rmsd>
0.620802939

$$$$
Molport-047-085-573 2037977837 MCULE-9449247841 PubChem-156000937


 31 34  0  0  0  0  0  0  0  0999 V2000
    3.0548   21.6890   69.7385 N   0  0  0  0  0
    4.3791   21.2134   71.5125 N   0  0  0  0  0
    6.9960   21.4793   68.9759 N   0  0  0  0  0
    4.8175   21.8533   68.0934 N   0  0  0  0  0
    7.3584   20.9813   71.3208 N   0  0  0  0  0
   -3.3321   21.9429   68.6797 N   0  0  0  0  0
    3.1052   21.4150   71.0692 C   0  0  0  0  0
    5.1196   21.3709   70.3993 C   0  0  0  0  0
    6.4935   21.2778   70.2301 C   0  0  0  0  0
    6.1710   21.7640   67.9162 C   0  0  0  0  0
    4.3294   21.6531   69.3417 C   0  0  0  0  0
    1.8781   21.9406   68.9146 C   0  0  0  0  0
    1.1101   23.1674   69.4341 C   0  0  0  0  0
   -0.9507   22.3272   69.1159 C   0  0  0  0  0
   -0.4578   21.0267   68.4513 C   0  0  0  0  0
    0.9839   20.6940   68.8661 C   0  0  0  0  0
   -2.3309   22.1240   69.7230 C   0  0  0  0  0
   -3.7177   22.9878   67.7802 C   0  0  0  0  0
   -4.6931   22.7163   66.7101 C   0  0  0  0  0
   -5.2424   21.4346   66.5610 C   0  0  0  0  0
   -6.1669   21.1754   65.5450 C   0  0  0  0  0
   -6.5531   22.1977   64.6730 C   0  0  0  0  0
   -6.0030   23.4757   64.8093 C   0  0  0  0  0
   -5.0785   23.7346   65.8254 C   0  0  0  0  0
   -7.5186   21.9157   63.5764 C   0  0  0  0  0
   -7.8264   21.2704   61.4898 C   0  0  0  0  0
   -0.0603   22.7772   70.1090 O   0  0  0  0  0
   -0.5501   21.1615   67.0641 O   0  0  0  0  0
    1.5380   19.7252   68.0269 O   0  0  0  0  0
   -3.2232   24.1419   67.9055 O   0  0  0  0  0
   -6.8295   21.5013   62.4364 O   0  0  0  0  0
  1  7  1  0  0  0
  6 18  1  0  0  0
  8  2  1  0  0  0
  9  3  1  0  0  0
  9  5  1  0  0  0
 10  4  1  0  0  0
 11  1  1  0  0  0
 11  8  1  0  0  0
 12  1  1  0  0  0
 12 13  1  0  0  0
 13 27  1  0  0  0
 14 27  1  0  0  0
 14 15  1  0  0  0
 14 17  1  0  0  0
 15 28  1  0  0  0
 15 16  1  0  0  0
 16 29  1  0  0  0
 16 12  1  0  0  0
 17  6  1  0  0  0
 18 19  1  0  0  0
 20 21  1  0  0  0
 22 23  1  0  0  0
 24 19  1  0  0  0
 25 22  1  0  0  0
 25 31  1  0  0  0
 26 31  1  0  0  0
  7  2  2  0  0  0
  8  9  2  0  0  0
 10  3  2  0  0  0
 11  4  2  0  0  0
 18 30  2  0  0  0
 19 20  2  0  0  0
 21 22  2  0  0  0
 23 24  2  0  0  0
M  END
> <rmsd>
0.755752683

$$$$
MolPort-046-426-931 MCULE-3780682627 PubChem-137968096


 36 38  0  0  0  0  0  0  0  0999 V2000
   -2.2744   27.1757   72.2381 C   0  0  0  0  0
   -2.6802   25.4793   70.8882 C   0  0  0  0  0
   -2.1436   24.5151   69.8467 C   0  0  0  0  0
   -0.5561   22.9901   69.3624 C   0  0  0  0  0
    0.3588   21.4803   70.8310 C   0  0  0  0  0
    0.4265   20.0319   70.3301 C   0  0  0  0  0
    1.8689   19.5969   70.0413 C   0  0  0  0  0
    2.8781   20.4361   70.8329 C   0  0  0  0  0
    5.0772   20.6784   70.6059 C   0  0  0  0  0
    5.6999   20.2741   69.2596 C   0  0  0  0  0
    7.1809   20.6658   69.1278 C   0  0  0  0  0
    7.9726   20.3579   70.4164 C   0  0  0  0  0
   10.1701   20.1638   70.5473 C   0  0  0  0  0
    6.1666   20.7477   71.6971 C   0  0  0  0  0
    5.6318   20.5829   73.1122 C   0  0  0  0  0
    1.3506   21.6920   72.0111 C   0  0  0  0  0
    1.9195   23.1033   72.1262 C   0  0  0  0  0
   -1.4959   22.0397   68.5936 C   0  0  0  0  0
   -2.9517   22.2502   69.0326 C   0  0  0  0  0
   -3.3083   23.7346   69.2153 C   0  0  0  0  0
   -1.6528   26.3053   71.3441 O   0  0  0  0  0
   -1.1997   23.6503   70.4324 O   0  0  0  0  0
    0.6410   22.3589   69.7651 O   0  0  0  0  0
   -0.1397   19.1772   71.2771 O   0  0  0  0  0
    2.1285   19.7174   68.6763 O   0  0  0  0  0
    4.0879   19.7450   70.9421 O   0  0  0  0  0
    4.9516   20.7891   68.1998 O   0  0  0  0  0
    7.3000   22.0258   68.8340 O   0  0  0  0  0
    9.0244   19.4891   70.1241 O   0  0  0  0  0
    7.1694   19.8022   71.4350 O   0  0  0  0  0
    4.9055   21.7159   73.4782 O   0  0  0  0  0
    2.3716   20.7136   72.1167 O   0  0  0  0  0
    0.9133   23.9928   72.5025 O   0  0  0  0  0
   -1.3565   22.2671   67.2229 O   0  0  0  0  0
   -3.8456   21.6073   68.1725 O   0  0  0  0  0
   -3.6362   24.3158   67.9886 O   0  0  0  0  0
  1 21  1  0  0  0
  2 21  1  0  0  0
  2  3  1  0  0  0
  3 22  1  0  0  0
  4 22  1  0  0  0
  4 23  1  0  0  0
  4 18  1  0  0  0
  5 23  1  0  0  0
  5  6  1  0  0  0
  6 24  1  0  0  0
  6  7  1  0  0  0
  7 25  1  0  0  0
  7  8  1  0  0  0
  8 26  1  0  0  0
  8 32  1  0  0  0
  9 26  1  0  0  0
  9 10  1  0  0  0
 10 27  1  0  0  0
 10 11  1  0  0  0
 11 28  1  0  0  0
 11 12  1  0  0  0
 12 29  1  0  0  0
 12 30  1  0  0  0
 13 29  1  0  0  0
 14 30  1  0  0  0
 14 15  1  0  0  0
 14  9  1  0  0  0
 15 31  1  0  0  0
 16 32  1  0  0  0
 16 17  1  0  0  0
 16  5  1  0  0  0
 17 33  1  0  0  0
 18 34  1  0  0  0
 18 19  1  0  0  0
 19 35  1  0  0  0
 19 20  1  0  0  0
 20 36  1  0  0  0
 20  3  1  0  0  0
M  END
> <rmsd>
0.663852632

$$$$
MolPort-046-426-931 MCULE-3780682627 PubChem-137968096


 36 38  0  0  0  0  0  0  0  0999 V2000
    7.5598   25.8705   72.2754 C   0  0  0  0  0
    6.7668   23.9567   71.5147 C   0  0  0  0  0
    6.2101   23.1614   70.3434 C   0  0  0  0  0
    4.4742   22.8553   68.9634 C   0  0  0  0  0
    2.3446   22.2953   69.2232 C   0  0  0  0  0
    1.5453   21.5689   68.1416 C   0  0  0  0  0
    0.1354   22.1412   68.0464 C   0  0  0  0  0
   -0.5770   22.1012   69.4099 C   0  0  0  0  0
   -2.7453   22.4901   69.7049 C   0  0  0  0  0
   -3.5877   22.5536   68.4193 C   0  0  0  0  0
   -4.4196   23.8381   68.3169 C   0  0  0  0  0
   -4.9464   24.2911   69.6935 C   0  0  0  0  0
   -7.1473   23.7888   69.3403 C   0  0  0  0  0
   -3.4609   23.1309   70.9116 C   0  0  0  0  0
   -3.2550   22.2873   72.1569 C   0  0  0  0  0
    1.4480   22.8897   70.3362 C   0  0  0  0  0
    1.1319   24.3817   70.1963 C   0  0  0  0  0
    5.2965   22.6899   67.6769 C   0  0  0  0  0
    6.7478   23.1628   67.8433 C   0  0  0  0  0
    7.2884   22.9502   69.2648 C   0  0  0  0  0
    7.0979   25.2529   71.1141 O   0  0  0  0  0
    5.0673   23.7941   69.8232 O   0  0  0  0  0
    3.1763   23.2605   68.6451 O   0  0  0  0  0
    1.4998   20.2036   68.4343 O   0  0  0  0  0
   -0.6116   21.4491   67.0924 O   0  0  0  0  0
   -1.5201   23.1306   69.4980 O   0  0  0  0  0
   -4.4335   21.4455   68.3627 O   0  0  0  0  0
   -3.6497   24.8565   67.7561 O   0  0  0  0  0
   -6.2488   24.8285   69.6278 O   0  0  0  0  0
   -4.8371   23.2821   70.6719 O   0  0  0  0  0
   -1.9438   22.4210   72.6135 O   0  0  0  0  0
    0.2816   22.1123   70.5470 O   0  0  0  0  0
    2.2379   25.1404   70.5776 O   0  0  0  0  0
    5.2778   21.3522   67.2836 O   0  0  0  0  0
    6.8341   24.5155   67.5136 O   0  0  0  0  0
    7.8160   21.6642   69.3818 O   0  0  0  0  0
  1 21  1  0  0  0
  2 21  1  0  0  0
  2  3  1  0  0  0
  3 22  1  0  0  0
  4 22  1  0  0  0
  4 23  1  0  0  0
  4 18  1  0  0  0
  5 23  1  0  0  0
  5  6  1  0  0  0
  6 24  1  0  0  0
  6  7  1  0  0  0
  7 25  1  0  0  0
  7  8  1  0  0  0
  8 26  1  0  0  0
  8 32  1  0  0  0
  9 26  1  0  0  0
  9 10  1  0  0  0
 10 27  1  0  0  0
 10 11  1  0  0  0
 11 28  1  0  0  0
 11 12  1  0  0  0
 12 29  1  0  0  0
 12 30  1  0  0  0
 13 29  1  0  0  0
 14 30  1  0  0  0
 14 15  1  0  0  0
 14  9  1  0  0  0
 15 31  1  0  0  0
 16 32  1  0  0  0
 16 17  1  0  0  0
 16  5  1  0  0  0
 17 33  1  0  0  0
 18 34  1  0  0  0
 18 19  1  0  0  0
 19 35  1  0  0  0
 19 20  1  0  0  0
 20 36  1  0  0  0
 20  3  1  0  0  0
M  END
> <rmsd>
0.804811597

$$$$
MolPort-003-934-334 LN00193850 MCULE-8743615839 PubChem-4125253


 34 35  0  0  0  0  0  0  0  0999 V2000
    6.7979   22.4552   72.7744 C   0  0  0  0  0
    6.4162   23.5063   71.7341 C   0  0  0  0  0
    7.3097   23.4493   70.4890 C   0  0  0  0  0
    6.9527   22.2341   69.6290 C   0  0  0  0  0
    5.4498   22.1584   69.3838 C   0  0  0  0  0
    4.7211   22.2800   70.7319 C   0  0  0  0  0
    2.7870   23.2127   69.9368 C   0  0  0  0  0
    1.6014   22.7925   69.0820 C   0  0  0  0  0
    2.0578   21.8688   67.9381 C   0  0  0  0  0
    1.1224   20.6675   67.7427 C   0  0  0  0  0
   -0.3529   21.0108   67.9946 C   0  0  0  0  0
   -0.5275   22.0973   69.0664 C   0  0  0  0  0
   -2.4768   22.9224   69.7018 C   0  0  0  0  0
   -3.9251   22.4757   69.5894 C   0  0  0  0  0
   -4.8798   23.6717   69.5958 C   0  0  0  0  0
   -4.9229   24.4249   68.2561 C   0  0  0  0  0
   -5.9543   25.5557   68.2696 C   0  0  0  0  0
   -5.5712   26.6565   69.2201 C   0  0  0  0  0
    5.0370   23.4855   71.4083 O   0  0  0  0  0
    3.3257   22.1027   70.6129 O   0  0  0  0  0
    0.6132   22.1892   69.8805 O   0  0  0  0  0
   -1.6455   21.8107   69.8507 O   0  0  0  0  0
   -5.4161   27.8046   68.8342 O   0  0  0  0  0
   -6.1316   26.0507   66.9751 O   0  0  0  0  0
   -3.6606   24.9254   67.9222 O   0  0  0  0  0
   -6.1594   23.2255   69.9329 O   0  0  0  0  0
   -4.1091   21.6917   68.4468 O   0  0  0  0  0
   -0.9493   21.4316   66.8063 O   0  0  0  0  0
    1.5102   19.6355   68.5976 O   0  0  0  0  0
    2.1397   22.6011   66.7543 O   0  0  0  0  0
    5.1386   20.9344   68.7894 O   0  0  0  0  0
    7.6419   22.2756   68.4153 O   0  0  0  0  0
    7.1593   24.6289   69.7551 O   0  0  0  0  0
    6.1081   22.6936   73.9628 O   0  0  0  0  0
  1 34  1  0  0  0
  2  1  1  0  0  0
  2  3  1  0  0  0
  2 19  1  0  0  0
  3  4  1  0  0  0
  3 33  1  0  0  0
  4  5  1  0  0  0
  4 32  1  0  0  0
  5  6  1  0  0  0
  5 31  1  0  0  0
  6 19  1  0  0  0
  6 20  1  0  0  0
  7 20  1  0  0  0
  8  7  1  0  0  0
  8  9  1  0  0  0
  8 21  1  0  0  0
  9 10  1  0  0  0
  9 30  1  0  0  0
 10 11  1  0  0  0
 10 29  1  0  0  0
 11 12  1  0  0  0
 11 28  1  0  0  0
 12 21  1  0  0  0
 12 22  1  0  0  0
 13 22  1  0  0  0
 14 13  1  0  0  0
 14 15  1  0  0  0
 14 27  1  0  0  0
 15 16  1  0  0  0
 15 26  1  0  0  0
 16 17  1  0  0  0
 16 25  1  0  0  0
 17 18  1  0  0  0
 17 24  1  0  0  0
 18 23  2  0  0  0
M  END
> <rmsd>
0.798529863

$$$$
Molport-047-085-568 2037977883 MCULE-8429437575 PubChem-156000929


 29 32  0  0  0  0  0  0  0  0999 V2000
    3.0546   21.6883   69.7386 N   0  0  0  0  0
    4.3785   21.2126   71.5129 N   0  0  0  0  0
    6.9960   21.4797   68.9770 N   0  0  0  0  0
    4.8177   21.8535   68.0941 N   0  0  0  0  0
    7.3580   20.9811   71.3219 N   0  0  0  0  0
   -3.3329   21.9433   68.6817 N   0  0  0  0  0
   -6.0451   22.9756   65.0022 N   0  0  0  0  0
   -6.1190   21.7209   65.4146 N   0  0  0  0  0
    3.1048   21.4139   71.0693 C   0  0  0  0  0
    5.1194   21.3706   70.3999 C   0  0  0  0  0
    6.4933   21.2777   70.2310 C   0  0  0  0  0
    6.1713   21.7645   67.9172 C   0  0  0  0  0
    4.3293   21.6528   69.3422 C   0  0  0  0  0
    1.8781   21.9400   68.9145 C   0  0  0  0  0
    1.1100   23.1667   69.4339 C   0  0  0  0  0
   -0.9508   22.3265   69.1164 C   0  0  0  0  0
   -0.4578   21.0263   68.4511 C   0  0  0  0  0
    0.9839   20.6934   68.8659 C   0  0  0  0  0
   -2.3305   22.1223   69.7242 C   0  0  0  0  0
   -3.7185   22.9897   67.7856 C   0  0  0  0  0
   -4.6945   22.7191   66.7245 C   0  0  0  0  0
   -5.1665   23.6246   65.7906 C   0  0  0  0  0
   -6.9938   20.7254   64.8201 C   0  0  0  0  0
   -8.3758   20.8166   65.4379 C   0  0  0  0  0
   -5.3158   21.5129   66.4718 C   0  0  0  0  0
   -0.0602   22.7765   70.1090 O   0  0  0  0  0
   -0.5499   21.1618   67.0640 O   0  0  0  0  0
    1.5378   19.7247   68.0265 O   0  0  0  0  0
   -3.2246   24.1437   67.9051 O   0  0  0  0  0
  1  9  1  0  0  0
  6 20  1  0  0  0
  8  7  1  0  0  0
  8 25  1  0  0  0
 10  2  1  0  0  0
 11  3  1  0  0  0
 11  5  1  0  0  0
 12  4  1  0  0  0
 13  1  1  0  0  0
 13 10  1  0  0  0
 14  1  1  0  0  0
 14 15  1  0  0  0
 15 26  1  0  0  0
 16 26  1  0  0  0
 16 17  1  0  0  0
 16 19  1  0  0  0
 17 27  1  0  0  0
 17 18  1  0  0  0
 18 28  1  0  0  0
 18 14  1  0  0  0
 19  6  1  0  0  0
 20 21  1  0  0  0
 21 22  1  0  0  0
 23  8  1  0  0  0
 23 24  1  0  0  0
  9  2  2  0  0  0
 10 11  2  0  0  0
 12  3  2  0  0  0
 13  4  2  0  0  0
 20 29  2  0  0  0
 22  7  2  0  0  0
 25 21  2  0  0  0
M  END
> <rmsd>
0.755695999

$$$$
Molport-047-085-571 2037977783 MCULE-5191646697 PubChem-156000931


 31 34  0  0  0  0  0  0  0  0999 V2000
    3.0559   21.6816   69.7424 N   0  0  0  0  0
    4.3822   21.1921   71.5111 N   0  0  0  0  0
    6.9958   21.4736   68.9727 N   0  0  0  0  0
    4.8163   21.8561   68.0961 N   0  0  0  0  0
    7.3611   20.9583   71.3135 N   0  0  0  0  0
   -3.3290   21.9400   68.6847 N   0  0  0  0  0
   -6.2936   21.9926   62.6901 N   0  0  0  0  0
    3.1079   21.3979   71.0711 C   0  0  0  0  0
    5.1214   21.3569   70.3980 C   0  0  0  0  0
    6.4949   21.2637   70.2262 C   0  0  0  0  0
    6.1696   21.7667   67.9163 C   0  0  0  0  0
    4.3299   21.6474   69.3437 C   0  0  0  0  0
    1.8783   21.9401   68.9221 C   0  0  0  0  0
    1.1120   23.1637   69.4516 C   0  0  0  0  0
   -0.9494   22.3284   69.1267 C   0  0  0  0  0
   -0.4587   21.0310   68.4543 C   0  0  0  0  0
    0.9832   20.6945   68.8655 C   0  0  0  0  0
   -2.3313   22.1254   69.7306 C   0  0  0  0  0
   -3.7080   22.9801   67.7807 C   0  0  0  0  0
   -4.6573   22.6830   66.6759 C   0  0  0  0  0
   -3.8955   22.1428   65.4792 C   0  0  0  0  0
   -4.8373   21.8234   64.3651 C   0  0  0  0  0
   -5.6058   22.6894   63.6152 C   0  0  0  0  0
   -5.6772   24.1689   63.7643 C   0  0  0  0  0
   -5.1097   20.5876   63.8232 C   0  0  0  0  0
   -4.5385   19.2812   64.2506 C   0  0  0  0  0
   -0.0591   22.7701   70.1232 O   0  0  0  0  0
   -0.5527   21.1734   67.0679 O   0  0  0  0  0
    1.5358   19.7311   68.0193 O   0  0  0  0  0
   -5.9724   20.7388   62.8448 O   0  0  0  0  0
   -3.2229   24.1377   67.8925 O   0  0  0  0  0
  1  8  1  0  0  0
  6 19  1  0  0  0
  7 30  1  0  0  0
  9  2  1  0  0  0
 10  3  1  0  0  0
 10  5  1  0  0  0
 11  4  1  0  0  0
 12  1  1  0  0  0
 12  9  1  0  0  0
 13  1  1  0  0  0
 13 14  1  0  0  0
 14 27  1  0  0  0
 15 27  1  0  0  0
 15 16  1  0  0  0
 15 18  1  0  0  0
 16 28  1  0  0  0
 16 17  1  0  0  0
 17 29  1  0  0  0
 17 13  1  0  0  0
 18  6  1  0  0  0
 20 19  1  0  0  0
 20 21  1  0  0  0
 21 22  1  0  0  0
 22 23  1  0  0  0
 24 23  1  0  0  0
 25 30  1  0  0  0
 26 25  1  0  0  0
  8  2  2  0  0  0
  9 10  2  0  0  0
 11  3  2  0  0  0
 12  4  2  0  0  0
 19 31  2  0  0  0
 23  7  2  0  0  0
 25 22  2  0  0  0
M  END
> <rmsd>
0.754966497

$$$$
Molport-047-085-571 2037977783 MCULE-5191646697 PubChem-156000931


 31 34  0  0  0  0  0  0  0  0999 V2000
    3.0544   21.6876   69.7354 N   0  0  0  0  0
    4.3763   21.2165   71.5124 N   0  0  0  0  0
    6.9971   21.4818   68.9796 N   0  0  0  0  0
    4.8195   21.8520   68.0930 N   0  0  0  0  0
    7.3562   20.9877   71.3259 N   0  0  0  0  0
   -3.3346   21.9441   68.6848 N   0  0  0  0  0
   -7.3062   20.1002   69.1607 N   0  0  0  0  0
    3.1030   21.4157   71.0667 C   0  0  0  0  0
    5.1185   21.3734   70.4002 C   0  0  0  0  0
    6.4928   21.2816   70.2334 C   0  0  0  0  0
    6.1735   21.7641   67.9182 C   0  0  0  0  0
    4.3297   21.6528   69.3409 C   0  0  0  0  0
    1.8788   21.9369   68.9095 C   0  0  0  0  0
    1.1110   23.1660   69.4236 C   0  0  0  0  0
   -0.9507   22.3248   69.1118 C   0  0  0  0  0
   -0.4576   21.0237   68.4483 C   0  0  0  0  0
    0.9836   20.6908   68.8647 C   0  0  0  0  0
   -2.3282   22.1191   69.7237 C   0  0  0  0  0
   -3.7255   22.9944   67.7974 C   0  0  0  0  0
   -4.7599   22.7322   66.7563 C   0  0  0  0  0
   -6.1522   23.0532   67.2831 C   0  0  0  0  0
   -6.6199   22.0129   68.2524 C   0  0  0  0  0
   -6.9075   20.6852   68.0147 C   0  0  0  0  0
   -6.8117   19.9765   66.7092 C   0  0  0  0  0
   -6.8750   22.1699   69.5959 C   0  0  0  0  0
   -6.7286   23.4197   70.3909 C   0  0  0  0  0
   -0.0586   22.7785   70.1015 O   0  0  0  0  0
   -0.5481   21.1577   67.0610 O   0  0  0  0  0
    1.5369   19.7189   68.0289 O   0  0  0  0  0
   -7.2740   21.0185   70.0853 O   0  0  0  0  0
   -3.2303   24.1476   67.9089 O   0  0  0  0  0
  1  8  1  0  0  0
  6 19  1  0  0  0
  7 30  1  0  0  0
  9  2  1  0  0  0
 10  3  1  0  0  0
 10  5  1  0  0  0
 11  4  1  0  0  0
 12  1  1  0  0  0
 12  9  1  0  0  0
 13  1  1  0  0  0
 13 14  1  0  0  0
 14 27  1  0  0  0
 15 27  1  0  0  0
 15 16  1  0  0  0
 15 18  1  0  0  0
 16 28  1  0  0  0
 16 17  1  0  0  0
 17 29  1  0  0  0
 17 13  1  0  0  0
 18  6  1  0  0  0
 20 19  1  0  0  0
 20 21  1  0  0  0
 21 22  1  0  0  0
 22 23  1  0  0  0
 24 23  1  0  0  0
 25 30  1  0  0  0
 26 25  1  0  0  0
  8  2  2  0  0  0
  9 10  2  0  0  0
 11  3  2  0  0  0
 12  4  2  0  0  0
 19 31  2  0  0  0
 23  7  2  0  0  0
 25 22  2  0  0  0
M  END
> <rmsd>
0.755988717

$$$$
Molport-047-085-571 2037977783 MCULE-5191646697 PubChem-156000931


 31 34  0  0  0  0  0  0  0  0999 V2000
    3.0538   21.6921   69.7367 N   0  0  0  0  0
    4.3746   21.2154   71.5130 N   0  0  0  0  0
    6.9957   21.4748   68.9799 N   0  0  0  0  0
    4.8192   21.8528   68.0941 N   0  0  0  0  0
    7.3536   20.9773   71.3257 N   0  0  0  0  0
   -3.3358   21.9388   68.6908 N   0  0  0  0  0
   -7.1876   26.2933   67.5185 N   0  0  0  0  0
    3.1017   21.4185   71.0675 C   0  0  0  0  0
    5.1170   21.3710   70.4008 C   0  0  0  0  0
    6.4910   21.2751   70.2336 C   0  0  0  0  0
    6.1727   21.7606   67.9190 C   0  0  0  0  0
    4.3290   21.6541   69.3419 C   0  0  0  0  0
    1.8786   21.9435   68.9105 C   0  0  0  0  0
    1.1097   23.1707   69.4276 C   0  0  0  0  0
   -0.9516   22.3285   69.1143 C   0  0  0  0  0
   -0.4569   21.0308   68.4452 C   0  0  0  0  0
    0.9841   20.6973   68.8615 C   0  0  0  0  0
   -2.3278   22.1176   69.7280 C   0  0  0  0  0
   -3.7264   22.9856   67.7991 C   0  0  0  0  0
   -4.7612   22.7217   66.7589 C   0  0  0  0  0
   -6.1584   22.7587   67.3635 C   0  0  0  0  0
   -6.5752   24.1599   67.6850 C   0  0  0  0  0
   -6.8220   25.2028   66.8171 C   0  0  0  0  0
   -6.7207   25.1650   65.3324 C   0  0  0  0  0
   -6.8194   24.6999   68.9274 C   0  0  0  0  0
   -6.7058   24.0054   70.2391 C   0  0  0  0  0
   -0.0592   22.7802   70.1048 O   0  0  0  0  0
   -0.5462   21.1712   67.0585 O   0  0  0  0  0
    1.5382   19.7280   68.0232 O   0  0  0  0  0
   -7.1744   25.9553   68.7774 O   0  0  0  0  0
   -3.2275   24.1380   67.9033 O   0  0  0  0  0
  1  8  1  0  0  0
  6 19  1  0  0  0
  7 30  1  0  0  0
  9  2  1  0  0  0
 10  3  1  0  0  0
 10  5  1  0  0  0
 11  4  1  0  0  0
 12  1  1  0  0  0
 12  9  1  0  0  0
 13  1  1  0  0  0
 13 14  1  0  0  0
 14 27  1  0  0  0
 15 27  1  0  0  0
 15 16  1  0  0  0
 15 18  1  0  0  0
 16 28  1  0  0  0
 16 17  1  0  0  0
 17 29  1  0  0  0
 17 13  1  0  0  0
 18  6  1  0  0  0
 20 19  1  0  0  0
 20 21  1  0  0  0
 21 22  1  0  0  0
 22 23  1  0  0  0
 24 23  1  0  0  0
 25 30  1  0  0  0
 26 25  1  0  0  0
  8  2  2  0  0  0
  9 10  2  0  0  0
 11  3  2  0  0  0
 12  4  2  0  0  0
 19 31  2  0  0  0
 23  7  2  0  0  0
 25 22  2  0  0  0
M  END
> <rmsd>
0.756395817

$$$$
Molport-051-931-365


 29 32  0  0  0  0  0  0  0  0999 V2000
   -3.3523   24.9897   71.5122 O   0  0  0  0  0
   -1.2883   23.3837   70.3575 O   0  0  0  0  0
    0.0126   21.4847   70.2199 O   0  0  0  0  0
    2.2421   20.3580   69.2230 O   0  0  0  0  0
    4.7965   21.7429   68.3463 O   0  0  0  0  0
    7.5436   21.5214   68.1044 O   0  0  0  0  0
    5.1473   21.9641   72.3299 O   0  0  0  0  0
   -1.1251   20.8688   67.7331 O   0  0  0  0  0
   -3.6456   22.1676   67.2076 O   0  0  0  0  0
   -3.6390   24.9380   68.0223 O   0  0  0  0  0
   -2.3746   25.5039   70.6469 C   0  0  0  0  0
   -1.9046   24.4406   69.6412 C   0  0  0  0  0
   -0.6749   22.4659   69.4667 C   0  0  0  0  0
    1.2369   21.9889   70.7311 C   0  0  0  0  0
    1.4794   21.3687   72.1105 C   0  0  0  0  0
    2.7565   21.9318   72.7350 C   0  0  0  0  0
    3.9346   21.8714   71.8014 C   0  0  0  0  0
    3.7769   21.7875   70.4034 C   0  0  0  0  0
    2.3995   21.6463   69.7669 C   0  0  0  0  0
    4.9317   21.7704   69.5981 C   0  0  0  0  0
    6.2142   21.8143   70.1971 C   0  0  0  0  0
    7.4477   21.7627   69.4782 C   0  0  0  0  0
    8.6552   21.9339   70.1666 C   0  0  0  0  0
    8.6756   22.0892   71.5505 C   0  0  0  0  0
    7.4851   22.0802   72.2703 C   0  0  0  0  0
    6.2612   21.9495   71.6092 C   0  0  0  0  0
   -1.7483   21.7601   68.6220 C   0  0  0  0  0
   -2.5626   22.8030   67.8371 C   0  0  0  0  0
   -3.0772   23.9001   68.7861 C   0  0  0  0  0
 11  1  1  0  0  0
 11 12  1  0  0  0
 12  2  1  0  0  0
 13  2  1  0  0  0
 13  3  1  0  0  0
 13 27  1  0  0  0
 14  3  1  0  0  0
 14 15  1  0  0  0
 15 16  1  0  0  0
 16 17  1  0  0  0
 17  7  1  0  0  0
 18 20  1  0  0  0
 19 18  1  0  0  0
 19  4  1  0  0  0
 19 14  1  0  0  0
 20 21  1  0  0  0
 22  6  1  0  0  0
 22 23  1  0  0  0
 24 25  1  0  0  0
 26  7  1  0  0  0
 26 21  1  0  0  0
 27  8  1  0  0  0
 27 28  1  0  0  0
 28  9  1  0  0  0
 28 29  1  0  0  0
 29 10  1  0  0  0
 29 12  1  0  0  0
 17 18  2  0  0  0
 20  5  2  0  0  0
 21 22  2  0  0  0
 23 24  2  0  0  0
 25 26  2  0  0  0
M  END
> <rmsd>
0.794059038

$$$$
Molport-051-811-076 MCULE-9944346295 PubChem-115346 PubChem-145707604


 41 41  0  0  0  0  0  0  0  0999 V2000
    9.4523   21.9300   71.3566 C   0  0  0  0  0
    8.2514   22.7322   70.8833 C   0  0  0  0  0
    7.2159   21.7041   70.4561 C   0  0  0  0  0
    8.9193   20.5584   71.7266 C   0  0  0  0  0
    6.6858   19.4131   71.4678 C   0  0  0  0  0
    5.2204   19.4769   71.1400 C   0  0  0  0  0
    4.5691   20.7609   71.6490 C   0  0  0  0  0
    3.7454   19.0880   69.0848 C   0  0  0  0  0
    2.4707   19.4255   69.8130 C   0  0  0  0  0
    1.6191   18.2025   70.1508 C   0  0  0  0  0
    2.2547   17.3734   71.2226 C   0  0  0  0  0
    0.9685   20.2111   67.8815 C   0  0  0  0  0
    0.2780   21.3511   67.2175 C   0  0  0  0  0
   -1.7722   21.6636   68.6814 C   0  0  0  0  0
   -3.2461   21.4830   68.8790 C   0  0  0  0  0
   -3.5603   20.0011   69.0447 C   0  0  0  0  0
   -4.9134   19.7958   69.7095 C   0  0  0  0  0
   -6.0338   19.8788   68.6897 C   0  0  0  0  0
   -8.4409   19.6543   68.7129 C   0  0  0  0  0
   -4.1416   23.4338   67.5276 C   0  0  0  0  0
   -4.8233   23.9121   66.2977 C   0  0  0  0  0
    7.2442   21.5267   68.9673 C   0  0  0  0  0
    7.5992   20.4745   71.1297 N   0  0  0  0  0
    5.0186   19.2928   69.7053 N   0  0  0  0  0
    1.6975   20.4400   69.0942 N   0  0  0  0  0
   -1.1591   21.2751   67.4452 N   0  0  0  0  0
   -7.3115   19.6607   69.3510 N   0  0  0  0  0
   -8.4881   19.8615   67.3009 N   0  0  0  0  0
   -9.6519   19.4350   69.4287 N   0  0  0  0  0
   -3.9812   22.0297   67.7430 N   0  0  0  0  0
   -3.8672   23.9640   65.2022 N   0  0  0  0  0
    7.1151   18.3816   72.0501 O   0  0  0  0  0
    4.5413   20.7566   73.0427 O   0  0  0  0  0
    3.7041   18.6431   67.9062 O   0  0  0  0  0
    2.5316   16.1663   70.9989 O   0  0  0  0  0
    2.5199   17.9215   72.4744 O   0  0  0  0  0
    0.8851   19.0548   67.3854 O   0  0  0  0  0
   -1.0803   22.1537   69.6144 O   0  0  0  0  0
   -3.6805   24.2702   68.3515 O   0  0  0  0  0
    8.2966   21.1673   68.3793 O   0  0  0  0  0
    6.0902   21.7450   68.2304 O   0  0  0  0  0
  1  2  1  0  0  0
  2  3  1  0  0  0
  3 23  1  0  0  0
  3 22  1  0  0  0
  4 23  1  0  0  0
  4  1  1  0  0  0
  6  5  1  0  0  0
  6  7  1  0  0  0
  6 24  1  0  0  0
  7 33  1  0  0  0
  9  8  1  0  0  0
  9 10  1  0  0  0
  9 25  1  0  0  0
 10 11  1  0  0  0
 11 36  1  0  0  0
 13 12  1  0  0  0
 13 26  1  0  0  0
 15 14  1  0  0  0
 15 16  1  0  0  0
 15 30  1  0  0  0
 16 17  1  0  0  0
 17 18  1  0  0  0
 18 27  1  0  0  0
 19 28  1  0  0  0
 19 29  1  0  0  0
 21 20  1  0  0  0
 21 31  1  0  0  0
 22 41  1  0  0  0
 23  5  1  0  0  0
 24  8  1  0  0  0
 25 12  1  0  0  0
 26 14  1  0  0  0
 30 20  1  0  0  0
  5 32  2  0  0  0
  8 34  2  0  0  0
 11 35  2  0  0  0
 12 37  2  0  0  0
 14 38  2  0  0  0
 19 27  2  0  0  0
 20 39  2  0  0  0
 22 40  2  0  0  0
M  END
> <rmsd>
0.675193429

$$$$
Molport-003-940-191 MCULE-1896998595 PubChem-4079599


 26 25  0  0  0  0  0  0  0  0999 V2000
    6.8791   21.0806   70.7508 C   0  0  0  0  0
    6.7928   21.5101   69.2991 C   0  0  0  0  0
    5.4970   21.0728   68.7039 C   0  0  0  0  0
    3.9124   19.1947   68.0843 C   0  0  0  0  0
    4.0187   17.7093   67.7983 C   0  0  0  0  0
    2.7999   19.4564   69.0476 C   0  0  0  0  0
    0.5765   20.5736   69.5133 C   0  0  0  0  0
   -0.3277   19.3583   69.6285 C   0  0  0  0  0
   -0.1911   21.7316   68.9722 C   0  0  0  0  0
   -1.5607   22.7449   67.0952 C   0  0  0  0  0
   -1.7180   22.5277   65.6030 C   0  0  0  0  0
   -2.9033   22.7914   67.7485 C   0  0  0  0  0
   -5.0699   21.6226   68.3482 C   0  0  0  0  0
   -6.0532   22.3977   67.4875 C   0  0  0  0  0
   -5.5342   20.2150   68.5201 C   0  0  0  0  0
    4.6931   21.9405   68.2701 O   0  0  0  0  0
    2.8365   18.9675   70.2100 O   0  0  0  0  0
   -0.3284   22.7656   69.6787 O   0  0  0  0  0
   -3.2771   23.8514   68.3177 O   0  0  0  0  0
   -5.6555   19.4531   67.5240 O   0  0  0  0  0
   -5.8283   19.7400   69.7907 O   0  0  0  0  0
    5.1759   19.6803   68.6217 N   0  0  0  0  0
    1.7047   20.2788   68.6412 N   0  0  0  0  0
   -0.7595   21.6681   67.6603 N   0  0  0  0  0
   -3.7482   21.6365   67.7375 N   0  0  0  0  0
    7.9000   20.9391   68.5530 N   0  0  0  0  0
  1  2  1  0  0  0
  2  3  1  0  0  0
  2 26  1  0  0  0
  3 22  1  0  0  0
  4 22  1  0  0  0
  4  5  1  0  0  0
  4  6  1  0  0  0
  6 23  1  0  0  0
  7 23  1  0  0  0
  7  8  1  0  0  0
  7  9  1  0  0  0
  9 24  1  0  0  0
 10 24  1  0  0  0
 10 11  1  0  0  0
 10 12  1  0  0  0
 12 25  1  0  0  0
 13 25  1  0  0  0
 13 14  1  0  0  0
 13 15  1  0  0  0
 15 21  1  0  0  0
  3 16  2  0  0  0
  6 17  2  0  0  0
  9 18  2  0  0  0
 12 19  2  0  0  0
 15 20  2  0  0  0
M  END
> <rmsd>
0.614605248

$$$$
MolPort-046-567-477 1704319262 MCULE-6573647188 PubChem-135101221 ZINC001704319262


 44 46  0  0  0  0  0  0  0  0999 V2000
    9.7293   18.3792   70.4329 C   0  0  0  0  0
    8.8565   19.3540   69.7278 C   0  0  0  0  0
    7.5698   19.6912   70.0977 C   0  0  0  0  0
    7.2319   20.6164   69.1234 C   0  0  0  0  0
    5.9466   21.3166   69.0259 C   0  0  0  0  0
    3.5798   21.6409   69.9777 C   0  0  0  0  0
    3.6246   23.1671   69.9716 C   0  0  0  0  0
    2.3130   23.7486   70.4710 C   0  0  0  0  0
    1.3666   23.9871   69.3074 C   0  0  0  0  0
   -0.8249   23.3485   70.3949 C   0  0  0  0  0
   -2.1562   23.7550   70.9307 C   0  0  0  0  0
   -3.0047   25.9285   70.0462 C   0  0  0  0  0
   -3.6371   23.8040   68.8778 C   0  0  0  0  0
   -3.4138   22.3380   68.6140 C   0  0  0  0  0
   -4.1554   21.4392   69.6075 C   0  0  0  0  0
   -5.6387   21.6427   69.6063 C   0  0  0  0  0
   -6.4184   21.2317   68.5174 C   0  0  0  0  0
   -7.8041   21.4154   68.5380 C   0  0  0  0  0
   -8.4146   22.0046   69.6493 C   0  0  0  0  0
   -7.6397   22.4072   70.7412 C   0  0  0  0  0
   -6.2537   22.2235   70.7208 C   0  0  0  0  0
   -2.7859   21.8966   66.1751 C   0  0  0  0  0
   -1.3305   22.1901   66.3750 C   0  0  0  0  0
   -1.1050   23.6505   66.7142 C   0  0  0  0  0
    0.2771   20.4050   67.1272 C   0  0  0  0  0
    0.7901   19.5252   68.2301 C   0  0  0  0  0
    1.3930   18.1915   67.7654 C   0  0  0  0  0
    2.7680   18.3417   67.1358 C   0  0  0  0  0
    1.4650   17.2137   68.9218 C   0  0  0  0  0
    2.7574   21.0718   68.8632 C   0  0  0  0  0
    5.7549   22.1401   68.0913 O   0  0  0  0  0
   -0.4651   22.1452   70.4896 O   0  0  0  0  0
   -4.4775   24.4377   68.1815 O   0  0  0  0  0
   -3.1802   21.5700   65.0260 O   0  0  0  0  0
    0.7793   20.3462   65.9714 O   0  0  0  0  0
    3.0480   21.3244   67.6630 O   0  0  0  0  0
    9.2099   20.0187   68.6555 O   0  0  0  0  0
    4.9221   21.0636   69.9967 N   0  0  0  0  0
    0.0402   24.3215   69.8033 N   0  0  0  0  0
   -2.9260   24.4814   69.9277 N   0  0  0  0  0
   -3.7430   21.9828   67.2376 N   0  0  0  0  0
   -0.7690   21.3347   67.4086 N   0  0  0  0  0
    1.6349   20.2440   69.1871 N   0  0  0  0  0
    8.2490   20.7961   68.2588 N   0  0  0  0  0
  1  2  1  0  0  0
  2 37  1  0  0  0
  3  4  1  0  0  0
  4  5  1  0  0  0
  5 38  1  0  0  0
  6 38  1  0  0  0
  6  7  1  0  0  0
  6 30  1  0  0  0
  7  8  1  0  0  0
  8  9  1  0  0  0
  9 39  1  0  0  0
 11 10  1  0  0  0
 11 40  1  0  0  0
 12 40  1  0  0  0
 14 13  1  0  0  0
 14 15  1  0  0  0
 14 41  1  0  0  0
 15 16  1  0  0  0
 17 18  1  0  0  0
 19 20  1  0  0  0
 21 16  1  0  0  0
 23 22  1  0  0  0
 23 24  1  0  0  0
 23 42  1  0  0  0
 26 25  1  0  0  0
 26 27  1  0  0  0
 26 43  1  0  0  0
 27 28  1  0  0  0
 27 29  1  0  0  0
 39 10  1  0  0  0
 40 13  1  0  0  0
 41 22  1  0  0  0
 42 25  1  0  0  0
 43 30  1  0  0  0
 44 37  1  0  0  0
  2  3  2  0  0  0
  4 44  2  0  0  0
  5 31  2  0  0  0
 10 32  2  0  0  0
 13 33  2  0  0  0
 16 17  2  0  0  0
 18 19  2  0  0  0
 20 21  2  0  0  0
 22 34  2  0  0  0
 25 35  2  0  0  0
 30 36  2  0  0  0
M  END
> <rmsd>
0.786370039

$$$$
MolPort-051-710-494 MCULE-8993944157


 40 43  0  0  0  0  0  0  0  0999 V2000
   -1.4876   22.9553   64.5569 C   0  0  0  0  0
   -2.6355   22.6515   65.4991 C   0  0  0  0  0
   -3.3185   21.3666   65.0692 C   0  0  0  0  0
   -2.1334   22.6068   66.9437 C   0  0  0  0  0
   -0.2907   21.4285   68.2168 C   0  0  0  0  0
    0.5749   20.2179   68.3729 C   0  0  0  0  0
    0.1661   19.3747   69.5813 C   0  0  0  0  0
    0.4146   20.0938   70.8982 C   0  0  0  0  0
   -0.1949   19.2915   72.0254 C   0  0  0  0  0
   -0.8999   20.2387   72.9767 C   0  0  0  0  0
   -3.0976   18.9755   73.3782 C   0  0  0  0  0
   -3.6211   19.1726   72.0087 C   0  0  0  0  0
   -4.8105   18.6535   71.5344 C   0  0  0  0  0
   -3.8442   19.7549   69.9946 C   0  0  0  0  0
   -3.5809   20.3926   68.6646 C   0  0  0  0  0
   -4.3300   19.7139   67.5088 C   0  0  0  0  0
   -5.8043   19.9828   67.4859 C   0  0  0  0  0
   -6.2940   21.2078   67.0159 C   0  0  0  0  0
   -7.6707   21.4470   66.9802 C   0  0  0  0  0
   -8.5628   20.4593   67.4077 C   0  0  0  0  0
   -8.0782   19.2311   67.8667 C   0  0  0  0  0
   -6.7011   18.9921   67.9020 C   0  0  0  0  0
   -3.2252   22.8528   67.9557 C   0  0  0  0  0
    3.0459   19.6583   68.2415 C   0  0  0  0  0
    4.4462   20.0979   68.3647 C   0  0  0  0  0
    4.7517   21.4255   68.6760 C   0  0  0  0  0
    6.8117   19.6434   68.2990 C   0  0  0  0  0
    5.4976   19.1974   68.1743 C   0  0  0  0  0
   -1.3135   21.4310   67.2201 N   0  0  0  0  0
   -1.8352   19.5018   73.8129 N   0  0  0  0  0
   -3.0072   19.8786   71.0402 N   0  0  0  0  0
   -3.8545   21.8226   68.7323 N   0  0  0  0  0
    1.9824   20.5955   68.4376 N   0  0  0  0  0
    6.0503   21.8105   68.7859 N   0  0  0  0  0
    7.0501   20.9457   68.6030 N   0  0  0  0  0
   -0.1209   22.4343   68.9590 O   0  0  0  0  0
   -3.7875   18.3192   74.2023 O   0  0  0  0  0
   -4.9077   19.0418   70.2854 O   0  0  0  0  0
   -3.6114   24.0390   68.1191 O   0  0  0  0  0
    2.7837   18.4568   67.9596 O   0  0  0  0  0
  1  2  1  0  0  0
  2  3  1  0  0  0
  4  2  1  0  0  0
  4 29  1  0  0  0
  4 23  1  0  0  0
  6  5  1  0  0  0
  6  7  1  0  0  0
  6 33  1  0  0  0
  7  8  1  0  0  0
  8  9  1  0  0  0
  9 10  1  0  0  0
 10 30  1  0  0  0
 11 12  1  0  0  0
 12 31  1  0  0  0
 13 38  1  0  0  0
 14 38  1  0  0  0
 15 14  1  0  0  0
 15 16  1  0  0  0
 15 32  1  0  0  0
 16 17  1  0  0  0
 18 19  1  0  0  0
 20 21  1  0  0  0
 22 17  1  0  0  0
 24 25  1  0  0  0
 26 34  1  0  0  0
 27 35  1  0  0  0
 28 25  1  0  0  0
 29  5  1  0  0  0
 30 11  1  0  0  0
 32 23  1  0  0  0
 33 24  1  0  0  0
  5 36  2  0  0  0
 11 37  2  0  0  0
 12 13  2  0  0  0
 14 31  2  0  0  0
 17 18  2  0  0  0
 19 20  2  0  0  0
 21 22  2  0  0  0
 23 39  2  0  0  0
 24 40  2  0  0  0
 25 26  2  0  0  0
 27 28  2  0  0  0
 34 35  2  0  0  0
M  END
> <rmsd>
0.685048521

$$$$
MolPort-051-710-494 MCULE-8993944157


 40 43  0  0  0  0  0  0  0  0999 V2000
   -3.2947   23.8809   71.0723 C   0  0  0  0  0
   -2.5612   22.6994   70.4676 C   0  0  0  0  0
   -3.3238   21.4097   70.7409 C   0  0  0  0  0
   -2.2636   22.9236   68.9756 C   0  0  0  0  0
   -0.1067   21.5442   68.8931 C   0  0  0  0  0
    0.5900   20.3810   68.2616 C   0  0  0  0  0
    0.1485   19.0601   68.8823 C   0  0  0  0  0
    0.1560   17.9549   67.8356 C   0  0  0  0  0
   -1.0380   18.0640   66.8958 C   0  0  0  0  0
   -2.2933   17.5296   67.5618 C   0  0  0  0  0
   -3.8905   17.0498   65.6067 C   0  0  0  0  0
   -4.4571   18.4114   65.5389 C   0  0  0  0  0
   -5.2195   18.9070   64.4964 C   0  0  0  0  0
   -5.0173   20.3882   66.0055 C   0  0  0  0  0
   -5.1631   21.7014   66.7147 C   0  0  0  0  0
   -6.5538   21.8457   67.3241 C   0  0  0  0  0
   -7.5553   22.2241   66.2866 C   0  0  0  0  0
   -7.6577   23.5541   65.8624 C   0  0  0  0  0
   -8.5737   23.9012   64.8634 C   0  0  0  0  0
   -9.3837   22.9193   64.2849 C   0  0  0  0  0
   -9.2819   21.5903   64.7068 C   0  0  0  0  0
   -8.3686   21.2429   65.7063 C   0  0  0  0  0
   -3.5069   22.9988   68.1423 C   0  0  0  0  0
    2.9029   20.4581   69.3912 C   0  0  0  0  0
    4.3433   20.7325   69.2477 C   0  0  0  0  0
    4.8849   21.0546   67.9992 C   0  0  0  0  0
    6.5505   20.9654   70.1855 C   0  0  0  0  0
    5.1952   20.6882   70.3553 C   0  0  0  0  0
   -1.4245   21.8551   68.4471 N   0  0  0  0  0
   -2.9944   16.6372   66.6481 N   0  0  0  0  0
   -4.3319   19.3397   66.5044 N   0  0  0  0  0
   -4.1600   21.7872   67.7630 N   0  0  0  0  0
    2.0449   20.5312   68.2437 N   0  0  0  0  0
    6.2131   21.3178   67.8872 N   0  0  0  0  0
    7.0218   21.2744   68.9484 N   0  0  0  0  0
    0.4253   22.2030   69.8257 O   0  0  0  0  0
   -4.2199   16.2080   64.7291 O   0  0  0  0  0
   -5.5406   20.1353   64.8281 O   0  0  0  0  0
   -3.9358   24.1142   67.7426 O   0  0  0  0  0
    2.4267   20.1668   70.5235 O   0  0  0  0  0
  1  2  1  0  0  0
  2  3  1  0  0  0
  4  2  1  0  0  0
  4 29  1  0  0  0
  4 23  1  0  0  0
  6  5  1  0  0  0
  6  7  1  0  0  0
  6 33  1  0  0  0
  7  8  1  0  0  0
  8  9  1  0  0  0
  9 10  1  0  0  0
 10 30  1  0  0  0
 11 12  1  0  0  0
 12 31  1  0  0  0
 13 38  1  0  0  0
 14 38  1  0  0  0
 15 14  1  0  0  0
 15 16  1  0  0  0
 15 32  1  0  0  0
 16 17  1  0  0  0
 18 19  1  0  0  0
 20 21  1  0  0  0
 22 17  1  0  0  0
 24 25  1  0  0  0
 26 34  1  0  0  0
 27 35  1  0  0  0
 28 25  1  0  0  0
 29  5  1  0  0  0
 30 11  1  0  0  0
 32 23  1  0  0  0
 33 24  1  0  0  0
  5 36  2  0  0  0
 11 37  2  0  0  0
 12 13  2  0  0  0
 14 31  2  0  0  0
 17 18  2  0  0  0
 19 20  2  0  0  0
 21 22  2  0  0  0
 23 39  2  0  0  0
 24 40  2  0  0  0
 25 26  2  0  0  0
 27 28  2  0  0  0
 34 35  2  0  0  0
M  END
> <rmsd>
0.697462678

$$$$
Molport-051-924-951 MCULE-7264336460 MCULE-8282242893


 30 31  0  0  0  0  0  0  0  0999 V2000
    1.4522   19.4525   69.1096 O   0  0  0  0  0
   -1.4203   25.4638   67.4982 O   0  0  0  0  0
   -1.0084   27.0800   69.8334 O   0  0  0  0  0
   -4.2277   24.9530   68.0798 O   0  0  0  0  0
   -3.8628   21.9640   67.9840 O   0  0  0  0  0
   -1.4565   21.0424   67.5073 O   0  0  0  0  0
    6.9063   23.4977   72.5566 O   0  0  0  0  0
    7.8248   21.0644   73.5249 O   0  0  0  0  0
    8.8543   21.9161   71.1736 O   0  0  0  0  0
    8.0660   21.0830   68.5913 O   0  0  0  0  0
    5.6999   22.5001   68.3709 O   0  0  0  0  0
    1.9587   19.6453   70.4050 C   0  0  0  0  0
    2.2883   21.1331   70.6786 C   0  0  0  0  0
    1.0411   22.0321   70.5885 C   0  0  0  0  0
   -0.8264   22.6995   69.1580 C   0  0  0  0  0
   -0.7700   24.2272   69.4606 C   0  0  0  0  0
   -1.8863   25.0684   68.7701 C   0  0  0  0  0
   -2.1776   26.3319   69.6245 C   0  0  0  0  0
   -3.1688   24.1993   68.6199 C   0  0  0  0  0
   -2.9172   22.9689   67.7059 C   0  0  0  0  0
   -1.4615   22.4231   67.7800 C   0  0  0  0  0
    4.7131   21.3905   70.2970 C   0  0  0  0  0
    5.1230   22.5081   71.2822 C   0  0  0  0  0
    6.5572   22.3268   71.8532 C   0  0  0  0  0
    6.6038   21.1163   72.8351 C   0  0  0  0  0
    7.5657   22.1779   70.6754 C   0  0  0  0  0
    7.1581   21.0809   69.6640 C   0  0  0  0  0
    5.7298   21.3159   69.1316 C   0  0  0  0  0
    0.5131   22.0846   69.2168 N   0  0  0  0  0
    3.3495   21.6524   69.7883 N   0  0  0  0  0
 12  1  1  0  0  0
 12 13  1  0  0  0
 13 14  1  0  0  0
 13 30  1  0  0  0
 14 29  1  0  0  0
 15 29  1  0  0  0
 15 16  1  0  0  0
 16 17  1  0  0  0
 17  2  1  0  0  0
 17 18  1  0  0  0
 17 19  1  0  0  0
 18  3  1  0  0  0
 19  4  1  0  0  0
 19 20  1  0  0  0
 20  5  1  0  0  0
 20 21  1  0  0  0
 21  6  1  0  0  0
 21 15  1  0  0  0
 22 30  1  0  0  0
 22 23  1  0  0  0
 23 24  1  0  0  0
 24  7  1  0  0  0
 24 25  1  0  0  0
 24 26  1  0  0  0
 25  8  1  0  0  0
 26  9  1  0  0  0
 26 27  1  0  0  0
 27 10  1  0  0  0
 27 28  1  0  0  0
 28 11  1  0  0  0
 28 22  1  0  0  0
M  END
> <rmsd>
0.793289483

$$$$
Molport-051-996-976 LN02182553 MCULE-2618913497 MCULE-8478927224 PubChem-9851976 ZINC000138381660


 43 42  0  0  0  0  0  0  0  0999 V2000
    1.8503   22.8215   68.0546 C   0  0  0  0  0
    0.9639   21.8249   67.3244 C   0  0  0  0  0
    1.4192   20.4133   67.5123 C   0  0  0  0  0
    1.8857   18.4621   69.0710 C   0  0  0  0  0
    3.2962   18.1911   68.6748 C   0  0  0  0  0
    5.7642   18.5803   69.0555 C   0  0  0  0  0
    6.1087   19.4929   67.8711 C   0  0  0  0  0
    5.9688   20.9520   68.1796 C   0  0  0  0  0
    6.6779   18.8045   70.2194 C   0  0  0  0  0
    8.7994   18.1485   71.4423 C   0  0  0  0  0
    9.5993   16.8763   71.7240 C   0  0  0  0  0
   10.2038   16.2792   70.4630 C   0  0  0  0  0
    8.7256   15.8457   72.4120 C   0  0  0  0  0
    9.7071   19.2925   71.1012 C   0  0  0  0  0
   -0.9791   21.9411   69.0088 C   0  0  0  0  0
   -2.4655   21.9665   69.2265 C   0  0  0  0  0
   -2.9363   20.8644   70.1727 C   0  0  0  0  0
   -2.6424   19.4724   69.6265 C   0  0  0  0  0
   -3.1653   18.4346   70.5581 C   0  0  0  0  0
   -3.6336   23.0683   67.2714 C   0  0  0  0  0
   -4.3478   22.9438   65.9684 C   0  0  0  0  0
   -5.7390   22.3706   66.1943 C   0  0  0  0  0
   -6.6060   22.5162   64.9505 C   0  0  0  0  0
   -6.9776   23.9714   64.6884 C   0  0  0  0  0
   -8.1062   24.4243   65.5995 C   0  0  0  0  0
    1.6931   19.7211   66.4989 O   0  0  0  0  0
    3.5310   17.4976   67.6499 O   0  0  0  0  0
    4.8386   21.4483   68.4299 O   0  0  0  0  0
    7.0938   21.7652   68.1851 O   0  0  0  0  0
    6.4810   19.7681   71.0102 O   0  0  0  0  0
    9.9619   19.5794   69.9014 O   0  0  0  0  0
   10.3040   20.0193   72.1218 O   0  0  0  0  0
   -0.2082   21.9197   70.0053 O   0  0  0  0  0
   -2.6984   18.3321   71.7236 O   0  0  0  0  0
   -3.4463   24.2103   67.7674 O   0  0  0  0  0
    1.5428   19.8569   68.8265 N   0  0  0  0  0
    4.3688   18.7276   69.4509 N   0  0  0  0  0
    7.7963   17.9331   70.4023 N   0  0  0  0  0
   -0.4444   21.9851   67.6788 N   0  0  0  0  0
   -4.1837   17.5425   70.1237 N   0  0  0  0  0
   -3.1936   21.8968   67.9656 N   0  0  0  0  0
   -7.5809   24.7861   66.9044 N   0  0  0  0  0
   -3.5920   22.0826   65.0706 N   0  0  0  0  0
  2  1  1  0  0  0
  2  3  1  0  0  0
  2 39  1  0  0  0
  3 36  1  0  0  0
  4 36  1  0  0  0
  4  5  1  0  0  0
  5 37  1  0  0  0
  6 37  1  0  0  0
  6  7  1  0  0  0
  6  9  1  0  0  0
  7  8  1  0  0  0
  8 29  1  0  0  0
  9 38  1  0  0  0
 10 38  1  0  0  0
 10 11  1  0  0  0
 10 14  1  0  0  0
 11 12  1  0  0  0
 11 13  1  0  0  0
 14 32  1  0  0  0
 16 15  1  0  0  0
 16 17  1  0  0  0
 16 41  1  0  0  0
 17 18  1  0  0  0
 18 19  1  0  0  0
 19 40  1  0  0  0
 21 20  1  0  0  0
 21 22  1  0  0  0
 21 43  1  0  0  0
 22 23  1  0  0  0
 23 24  1  0  0  0
 24 25  1  0  0  0
 25 42  1  0  0  0
 39 15  1  0  0  0
 41 20  1  0  0  0
  3 26  2  0  0  0
  5 27  2  0  0  0
  8 28  2  0  0  0
  9 30  2  0  0  0
 14 31  2  0  0  0
 15 33  2  0  0  0
 19 34  2  0  0  0
 20 35  2  0  0  0
M  END
> <rmsd>
0.534487605

$$$$
MolPort-046-418-744 Molport-053-206-363 103654503 CSSS00000142015 LN02221209 MCULE-6079669982 MCULE-8337012724 PubChem-3084967 ZINC000103654503


 43 44  0  0  0  0  0  0  0  0999 V2000
   -2.4221   23.8876   63.5743 C   0  0  0  0  0
   -1.9329   24.0797   64.9941 C   0  0  0  0  0
   -0.6641   24.9112   64.9770 C   0  0  0  0  0
   -1.6602   22.7170   65.6146 C   0  0  0  0  0
   -1.5363   22.8011   67.1314 C   0  0  0  0  0
   -2.8751   23.0613   67.7474 C   0  0  0  0  0
   -5.2293   22.2612   68.2363 C   0  0  0  0  0
   -6.2263   21.3029   67.6018 C   0  0  0  0  0
   -6.4944   21.6694   66.1514 C   0  0  0  0  0
   -7.3952   23.2120   64.2450 C   0  0  0  0  0
   -5.1521   22.0174   69.7084 C   0  0  0  0  0
   -0.5842   21.3464   68.9826 C   0  0  0  0  0
   -0.1737   19.9888   69.4326 C   0  0  0  0  0
    2.3358   20.2154   69.6788 C   0  0  0  0  0
    3.6987   19.8190   69.2007 C   0  0  0  0  0
    4.0282   18.3620   69.5481 C   0  0  0  0  0
    4.2840   18.1266   71.0056 C   0  0  0  0  0
    5.5761   17.8021   71.4323 C   0  0  0  0  0
    5.8264   17.5477   72.7842 C   0  0  0  0  0
    4.7824   17.6102   73.7116 C   0  0  0  0  0
    3.4878   17.9230   73.2868 C   0  0  0  0  0
    3.2376   18.1762   71.9353 C   0  0  0  0  0
    5.6361   21.3950   68.8365 C   0  0  0  0  0
    6.6596   22.3132   69.4264 C   0  0  0  0  0
    6.2587   23.7892   69.3240 C   0  0  0  0  0
    6.1076   24.2834   67.9177 C   0  0  0  0  0
    7.2263   24.4331   67.0875 C   0  0  0  0  0
    7.0739   24.9144   65.7839 C   0  0  0  0  0
    5.8038   25.2550   65.3091 C   0  0  0  0  0
    4.6863   25.1169   66.1392 C   0  0  0  0  0
    4.8388   24.6353   67.4432 C   0  0  0  0  0
   -3.0745   24.1409   68.3665 O   0  0  0  0  0
   -4.7560   20.9073   70.1542 O   0  0  0  0  0
   -0.5607   22.3077   69.7950 O   0  0  0  0  0
    2.2007   20.9556   70.6922 O   0  0  0  0  0
    5.5710   21.2274   67.5873 O   0  0  0  0  0
   -3.9173   22.0890   67.6271 N   0  0  0  0  0
   -5.5312   23.0473   70.6133 N   0  0  0  0  0
   -0.9954   21.5442   67.6295 N   0  0  0  0  0
    1.1867   19.7019   69.0021 N   0  0  0  0  0
    4.7262   20.7207   69.7054 N   0  0  0  0  0
    7.9737   22.0740   68.8502 N   0  0  0  0  0
   -7.5268   23.1616   66.0530 S   0  0  0  0  0
  1  2  1  0  0  0
  2  3  1  0  0  0
  2  4  1  0  0  0
  5  4  1  0  0  0
  5  6  1  0  0  0
  5 39  1  0  0  0
  6 37  1  0  0  0
  7 37  1  0  0  0
  7  8  1  0  0  0
  7 11  1  0  0  0
  8  9  1  0  0  0
  9 43  1  0  0  0
 10 43  1  0  0  0
 11 38  1  0  0  0
 13 12  1  0  0  0
 13 40  1  0  0  0
 15 14  1  0  0  0
 15 16  1  0  0  0
 15 41  1  0  0  0
 16 17  1  0  0  0
 18 19  1  0  0  0
 20 21  1  0  0  0
 22 17  1  0  0  0
 24 23  1  0  0  0
 24 25  1  0  0  0
 24 42  1  0  0  0
 25 26  1  0  0  0
 27 28  1  0  0  0
 29 30  1  0  0  0
 31 26  1  0  0  0
 39 12  1  0  0  0
 40 14  1  0  0  0
 41 23  1  0  0  0
  6 32  2  0  0  0
 11 33  2  0  0  0
 12 34  2  0  0  0
 14 35  2  0  0  0
 17 18  2  0  0  0
 19 20  2  0  0  0
 21 22  2  0  0  0
 23 36  2  0  0  0
 26 27  2  0  0  0
 28 29  2  0  0  0
 30 31  2  0  0  0
M  END
> <rmsd>
0.676011443

$$$$
MolPort-046-861-492 CSSS02125602306 MCULE-1041810438 PubChem-445421 PubChem-73416888 ZINC000091302266 ZINC91302266


 44 47  0  0  0  0  0  0  0  0999 V2000
    8.0464   23.4329   66.7882 C   0  0  0  0  0
    8.3667   22.3861   67.8423 C   0  0  0  0  0
    9.0645   21.1597   67.2158 C   0  0  0  0  0
    8.6437   19.8676   67.9202 C   0  0  0  0  0
    7.1201   19.7439   68.0259 C   0  0  0  0  0
    6.4500   21.1235   67.9456 C   0  0  0  0  0
    4.3568   21.6895   67.4899 C   0  0  0  0  0
    3.7075   22.9633   68.0626 C   0  0  0  0  0
    1.6500   21.9628   68.3366 C   0  0  0  0  0
    2.1259   20.5654   67.9345 C   0  0  0  0  0
    3.3130   20.6864   66.9808 C   0  0  0  0  0
   -0.4190   22.7161   68.5897 C   0  0  0  0  0
   -0.7785   23.8475   69.5765 C   0  0  0  0  0
   -2.6428   24.2477   68.2875 C   0  0  0  0  0
   -2.7934   22.8321   67.7094 C   0  0  0  0  0
   -1.6636   21.9179   68.1939 C   0  0  0  0  0
    0.0955   25.0716   69.3418 C   0  0  0  0  0
    3.2732   23.9564   66.9866 C   0  0  0  0  0
   10.9857   21.5917   65.9464 C   0  0  0  0  0
   12.0642   22.6341   65.9728 C   0  0  0  0  0
   12.7697   22.8637   64.8583 C   0  0  0  0  0
   12.4435   22.0689   63.6130 C   0  0  0  0  0
   12.2170   20.5792   63.9307 C   0  0  0  0  0
   11.4991   20.3071   65.2692 C   0  0  0  0  0
   13.8483   23.9013   64.8630 C   0  0  0  0  0
    7.2244   22.0822   68.6262 O   0  0  0  0  0
    5.1539   21.0891   68.4681 O   0  0  0  0  0
    2.6770   22.6777   68.9903 O   0  0  0  0  0
    2.8671   21.0666   65.7141 O   0  0  0  0  0
    2.4929   19.8307   69.0646 O   0  0  0  0  0
    0.5319   21.8715   69.1695 O   0  0  0  0  0
   -2.1565   24.1899   69.6073 O   0  0  0  0  0
   -1.3465   20.9976   67.1942 O   0  0  0  0  0
   -4.0186   22.2737   68.0810 O   0  0  0  0  0
   -3.8547   24.9395   68.2516 O   0  0  0  0  0
   -0.0612   25.9729   70.3948 O   0  0  0  0  0
    4.3895   24.4265   66.2947 O   0  0  0  0  0
    6.7988   19.1097   69.2282 O   0  0  0  0  0
    9.1550   18.7607   67.2419 O   0  0  0  0  0
   12.3665   19.6172   66.1197 O   0  0  0  0  0
   11.5107   19.9771   62.8896 O   0  0  0  0  0
   13.4468   22.2014   62.6503 O   0  0  0  0  0
   14.8830   23.5116   65.7144 O   0  0  0  0  0
   10.5079   21.3246   67.2949 N   0  0  0  0  0
  2  1  1  0  0  0
  2  3  1  0  0  0
  2 26  1  0  0  0
  3  4  1  0  0  0
  3 44  1  0  0  0
  4  5  1  0  0  0
  4 39  1  0  0  0
  5  6  1  0  0  0
  5 38  1  0  0  0
  6 26  1  0  0  0
  6 27  1  0  0  0
  7 27  1  0  0  0
  7  8  1  0  0  0
  8 28  1  0  0  0
  8 18  1  0  0  0
  9 28  1  0  0  0
  9 10  1  0  0  0
  9 31  1  0  0  0
 10 11  1  0  0  0
 10 30  1  0  0  0
 11 29  1  0  0  0
 11  7  1  0  0  0
 12 31  1  0  0  0
 12 13  1  0  0  0
 13 32  1  0  0  0
 13 17  1  0  0  0
 14 32  1  0  0  0
 14 15  1  0  0  0
 14 35  1  0  0  0
 15 16  1  0  0  0
 15 34  1  0  0  0
 16 33  1  0  0  0
 16 12  1  0  0  0
 17 36  1  0  0  0
 18 37  1  0  0  0
 19 44  1  0  0  0
 19 20  1  0  0  0
 22 21  1  0  0  0
 22 23  1  0  0  0
 22 42  1  0  0  0
 23 24  1  0  0  0
 23 41  1  0  0  0
 24 40  1  0  0  0
 24 19  1  0  0  0
 25 21  1  0  0  0
 25 43  1  0  0  0
 20 21  2  0  0  0
M  END
> <rmsd>
0.79103446

$$$$
MolPort-002-516-472 MCULE-1897685879 PubChem-16398150


 35 38  0  0  0  0  0  0  0  0999 V2000
   -3.0018   21.9602   70.2403 C   0  0  0  0  0
   -2.3325   22.6034   69.0381 C   0  0  0  0  0
   -0.1725   21.2641   69.0518 C   0  0  0  0  0
    0.7554   20.3559   68.3132 C   0  0  0  0  0
    2.7340   21.9340   68.1001 C   0  0  0  0  0
    4.1556   22.2540   68.4267 C   0  0  0  0  0
    6.2642   22.1982   67.6536 C   0  0  0  0  0
    8.2913   21.2536   67.5462 C   0  0  0  0  0
    8.7316   19.8519   67.1761 C   0  0  0  0  0
    9.4278   22.2132   67.2338 C   0  0  0  0  0
    6.8727   22.0963   69.0404 C   0  0  0  0  0
    5.9155   21.5155   70.0964 C   0  0  0  0  0
    5.2514   22.9347   71.6969 C   0  0  0  0  0
    5.8748   24.3082   71.8518 C   0  0  0  0  0
    4.6378   22.5315   73.0256 C   0  0  0  0  0
    4.4740   21.9056   69.8860 C   0  0  0  0  0
   -3.3643   22.9994   68.0354 C   0  0  0  0  0
   -5.2699   22.3455   66.5138 C   0  0  0  0  0
   -6.1376   21.1595   66.2796 C   0  0  0  0  0
   -7.1969   20.8876   67.1539 C   0  0  0  0  0
   -7.9813   19.7447   66.9689 C   0  0  0  0  0
   -7.7039   18.8693   65.9148 C   0  0  0  0  0
   -6.6417   19.1359   65.0452 C   0  0  0  0  0
   -5.8553   20.2776   65.2303 C   0  0  0  0  0
   -1.3896   21.6780   68.4239 N   0  0  0  0  0
    2.1458   20.7145   68.5636 N   0  0  0  0  0
   -4.2743   22.0244   67.5216 N   0  0  0  0  0
    0.0992   21.6274   70.2291 O   0  0  0  0  0
    2.0728   22.7261   67.3785 O   0  0  0  0  0
    5.0146   21.5547   67.5647 O   0  0  0  0  0
    7.1617   21.5920   66.7752 O   0  0  0  0  0
    8.0031   21.2906   68.9225 O   0  0  0  0  0
    6.2603   22.0104   71.3524 O   0  0  0  0  0
    4.2421   22.9963   70.7154 O   0  0  0  0  0
   -3.4134   24.1921   67.6348 O   0  0  0  0  0
  2  1  1  0  0  0
  2 25  1  0  0  0
  2 17  1  0  0  0
  4  3  1  0  0  0
  4 26  1  0  0  0
  6  5  1  0  0  0
  6 30  1  0  0  0
  7 30  1  0  0  0
  7 31  1  0  0  0
  8 31  1  0  0  0
  8  9  1  0  0  0
  8 10  1  0  0  0
  8 32  1  0  0  0
 11 32  1  0  0  0
 11 12  1  0  0  0
 11  7  1  0  0  0
 12 33  1  0  0  0
 13 33  1  0  0  0
 13 14  1  0  0  0
 13 15  1  0  0  0
 13 34  1  0  0  0
 16 34  1  0  0  0
 16  6  1  0  0  0
 16 12  1  0  0  0
 17 27  1  0  0  0
 18 27  1  0  0  0
 18 19  1  0  0  0
 20 21  1  0  0  0
 22 23  1  0  0  0
 24 19  1  0  0  0
 25  3  1  0  0  0
 26  5  1  0  0  0
  3 28  2  0  0  0
  5 29  2  0  0  0
 17 35  2  0  0  0
 19 20  2  0  0  0
 21 22  2  0  0  0
 23 24  2  0  0  0
M  END
> <rmsd>
0.718422532

$$$$
MolPort-002-516-472 MCULE-1897685879 PubChem-16398150


 35 38  0  0  0  0  0  0  0  0999 V2000
   -2.0617   22.9074   70.3569 C   0  0  0  0  0
   -1.7930   22.8687   68.8625 C   0  0  0  0  0
    0.0885   21.1600   68.8652 C   0  0  0  0  0
    0.6032   19.8469   68.3729 C   0  0  0  0  0
    2.5315   20.7056   66.9605 C   0  0  0  0  0
    4.0022   20.7759   66.7115 C   0  0  0  0  0
    5.6909   19.9303   65.4948 C   0  0  0  0  0
    7.4463   18.5607   65.2582 C   0  0  0  0  0
    7.5854   17.0618   65.4304 C   0  0  0  0  0
    8.4930   19.0296   64.2609 C   0  0  0  0  0
    6.7318   20.2180   66.5615 C   0  0  0  0  0
    6.1501   20.3260   67.9823 C   0  0  0  0  0
    6.2340   22.3589   68.9188 C   0  0  0  0  0
    7.0076   23.4972   68.2826 C   0  0  0  0  0
    6.0856   22.6468   70.4018 C   0  0  0  0  0
    4.7733   20.9396   68.0272 C   0  0  0  0  0
   -3.0643   23.0903   68.1132 C   0  0  0  0  0
   -5.4370   22.3853   67.6156 C   0  0  0  0  0
   -6.4470   21.4432   68.1692 C   0  0  0  0  0
   -7.1560   21.7833   69.3277 C   0  0  0  0  0
   -8.0669   20.8783   69.8817 C   0  0  0  0  0
   -8.2651   19.6307   69.2830 C   0  0  0  0  0
   -7.5524   19.2869   68.1300 C   0  0  0  0  0
   -6.6397   20.1904   67.5760 C   0  0  0  0  0
   -1.2227   21.5836   68.4802 N   0  0  0  0  0
    2.0221   19.9304   68.0503 N   0  0  0  0  0
   -4.1901   22.2412   68.3467 N   0  0  0  0  0
    0.7896   21.8650   69.6419 O   0  0  0  0  0
    1.7437   21.2993   66.1782 O   0  0  0  0  0
    4.4307   19.6195   66.0413 O   0  0  0  0  0
    6.1589   18.8418   64.7595 O   0  0  0  0  0
    7.6622   19.1827   66.5012 O   0  0  0  0  0
    6.9601   21.1609   68.7492 O   0  0  0  0  0
    4.9572   22.2841   68.3270 O   0  0  0  0  0
   -3.1293   24.0175   67.2639 O   0  0  0  0  0
  2  1  1  0  0  0
  2 25  1  0  0  0
  2 17  1  0  0  0
  4  3  1  0  0  0
  4 26  1  0  0  0
  6  5  1  0  0  0
  6 30  1  0  0  0
  7 30  1  0  0  0
  7 31  1  0  0  0
  8 31  1  0  0  0
  8  9  1  0  0  0
  8 10  1  0  0  0
  8 32  1  0  0  0
 11 32  1  0  0  0
 11 12  1  0  0  0
 11  7  1  0  0  0
 12 33  1  0  0  0
 13 33  1  0  0  0
 13 14  1  0  0  0
 13 15  1  0  0  0
 13 34  1  0  0  0
 16 34  1  0  0  0
 16  6  1  0  0  0
 16 12  1  0  0  0
 17 27  1  0  0  0
 18 27  1  0  0  0
 18 19  1  0  0  0
 20 21  1  0  0  0
 22 23  1  0  0  0
 24 19  1  0  0  0
 25  3  1  0  0  0
 26  5  1  0  0  0
  3 28  2  0  0  0
  5 29  2  0  0  0
 17 35  2  0  0  0
 19 20  2  0  0  0
 21 22  2  0  0  0
 23 24  2  0  0  0
M  END
> <rmsd>
0.810183883

$$$$
MolPort-042-638-498 426593782 CSSS00160157701 MCULE-7105296691 PubChem-121508089 ZINC000426593782


 20 20  0  0  0  0  0  0  0  0999 V2000
    6.2471   19.7872   71.6454 C   0  0  0  0  0
    7.4191   21.1825   69.9305 C   0  0  0  0  0
    5.5290   20.4283   69.3220 C   0  0  0  0  0
    3.0784   21.0251   69.9636 C   0  0  0  0  0
    1.5961   20.7293   70.0922 C   0  0  0  0  0
   -0.0695   21.5540   68.3899 C   0  0  0  0  0
   -1.7427   22.2701   66.6315 C   0  0  0  0  0
   -3.0678   21.5914   66.9494 C   0  0  0  0  0
   -4.6481   22.8999   70.5308 C   0  0  0  0  0
    6.3865   20.4354   70.3535 N   0  0  0  0  0
    7.1872   21.6136   68.6721 N   0  0  0  0  0
    6.0073   21.1428   68.2899 N   0  0  0  0  0
    0.9845   20.6718   68.7738 N   0  0  0  0  0
   -0.6270   21.4484   67.0789 N   0  0  0  0  0
   -3.3053   21.5717   68.3855 N   0  0  0  0  0
    3.9542   19.5763   69.3027 S   0  0  0  0  0
   -4.2930   22.9367   68.7905 S   0  0  0  0  0
   -0.4970   22.4243   69.1967 O   0  0  0  0  0
   -3.5669   24.2113   68.4627 O   0  0  0  0  0
   -5.5835   22.8811   68.0218 O   0  0  0  0  0
  1 10  1  0  0  0
  3 16  1  0  0  0
  3 10  1  0  0  0
  4 16  1  0  0  0
  4  5  1  0  0  0
  5 13  1  0  0  0
  6 14  1  0  0  0
  7 14  1  0  0  0
  7  8  1  0  0  0
  8 15  1  0  0  0
 10  2  1  0  0  0
 11 12  1  0  0  0
 13  6  1  0  0  0
 17 15  1  0  0  0
 17  9  1  0  0  0
  2 11  2  0  0  0
  3 12  2  0  0  0
  6 18  2  0  0  0
 17 19  2  0  0  0
 17 20  2  0  0  0
M  END
> <rmsd>
0.718862534

$$$$
MolPort-001-740-203 CSSS00159279811 MCULE-1172050611 PubChem-13644660


 40 44  0  0  0  0  0  0  0  0999 V2000
    3.3657   22.6568   68.7866 C   0  0  0  0  0
    3.7637   24.0041   68.9105 C   0  0  0  0  0
    2.7908   25.0208   69.0381 C   0  0  0  0  0
    3.1191   26.3883   69.1584 C   0  0  0  0  0
    2.1030   27.3320   69.2770 C   0  0  0  0  0
    0.7696   26.9123   69.2756 C   0  0  0  0  0
   -0.3330   27.8865   69.3984 C   0  0  0  0  0
   -0.0769   29.2620   69.5213 C   0  0  0  0  0
   -1.1324   30.1712   69.6365 C   0  0  0  0  0
   -2.4525   29.7136   69.6298 C   0  0  0  0  0
   -2.7177   28.3472   69.5081 C   0  0  0  0  0
   -1.6623   27.4380   69.3929 C   0  0  0  0  0
    1.4190   24.6726   69.0464 C   0  0  0  0  0
    1.0254   23.3309   68.9341 C   0  0  0  0  0
    2.0014   22.3260   68.8018 C   0  0  0  0  0
   -0.4470   23.0123   68.9285 C   0  0  0  0  0
   -1.0233   22.8641   67.5124 C   0  0  0  0  0
   -2.5422   22.7373   67.5985 C   0  0  0  0  0
   -2.9310   21.6898   68.6495 C   0  0  0  0  0
   -2.1582   21.8743   69.9729 C   0  0  0  0  0
   -2.6332   23.0507   70.8322 C   0  0  0  0  0
    4.3715   21.5391   68.6702 C   0  0  0  0  0
    4.9227   21.0874   70.0320 C   0  0  0  0  0
    5.8169   19.8629   69.8057 C   0  0  0  0  0
    6.7974   20.0685   68.6431 C   0  0  0  0  0
    6.0371   20.6350   67.4395 C   0  0  0  0  0
    5.1195   24.3234   68.9021 O   0  0  0  0  0
    4.3150   26.7843   69.1612 O   0  0  0  0  0
   -3.5005   30.6164   69.7442 O   0  0  0  0  0
    0.4878   25.6176   69.1624 O   0  0  0  0  0
    1.6190   20.9915   68.6870 O   0  0  0  0  0
   -0.4924   21.7412   66.8737 O   0  0  0  0  0
   -3.1035   23.9797   67.9061 O   0  0  0  0  0
   -4.3126   21.6666   68.8534 O   0  0  0  0  0
   -3.8494   22.7413   71.4409 O   0  0  0  0  0
   -0.7596   21.9079   69.7545 O   0  0  0  0  0
    5.6489   22.1162   70.6395 O   0  0  0  0  0
    6.4919   19.5091   70.9762 O   0  0  0  0  0
    7.8253   20.9420   69.0077 O   0  0  0  0  0
    5.4121   21.8518   67.7735 O   0  0  0  0  0
  2 27  1  0  0  0
  2  3  1  0  0  0
  3  4  1  0  0  0
  4  5  1  0  0  0
  6  7  1  0  0  0
  6 30  1  0  0  0
  8  9  1  0  0  0
 10 11  1  0  0  0
 10 29  1  0  0  0
 12  7  1  0  0  0
 13 30  1  0  0  0
 13 14  1  0  0  0
 15 31  1  0  0  0
 15  1  1  0  0  0
 16 14  1  0  0  0
 16 17  1  0  0  0
 16 36  1  0  0  0
 17 32  1  0  0  0
 17 18  1  0  0  0
 18 33  1  0  0  0
 18 19  1  0  0  0
 19 34  1  0  0  0
 19 20  1  0  0  0
 20 21  1  0  0  0
 20 36  1  0  0  0
 21 35  1  0  0  0
 22  1  1  0  0  0
 22 23  1  0  0  0
 22 40  1  0  0  0
 23 37  1  0  0  0
 23 24  1  0  0  0
 24 38  1  0  0  0
 24 25  1  0  0  0
 25 39  1  0  0  0
 25 26  1  0  0  0
 26 40  1  0  0  0
  1  2  2  0  0  0
  4 28  2  0  0  0
  5  6  2  0  0  0
  7  8  2  0  0  0
  9 10  2  0  0  0
 11 12  2  0  0  0
 13  3  2  0  0  0
 14 15  2  0  0  0
M  END
> <rmsd>
0.759407282

$$$$
MolPort-047-806-372 CSSS03436517498 MCULE-6139432689 MCULE-9636136599 PubChem-155977509


 43 44  0  0  0  0  0  0  0  0999 V2000
    7.9234   18.7775   73.2984 C   0  0  0  0  0
    6.8698   18.9980   72.2334 C   0  0  0  0  0
    5.5427   18.4623   72.7339 C   0  0  0  0  0
    6.7590   20.4910   71.9363 C   0  0  0  0  0
    6.2788   20.7989   70.5143 C   0  0  0  0  0
    4.1855   20.4689   69.1085 C   0  0  0  0  0
    2.8897   19.7372   68.9309 C   0  0  0  0  0
    3.0222   18.5172   68.0192 C   0  0  0  0  0
    3.9062   17.4737   68.6206 C   0  0  0  0  0
    3.5322   16.8131   69.7987 C   0  0  0  0  0
    4.3720   15.8425   70.3533 C   0  0  0  0  0
    5.5849   15.5286   69.7307 C   0  0  0  0  0
    5.9567   16.1832   68.5520 C   0  0  0  0  0
    5.1173   17.1536   67.9969 C   0  0  0  0  0
    1.6804   21.1683   67.1689 C   0  0  0  0  0
    0.6054   22.1581   66.8710 C   0  0  0  0  0
   -1.1207   21.9729   68.7099 C   0  0  0  0  0
   -2.4291   21.4418   69.1956 C   0  0  0  0  0
   -3.9710   22.8890   67.7821 C   0  0  0  0  0
   -5.0743   22.9891   66.7710 C   0  0  0  0  0
   -6.4100   23.3954   67.3984 C   0  0  0  0  0
   -6.9998   22.3496   68.2963 C   0  0  0  0  0
   -6.4590   22.1079   69.5654 C   0  0  0  0  0
   -7.0455   21.1614   70.4097 C   0  0  0  0  0
   -8.1874   20.4524   70.0003 C   0  0  0  0  0
   -8.4507   19.1502   72.1269 C   0  0  0  0  0
   -9.1896   18.0627   72.8214 C   0  0  0  0  0
   -8.7268   20.7062   68.7330 C   0  0  0  0  0
   -8.1403   21.6531   67.8856 C   0  0  0  0  0
    7.2900   20.3880   69.4864 C   0  0  0  0  0
    4.9831   20.1822   70.2575 N   0  0  0  0  0
    1.8186   20.6289   68.4900 N   0  0  0  0  0
   -0.6781   21.6923   67.3786 N   0  0  0  0  0
   -3.4693   21.6089   68.1856 N   0  0  0  0  0
   -5.2111   21.7562   66.0055 N   0  0  0  0  0
    4.5836   21.2962   68.2433 O   0  0  0  0  0
    2.4709   20.8303   66.2518 O   0  0  0  0  0
   -0.4015   22.6480   69.4931 O   0  0  0  0  0
   -3.5080   23.9420   68.2960 O   0  0  0  0  0
   -8.8159   19.4949   70.8148 O   0  0  0  0  0
   -7.5176   19.7410   72.7334 O   0  0  0  0  0
    7.6164   19.0474   69.3060 O   0  0  0  0  0
    7.8391   21.2656   68.7695 O   0  0  0  0  0
  1  2  1  0  0  0
  2  3  1  0  0  0
  2  4  1  0  0  0
  5  4  1  0  0  0
  5 31  1  0  0  0
  5 30  1  0  0  0
  7  6  1  0  0  0
  7  8  1  0  0  0
  7 32  1  0  0  0
  8  9  1  0  0  0
 10 11  1  0  0  0
 12 13  1  0  0  0
 14  9  1  0  0  0
 16 15  1  0  0  0
 16 33  1  0  0  0
 18 17  1  0  0  0
 18 34  1  0  0  0
 20 19  1  0  0  0
 20 35  1  0  0  0
 20 21  1  0  0  0
 21 22  1  0  0  0
 23 24  1  0  0  0
 25 40  1  0  0  0
 25 28  1  0  0  0
 26 40  1  0  0  0
 27 26  1  0  0  0
 29 22  1  0  0  0
 30 42  1  0  0  0
 31  6  1  0  0  0
 32 15  1  0  0  0
 33 17  1  0  0  0
 34 19  1  0  0  0
  6 36  2  0  0  0
  9 10  2  0  0  0
 11 12  2  0  0  0
 13 14  2  0  0  0
 15 37  2  0  0  0
 17 38  2  0  0  0
 19 39  2  0  0  0
 22 23  2  0  0  0
 24 25  2  0  0  0
 26 41  2  0  0  0
 28 29  2  0  0  0
 30 43  2  0  0  0
M  END
> <rmsd>
0.595810175

$$$$
MolPort-051-710-987 MCULE-8649310170


 43 47  0  0  0  0  0  0  0  0999 V2000
   -5.6880   21.2329   70.4464 C   0  0  0  0  0
   -4.1675   21.2344   70.4592 C   0  0  0  0  0
   -3.6504   20.1990   71.4404 C   0  0  0  0  0
   -3.5646   21.0241   69.0670 C   0  0  0  0  0
   -2.8932   23.2150   67.9833 C   0  0  0  0  0
   -1.5271   23.1595   68.6126 C   0  0  0  0  0
   -0.7089   24.4250   68.3433 C   0  0  0  0  0
    0.5801   24.4159   69.0961 C   0  0  0  0  0
    0.6053   24.7467   70.4559 C   0  0  0  0  0
    1.8101   24.7015   71.1645 C   0  0  0  0  0
    2.9895   24.3219   70.5160 C   0  0  0  0  0
    2.9653   23.9880   69.1586 C   0  0  0  0  0
    1.7614   24.0337   68.4494 C   0  0  0  0  0
   -0.0896   21.1293   69.0112 C   0  0  0  0  0
    0.6725   19.9809   68.4438 C   0  0  0  0  0
    0.4982   18.7416   69.3139 C   0  0  0  0  0
    0.7691   17.4744   68.5197 C   0  0  0  0  0
   -0.4725   17.0283   67.7649 C   0  0  0  0  0
   -1.4595   16.3853   68.7243 C   0  0  0  0  0
   -3.6975   16.3485   67.4623 C   0  0  0  0  0
   -4.0377   17.7611   67.7296 C   0  0  0  0  0
   -5.1897   18.3898   67.2954 C   0  0  0  0  0
   -4.0015   19.7538   68.4045 C   0  0  0  0  0
    2.9431   19.8678   67.3238 C   0  0  0  0  0
    4.3502   20.2805   67.3105 C   0  0  0  0  0
    5.2895   19.8945   66.3569 C   0  0  0  0  0
    7.6509   20.4662   66.1404 C   0  0  0  0  0
    8.6771   21.2073   66.7413 C   0  0  0  0  0
    8.3880   21.9435   67.9068 C   0  0  0  0  0
    6.1678   21.2043   67.8280 C   0  0  0  0  0
   -3.8406   22.1669   68.2061 N   0  0  0  0  0
   -0.8166   21.9838   68.1284 N   0  0  0  0  0
   -2.5175   15.7202   67.9797 N   0  0  0  0  0
   -3.2790   18.6187   68.4388 N   0  0  0  0  0
    2.0800   20.3423   68.3586 N   0  0  0  0  0
    6.4282   20.5002   66.7201 N   0  0  0  0  0
    7.1315   21.9349   68.4406 N   0  0  0  0  0
    4.8932   21.1056   68.2409 N   0  0  0  0  0
   -3.2144   24.1752   67.2328 O   0  0  0  0  0
   -0.0485   21.3758   70.2483 O   0  0  0  0  0
   -4.4867   15.6563   66.7662 O   0  0  0  0  0
   -5.1250   19.6221   67.7385 O   0  0  0  0  0
    2.4974   19.1113   66.4188 O   0  0  0  0  0
  1  2  1  0  0  0
  2  3  1  0  0  0
  4  2  1  0  0  0
  4 31  1  0  0  0
  4 23  1  0  0  0
  6  5  1  0  0  0
  6  7  1  0  0  0
  6 32  1  0  0  0
  7  8  1  0  0  0
  9 10  1  0  0  0
 11 12  1  0  0  0
 13  8  1  0  0  0
 15 14  1  0  0  0
 15 16  1  0  0  0
 15 35  1  0  0  0
 16 17  1  0  0  0
 17 18  1  0  0  0
 18 19  1  0  0  0
 19 33  1  0  0  0
 20 21  1  0  0  0
 21 34  1  0  0  0
 22 42  1  0  0  0
 23 42  1  0  0  0
 24 25  1  0  0  0
 25 38  1  0  0  0
 26 36  1  0  0  0
 28 29  1  0  0  0
 30 37  1  0  0  0
 30 36  1  0  0  0
 31  5  1  0  0  0
 32 14  1  0  0  0
 33 20  1  0  0  0
 35 24  1  0  0  0
 36 27  1  0  0  0
  5 39  2  0  0  0
  8  9  2  0  0  0
 10 11  2  0  0  0
 12 13  2  0  0  0
 14 40  2  0  0  0
 20 41  2  0  0  0
 21 22  2  0  0  0
 23 34  2  0  0  0
 24 43  2  0  0  0
 25 26  2  0  0  0
 27 28  2  0  0  0
 29 37  2  0  0  0
 30 38  2  0  0  0
M  END
> <rmsd>
0.668504953

$$$$
MolPort-003-930-664


 27 26  0  0  0  0  0  0  0  0999 V2000
   10.2804   21.0523   67.0019 O   0  0  0  0  0
    8.7005   18.7639   66.6771 O   0  0  0  0  0
    7.7314   21.5314   68.7400 O   0  0  0  0  0
    5.1747   20.7935   68.3597 O   0  0  0  0  0
    6.3982   17.5301   67.5121 O   0  0  0  0  0
    3.5329   18.6589   66.2988 O   0  0  0  0  0
    3.6693   17.9649   68.4790 O   0  0  0  0  0
    0.4749   18.2772   68.9511 O   0  0  0  0  0
    0.3093   18.7743   66.7202 O   0  0  0  0  0
    1.9886   20.7385   68.8803 O   0  0  0  0  0
    0.0158   22.5856   69.2667 O   0  0  0  0  0
   -1.5037   22.2577   66.9927 O   0  0  0  0  0
   -4.0136   21.2730   68.0874 O   0  0  0  0  0
   -3.2107   23.9015   68.5288 O   0  0  0  0  0
   10.0195   20.1807   68.0614 C   0  0  0  0  0
    8.6716   19.4881   67.8705 C   0  0  0  0  0
    7.4868   20.4691   67.8625 C   0  0  0  0  0
    6.1574   19.8027   68.2524 C   0  0  0  0  0
    5.7177   18.7204   67.2523 C   0  0  0  0  0
    4.2482   18.4489   67.3120 C   0  0  0  0  0
    0.5235   19.1766   67.8929 C   0  0  0  0  0
    0.8098   20.6219   68.1414 C   0  0  0  0  0
   -0.3456   21.2894   68.8873 C   0  0  0  0  0
   -1.6116   21.3212   68.0258 C   0  0  0  0  0
   -2.8793   21.5359   68.8575 C   0  0  0  0  0
   -2.9770   22.9211   69.4955 C   0  0  0  0  0
    0.3200   17.0561   69.5836 Cu  0  0  0  0  0
  7 27  1  0  0  0
 15  1  1  0  0  0
 16 15  1  0  0  0
 16  2  1  0  0  0
 16 17  1  0  0  0
 17  3  1  0  0  0
 17 18  1  0  0  0
 18  4  1  0  0  0
 18 19  1  0  0  0
 19  5  1  0  0  0
 19 20  1  0  0  0
 20  7  1  0  0  0
 21  8  1  0  0  0
 22 21  1  0  0  0
 22 10  1  0  0  0
 22 23  1  0  0  0
 23 11  1  0  0  0
 23 24  1  0  0  0
 24 12  1  0  0  0
 24 25  1  0  0  0
 25 13  1  0  0  0
 25 26  1  0  0  0
 26 14  1  0  0  0
 27  8  1  0  0  0
 20  6  2  0  0  0
 21  9  2  0  0  0
M  END
> <rmsd>
0.765238702

$$$$
MolPort-051-712-414 MCULE-2696503014


 43 47  0  0  0  0  0  0  0  0999 V2000
   -7.0775   23.5616   67.1306 C   0  0  0  0  0
   -5.7359   22.9696   66.7389 C   0  0  0  0  0
   -5.9089   21.9364   65.6363 C   0  0  0  0  0
   -4.9876   22.4166   67.9583 C   0  0  0  0  0
   -2.5882   23.1758   67.7592 C   0  0  0  0  0
   -1.1906   22.9288   67.2890 C   0  0  0  0  0
   -1.0653   23.2832   65.8131 C   0  0  0  0  0
    0.3616   23.2320   65.3774 C   0  0  0  0  0
    1.2309   24.2861   65.6829 C   0  0  0  0  0
    2.5765   24.2137   65.3103 C   0  0  0  0  0
    3.0558   23.0866   64.6357 C   0  0  0  0  0
    2.1900   22.0309   64.3340 C   0  0  0  0  0
    0.8447   22.1027   64.7069 C   0  0  0  0  0
   -0.3638   21.0507   68.7739 C   0  0  0  0  0
    0.2771   19.6987   68.8479 C   0  0  0  0  0
   -0.5944   18.6799   69.5771 C   0  0  0  0  0
   -0.7305   18.9735   71.0674 C   0  0  0  0  0
   -1.9529   18.2619   71.6190 C   0  0  0  0  0
   -3.2026   18.9666   71.1304 C   0  0  0  0  0
   -5.6452   18.3704   70.7324 C   0  0  0  0  0
   -5.8722   19.4816   69.7832 C   0  0  0  0  0
   -7.0551   19.7298   69.1126 C   0  0  0  0  0
   -5.6055   21.1915   68.5767 C   0  0  0  0  0
    2.7100   20.3886   68.7478 C   0  0  0  0  0
    4.0173   20.5232   69.4230 C   0  0  0  0  0
    4.1929   20.0354   70.7303 C   0  0  0  0  0
    5.4411   20.1744   71.3662 C   0  0  0  0  0
    6.5118   20.7971   70.7068 C   0  0  0  0  0
    6.2803   21.2604   69.4154 C   0  0  0  0  0
    6.4280   22.1138   67.5024 C   0  0  0  0  0
   -3.5920   22.1666   67.6193 N   0  0  0  0  0
   -0.7973   21.5413   67.5056 N   0  0  0  0  0
   -4.3699   18.1275   71.3412 N   0  0  0  0  0
   -4.9512   20.4059   69.4515 N   0  0  0  0  0
    1.6098   19.7799   69.4337 N   0  0  0  0  0
    7.1656   21.8841   68.6206 N   0  0  0  0  0
    5.1602   21.6500   67.6203 N   0  0  0  0  0
    5.0894   21.1195   68.8256 N   0  0  0  0  0
   -2.8813   24.2997   68.2487 O   0  0  0  0  0
   -0.4836   21.7603   69.8092 O   0  0  0  0  0
   -6.6011   17.5980   71.0082 O   0  0  0  0  0
   -6.8446   20.7992   68.3808 O   0  0  0  0  0
    2.5556   20.8126   67.5699 O   0  0  0  0  0
  1  2  1  0  0  0
  2  3  1  0  0  0
  4  2  1  0  0  0
  4 31  1  0  0  0
  4 23  1  0  0  0
  6  5  1  0  0  0
  6  7  1  0  0  0
  6 32  1  0  0  0
  7  8  1  0  0  0
  9 10  1  0  0  0
 11 12  1  0  0  0
 13  8  1  0  0  0
 15 14  1  0  0  0
 15 16  1  0  0  0
 15 35  1  0  0  0
 16 17  1  0  0  0
 17 18  1  0  0  0
 18 19  1  0  0  0
 19 33  1  0  0  0
 20 21  1  0  0  0
 21 34  1  0  0  0
 22 42  1  0  0  0
 23 42  1  0  0  0
 24 25  1  0  0  0
 26 27  1  0  0  0
 28 29  1  0  0  0
 30 36  1  0  0  0
 31  5  1  0  0  0
 32 14  1  0  0  0
 33 20  1  0  0  0
 35 24  1  0  0  0
 38 37  1  0  0  0
 38 25  1  0  0  0
 38 29  1  0  0  0
  5 39  2  0  0  0
  8  9  2  0  0  0
 10 11  2  0  0  0
 12 13  2  0  0  0
 14 40  2  0  0  0
 20 41  2  0  0  0
 21 22  2  0  0  0
 23 34  2  0  0  0
 24 43  2  0  0  0
 25 26  2  0  0  0
 27 28  2  0  0  0
 29 36  2  0  0  0
 30 37  2  0  0  0
M  END
> <rmsd>
0.650582433

$$$$
Molport-047-085-565 2037977907 MCULE-8912380597 PubChem-156000930


 29 32  0  0  0  0  0  0  0  0999 V2000
    3.0559   21.6891   69.7394 N   0  0  0  0  0
    4.3804   21.2132   71.5132 N   0  0  0  0  0
    6.9968   21.4782   68.9759 N   0  0  0  0  0
    4.8182   21.8528   68.0939 N   0  0  0  0  0
    7.3596   20.9801   71.3208 N   0  0  0  0  0
   -3.3293   21.9435   68.6761 N   0  0  0  0  0
   -6.0117   23.0187   64.9464 N   0  0  0  0  0
   -6.0974   21.7511   65.3137 N   0  0  0  0  0
    3.1066   21.4150   71.0702 C   0  0  0  0  0
    5.1207   21.3704   70.3999 C   0  0  0  0  0
    6.4946   21.2769   70.2302 C   0  0  0  0  0
    6.1717   21.7631   67.9165 C   0  0  0  0  0
    4.3303   21.6528   69.3425 C   0  0  0  0  0
    1.8790   21.9409   68.9159 C   0  0  0  0  0
    1.1114   23.1679   69.4356 C   0  0  0  0  0
   -0.9493   22.3287   69.1156 C   0  0  0  0  0
   -0.4570   21.0272   68.4526 C   0  0  0  0  0
    0.9847   20.6944   68.8674 C   0  0  0  0  0
   -2.3304   22.1270   69.7210 C   0  0  0  0  0
   -3.7162   22.9869   67.7771 C   0  0  0  0  0
   -4.6803   22.7192   66.6974 C   0  0  0  0  0
   -5.1480   23.6446   65.7757 C   0  0  0  0  0
   -6.9373   20.7740   64.6416 C   0  0  0  0  0
   -5.3034   21.5286   66.3737 C   0  0  0  0  0
   -5.1427   20.2092   67.0541 C   0  0  0  0  0
   -0.0597   22.7782   70.1095 O   0  0  0  0  0
   -0.5498   21.1601   67.0652 O   0  0  0  0  0
    1.5386   19.7254   68.0285 O   0  0  0  0  0
   -3.2336   24.1444   67.9078 O   0  0  0  0  0
  1  9  1  0  0  0
  6 20  1  0  0  0
  8  7  1  0  0  0
  8 24  1  0  0  0
 10  2  1  0  0  0
 11  3  1  0  0  0
 11  5  1  0  0  0
 12  4  1  0  0  0
 13  1  1  0  0  0
 13 10  1  0  0  0
 14  1  1  0  0  0
 14 15  1  0  0  0
 15 26  1  0  0  0
 16 26  1  0  0  0
 16 17  1  0  0  0
 16 19  1  0  0  0
 17 27  1  0  0  0
 17 18  1  0  0  0
 18 28  1  0  0  0
 18 14  1  0  0  0
 19  6  1  0  0  0
 20 21  1  0  0  0
 21 22  1  0  0  0
 23  8  1  0  0  0
 25 24  1  0  0  0
  9  2  2  0  0  0
 10 11  2  0  0  0
 12  3  2  0  0  0
 13  4  2  0  0  0
 20 29  2  0  0  0
 22  7  2  0  0  0
 24 21  2  0  0  0
M  END
> <rmsd>
0.754282773

$$$$
MolPort-005-945-040 CSSS00159279486 MCULE-8196692160 PubChem-4484951


 42 46  0  0  0  0  0  0  0  0999 V2000
    5.8066   22.1760   70.6210 O   0  0  0  0  0
    6.5516   19.5238   70.9826 O   0  0  0  0  0
    7.8573   20.9037   68.9739 O   0  0  0  0  0
    4.6509   20.1842   65.5501 O   0  0  0  0  0
    5.3263   21.8654   67.7818 O   0  0  0  0  0
    1.6183   21.0155   68.7344 O   0  0  0  0  0
   -3.1294   23.9389   67.9030 O   0  0  0  0  0
   -4.2923   21.6544   68.8353 O   0  0  0  0  0
   -0.7770   21.8774   69.7436 O   0  0  0  0  0
   -1.9898   21.1624   72.2212 O   0  0  0  0  0
   -0.4222   21.8232   66.8830 O   0  0  0  0  0
    0.4607   25.6238   69.3018 O   0  0  0  0  0
    2.9330   32.9590   70.1795 O   0  0  0  0  0
    4.3008   26.7780   69.3544 O   0  0  0  0  0
    5.0988   24.3510   69.0501 O   0  0  0  0  0
    5.0067   21.1537   70.1021 C   0  0  0  0  0
    5.8413   19.9005   69.8406 C   0  0  0  0  0
    6.7807   20.0784   68.6399 C   0  0  0  0  0
    6.0261   20.6788   67.4442 C   0  0  0  0  0
    5.1443   19.6495   66.7400 C   0  0  0  0  0
    4.3635   21.5752   68.7754 C   0  0  0  0  0
    3.3529   22.6829   68.9214 C   0  0  0  0  0
    1.9913   22.3482   68.8932 C   0  0  0  0  0
    1.0090   23.3463   69.0298 C   0  0  0  0  0
   -0.4628   23.0204   68.9846 C   0  0  0  0  0
   -1.0044   22.9037   67.5496 C   0  0  0  0  0
   -2.5213   22.7173   67.6001 C   0  0  0  0  0
   -2.9090   21.6508   68.6366 C   0  0  0  0  0
   -2.1682   21.9025   69.9598 C   0  0  0  0  0
   -2.5340   20.8364   70.9790 C   0  0  0  0  0
    1.3962   24.6875   69.1805 C   0  0  0  0  0
    0.7428   26.9098   69.4485 C   0  0  0  0  0
    2.0635   27.3699   69.4856 C   0  0  0  0  0
    2.3094   28.8328   69.6607 C   0  0  0  0  0
    3.5807   29.3339   69.9895 C   0  0  0  0  0
    3.7896   30.7051   70.1614 C   0  0  0  0  0
    2.7265   31.5970   70.0098 C   0  0  0  0  0
    1.4553   31.1178   69.6886 C   0  0  0  0  0
    1.2490   29.7462   69.5171 C   0  0  0  0  0
    3.0942   26.4116   69.3507 C   0  0  0  0  0
    2.7657   25.0430   69.2001 C   0  0  0  0  0
    3.7436   24.0296   69.0621 C   0  0  0  0  0
 16  1  1  0  0  0
 16 17  1  0  0  0
 17  2  1  0  0  0
 17 18  1  0  0  0
 18  3  1  0  0  0
 18 19  1  0  0  0
 19 20  1  0  0  0
 19  5  1  0  0  0
 20  4  1  0  0  0
 21  5  1  0  0  0
 21 22  1  0  0  0
 21 16  1  0  0  0
 23  6  1  0  0  0
 23 24  1  0  0  0
 25 24  1  0  0  0
 25 26  1  0  0  0
 25  9  1  0  0  0
 26 27  1  0  0  0
 26 11  1  0  0  0
 27  7  1  0  0  0
 27 28  1  0  0  0
 28  8  1  0  0  0
 28 29  1  0  0  0
 29  9  1  0  0  0
 29 30  1  0  0  0
 30 10  1  0  0  0
 31 12  1  0  0  0
 32 12  1  0  0  0
 33 34  1  0  0  0
 33 40  1  0  0  0
 35 36  1  0  0  0
 37 13  1  0  0  0
 37 38  1  0  0  0
 39 34  1  0  0  0
 40 41  1  0  0  0
 41 31  1  0  0  0
 42 15  1  0  0  0
 42 22  1  0  0  0
 22 23  2  0  0  0
 24 31  2  0  0  0
 32 33  2  0  0  0
 34 35  2  0  0  0
 36 37  2  0  0  0
 38 39  2  0  0  0
 40 14  2  0  0  0
 41 42  2  0  0  0
M  END
> <rmsd>
0.769803762

$$$$
Molport-053-122-794


 33 34  0  0  0  0  0  0  0  0999 V2000
   -7.0701   23.4021   67.7889 N   0  0  0  0  0
   -3.4844   22.4538   68.2147 N   0  0  0  0  0
   -0.4381   21.7091   67.4761 N   0  0  0  0  0
    2.6246   20.2983   68.9875 N   0  0  0  0  0
    5.7421   22.2319   69.7274 N   0  0  0  0  0
   -5.9181   22.5465   67.4999 C   0  0  0  0  0
   -4.6352   23.2348   67.8645 C   0  0  0  0  0
   -2.2315   23.0780   68.6391 C   0  0  0  0  0
   -1.1293   22.0649   68.6826 C   0  0  0  0  0
    0.6287   20.7020   67.4518 C   0  0  0  0  0
    1.0000   20.3559   65.9974 C   0  0  0  0  0
    1.9887   19.2192   65.9171 C   0  0  0  0  0
    1.5722   17.8963   66.1464 C   0  0  0  0  0
    2.4961   16.8476   66.0966 C   0  0  0  0  0
    3.8404   17.1101   65.8150 C   0  0  0  0  0
    4.2636   18.4223   65.5844 C   0  0  0  0  0
    3.3426   19.4746   65.6397 C   0  0  0  0  0
    1.8337   21.2070   68.2069 C   0  0  0  0  0
    3.6824   20.7533   69.8885 C   0  0  0  0  0
    4.8679   21.2697   69.1237 C   0  0  0  0  0
    6.8579   22.8313   69.0060 C   0  0  0  0  0
    8.9223   22.4069   68.0564 C   0  0  0  0  0
   10.1318   22.2628   68.9784 C   0  0  0  0  0
   10.7909   21.3312   67.9618 C   0  0  0  0  0
    9.5754   21.4679   67.0456 C   0  0  0  0  0
   12.0531   21.8858   67.3584 C   0  0  0  0  0
   -4.5556   24.4951   67.8062 O   0  0  0  0  0
   -0.8529   21.4913   69.7716 O   0  0  0  0  0
    2.1617   22.4234   68.1246 O   0  0  0  0  0
    5.1272   20.8135   67.9770 O   0  0  0  0  0
    7.7639   21.8217   68.6220 O   0  0  0  0  0
   12.1097   23.2124   66.9343 O   0  0  0  0  0
   13.0569   21.1389   67.2137 O   0  0  0  0  0
  6  1  1  0  0  0
  6  7  1  0  0  0
  7  2  1  0  0  0
  8  2  1  0  0  0
  8  9  1  0  0  0
  9  3  1  0  0  0
 10  3  1  0  0  0
 10 11  1  0  0  0
 10 18  1  0  0  0
 11 12  1  0  0  0
 13 14  1  0  0  0
 15 16  1  0  0  0
 17 12  1  0  0  0
 18  4  1  0  0  0
 19  4  1  0  0  0
 19 20  1  0  0  0
 20  5  1  0  0  0
 21  5  1  0  0  0
 21 31  1  0  0  0
 22 31  1  0  0  0
 22 23  1  0  0  0
 23 24  1  0  0  0
 24 25  1  0  0  0
 24 26  1  0  0  0
 25 22  1  0  0  0
 26 32  1  0  0  0
  7 27  2  0  0  0
  9 28  2  0  0  0
 12 13  2  0  0  0
 14 15  2  0  0  0
 16 17  2  0  0  0
 18 29  2  0  0  0
 20 30  2  0  0  0
 26 33  2  0  0  0
M  END
> <rmsd>
0.744375467

$$$$
MolPort-045-972-255 MolPort-048-727-192 MCULE-6690199786 MCULE-7286212732 PubChem-132373074 PubChem-163342366 PubChem-25245905 Z1313483445


 22 21  0  0  0  0  0  0  0  0999 V2000
    1.8628   24.3199   69.2842 C   0  0  0  0  0
    2.5232   22.9838   69.5820 C   0  0  0  0  0
    2.2619   22.6382   71.0426 C   0  0  0  0  0
    4.0226   23.1748   69.3562 C   0  0  0  0  0
    1.9688   21.8974   68.6307 C   0  0  0  0  0
    0.4713   21.7957   68.6247 C   0  0  0  0  0
   -1.6995   22.1042   67.3604 C   0  0  0  0  0
   -2.2896   23.2763   68.1251 C   0  0  0  0  0
   -3.7761   23.2145   68.0944 C   0  0  0  0  0
   -5.9045   22.0257   68.7267 C   0  0  0  0  0
   -6.3212   20.7640   69.4543 C   0  0  0  0  0
    4.7520   22.0476   69.7499 O   0  0  0  0  0
    5.7713   21.8509   67.3353 O   0  0  0  0  0
    7.1595   20.7894   69.2770 O   0  0  0  0  0
    6.9712   23.5193   68.9601 O   0  0  0  0  0
   -0.1448   21.4003   69.6524 O   0  0  0  0  0
   -4.4241   24.1362   67.5310 O   0  0  0  0  0
    2.5241   20.6435   68.9045 O   0  0  0  0  0
    6.1472   22.0515   68.7868 P   0  0  0  0  0
   -0.2464   22.1399   67.4372 N   0  0  0  0  0
   -4.4559   22.1248   68.7188 N   0  0  0  0  0
   -8.1318   20.6506   69.4799 S   0  0  0  0  0
  1  2  1  0  0  0
  2  3  1  0  0  0
  2  4  1  0  0  0
  4 12  1  0  0  0
  5  2  1  0  0  0
  5  6  1  0  0  0
  5 18  1  0  0  0
  6 20  1  0  0  0
  7 20  1  0  0  0
  7  8  1  0  0  0
  8  9  1  0  0  0
  9 21  1  0  0  0
 10 21  1  0  0  0
 10 11  1  0  0  0
 11 22  1  0  0  0
 19 12  1  0  0  0
 19 14  1  0  0  0
 19 15  1  0  0  0
  6 16  2  0  0  0
  9 17  2  0  0  0
 19 13  2  0  0  0
M  CHG  2  14  -1  15  -1
M  END
> <rmsd>
0.854541242

$$$$
MolPort-051-713-194 MCULE-3220932134


 43 47  0  0  0  0  0  0  0  0999 V2000
   -2.0679   21.8271   64.4187 C   0  0  0  0  0
   -2.9165   22.2936   65.5890 C   0  0  0  0  0
   -3.6524   23.5535   65.1658 C   0  0  0  0  0
   -2.0466   22.5518   66.8250 C   0  0  0  0  0
   -0.1985   21.3399   68.0983 C   0  0  0  0  0
    0.5876   20.0798   68.2814 C   0  0  0  0  0
    0.1352   19.3136   69.5194 C   0  0  0  0  0
   -1.2539   18.7305   69.3084 C   0  0  0  0  0
   -1.5715   17.6616   70.3423 C   0  0  0  0  0
   -1.6740   18.2531   71.7386 C   0  0  0  0  0
   -4.1235   17.8919   72.3653 C   0  0  0  0  0
   -4.6037   19.1000   71.6647 C   0  0  0  0  0
   -5.9287   19.4197   71.4322 C   0  0  0  0  0
   -4.6754   20.9562   70.6749 C   0  0  0  0  0
   -4.2617   22.2377   70.0290 C   0  0  0  0  0
   -3.5081   23.1105   71.0313 C   0  0  0  0  0
   -4.4435   23.7319   72.0134 C   0  0  0  0  0
   -4.6390   23.1381   73.2655 C   0  0  0  0  0
   -5.5295   23.7090   74.1798 C   0  0  0  0  0
   -6.2277   24.8725   73.8421 C   0  0  0  0  0
   -6.0366   25.4647   72.5898 C   0  0  0  0  0
   -5.1462   24.8940   71.6751 C   0  0  0  0  0
   -2.8930   22.9420   68.0030 C   0  0  0  0  0
    3.0254   19.3927   68.2155 C   0  0  0  0  0
    4.4365   19.7680   68.3457 C   0  0  0  0  0
    7.8300   19.1984   68.3679 C   0  0  0  0  0
    8.8194   20.1649   68.5974 C   0  0  0  0  0
    8.4237   21.4958   68.8441 C   0  0  0  0  0
    6.1811   20.8692   68.6324 C   0  0  0  0  0
   -1.2546   21.3631   67.1352 N   0  0  0  0  0
   -2.7287   17.5780   72.4805 N   0  0  0  0  0
   -3.8032   20.0719   71.1913 N   0  0  0  0  0
   -3.4133   21.9396   68.8823 N   0  0  0  0  0
    2.0089   20.3862   68.3723 N   0  0  0  0  0
    5.4573   18.8834   68.2116 N   0  0  0  0  0
    6.5406   19.6078   68.3977 N   0  0  0  0  0
    7.1012   21.8378   68.8595 N   0  0  0  0  0
    4.8485   21.0382   68.6128 N   0  0  0  0  0
    0.0517   22.3572   68.8008 O   0  0  0  0  0
   -4.9626   17.1180   72.8971 O   0  0  0  0  0
   -5.9239   20.5779   70.8137 O   0  0  0  0  0
   -3.1598   24.1587   68.1948 O   0  0  0  0  0
    2.7144   18.1974   67.9629 O   0  0  0  0  0
  1  2  1  0  0  0
  2  3  1  0  0  0
  4  2  1  0  0  0
  4 30  1  0  0  0
  4 23  1  0  0  0
  6  5  1  0  0  0
  6  7  1  0  0  0
  6 34  1  0  0  0
  7  8  1  0  0  0
  8  9  1  0  0  0
  9 10  1  0  0  0
 10 31  1  0  0  0
 11 12  1  0  0  0
 12 32  1  0  0  0
 13 41  1  0  0  0
 14 41  1  0  0  0
 15 14  1  0  0  0
 15 16  1  0  0  0
 15 33  1  0  0  0
 16 17  1  0  0  0
 18 19  1  0  0  0
 20 21  1  0  0  0
 22 17  1  0  0  0
 24 25  1  0  0  0
 25 38  1  0  0  0
 27 28  1  0  0  0
 29 37  1  0  0  0
 29 36  1  0  0  0
 30  5  1  0  0  0
 31 11  1  0  0  0
 33 23  1  0  0  0
 34 24  1  0  0  0
 36 35  1  0  0  0
 36 26  1  0  0  0
  5 39  2  0  0  0
 11 40  2  0  0  0
 12 13  2  0  0  0
 14 32  2  0  0  0
 17 18  2  0  0  0
 19 20  2  0  0  0
 21 22  2  0  0  0
 23 42  2  0  0  0
 24 43  2  0  0  0
 25 35  2  0  0  0
 26 27  2  0  0  0
 28 37  2  0  0  0
 29 38  2  0  0  0
M  END
> <rmsd>
0.765830576

$$$$
Molport-047-085-576 2037977888 MCULE-2943982273 PubChem-156000936


 30 33  0  0  0  0  0  0  0  0999 V2000
    3.0544   21.6869   69.7399 N   0  0  0  0  0
    4.3790   21.2081   71.5127 N   0  0  0  0  0
    6.9954   21.4786   68.9760 N   0  0  0  0  0
    4.8166   21.8542   68.0947 N   0  0  0  0  0
    7.3582   20.9763   71.3200 N   0  0  0  0  0
   -3.3327   21.9435   68.6817 N   0  0  0  0  0
   -5.2573   21.4998   66.5334 N   0  0  0  0  0
   -6.0735   21.6071   65.4974 N   0  0  0  0  0
    3.1051   21.4104   71.0701 C   0  0  0  0  0
    5.1193   21.3677   70.3997 C   0  0  0  0  0
    6.4931   21.2748   70.2300 C   0  0  0  0  0
    6.1701   21.7652   67.9171 C   0  0  0  0  0
    4.3289   21.6517   69.3428 C   0  0  0  0  0
    1.8775   21.9401   68.9168 C   0  0  0  0  0
    1.1097   23.1660   69.4386 C   0  0  0  0  0
   -0.9511   22.3267   69.1189 C   0  0  0  0  0
   -0.4585   21.0271   68.4522 C   0  0  0  0  0
    0.9832   20.6936   68.8661 C   0  0  0  0  0
   -2.3316   22.1232   69.7254 C   0  0  0  0  0
   -3.7148   22.9879   67.7822 C   0  0  0  0  0
   -4.6903   22.7056   66.7189 C   0  0  0  0  0
   -6.0506   22.8532   64.9861 C   0  0  0  0  0
   -5.1698   23.5820   65.7592 C   0  0  0  0  0
   -6.8486   20.5006   64.9641 C   0  0  0  0  0
   -6.0026   19.6960   63.9962 C   0  0  0  0  0
   -0.0608   22.7748   70.1127 O   0  0  0  0  0
   -0.5510   21.1641   67.0653 O   0  0  0  0  0
    1.5370   19.7262   68.0254 O   0  0  0  0  0
   -3.2188   24.1405   67.9029 O   0  0  0  0  0
   -4.7610   25.2724   65.5281 Cl  0  0  0  0  0
  1  9  1  0  0  0
  6 20  1  0  0  0
  8  7  1  0  0  0
  8 22  1  0  0  0
 10  2  1  0  0  0
 11  3  1  0  0  0
 11  5  1  0  0  0
 12  4  1  0  0  0
 13  1  1  0  0  0
 13 10  1  0  0  0
 14  1  1  0  0  0
 14 15  1  0  0  0
 15 26  1  0  0  0
 16 26  1  0  0  0
 16 17  1  0  0  0
 16 19  1  0  0  0
 17 27  1  0  0  0
 17 18  1  0  0  0
 18 28  1  0  0  0
 18 14  1  0  0  0
 19  6  1  0  0  0
 20 21  1  0  0  0
 23 30  1  0  0  0
 23 21  1  0  0  0
 24  8  1  0  0  0
 24 25  1  0  0  0
  9  2  2  0  0  0
 10 11  2  0  0  0
 12  3  2  0  0  0
 13  4  2  0  0  0
 20 29  2  0  0  0
 21  7  2  0  0  0
 22 23  2  0  0  0
M  END
> <rmsd>
0.756065726

$$$$
Molport-047-085-576 2037977888 MCULE-2943982273 PubChem-156000936


 30 33  0  0  0  0  0  0  0  0999 V2000
    3.0579   21.6890   69.7391 N   0  0  0  0  0
    4.3830   21.2137   71.5126 N   0  0  0  0  0
    6.9983   21.4766   68.9740 N   0  0  0  0  0
    4.8195   21.8514   68.0928 N   0  0  0  0  0
    7.3620   20.9797   71.3191 N   0  0  0  0  0
   -3.3261   21.9439   68.6723 N   0  0  0  0  0
   -5.0986   23.6640   65.8301 N   0  0  0  0  0
   -5.9347   23.0794   64.9876 N   0  0  0  0  0
    3.1090   21.4156   71.0700 C   0  0  0  0  0
    5.1229   21.3702   70.3988 C   0  0  0  0  0
    6.4966   21.2762   70.2287 C   0  0  0  0  0
    6.1729   21.7610   67.9147 C   0  0  0  0  0
    4.3321   21.6521   69.3416 C   0  0  0  0  0
    1.8808   21.9407   68.9159 C   0  0  0  0  0
    1.1135   23.1681   69.4353 C   0  0  0  0  0
   -0.9472   22.3296   69.1145 C   0  0  0  0  0
   -0.4556   21.0269   68.4532 C   0  0  0  0  0
    0.9862   20.6943   68.8682 C   0  0  0  0  0
   -2.3291   22.1298   69.7185 C   0  0  0  0  0
   -3.7144   22.9859   67.7730 C   0  0  0  0  0
   -4.6688   22.7183   66.6856 C   0  0  0  0  0
   -6.0755   21.7704   65.2712 C   0  0  0  0  0
   -5.2667   21.5109   66.3590 C   0  0  0  0  0
   -6.6357   23.7841   63.9285 C   0  0  0  0  0
   -7.9036   24.4106   64.4759 C   0  0  0  0  0
   -0.0582   22.7791   70.1086 O   0  0  0  0  0
   -0.5488   21.1575   67.0658 O   0  0  0  0  0
    1.5400   19.7245   68.0301 O   0  0  0  0  0
   -3.2412   24.1464   67.9097 O   0  0  0  0  0
   -5.0697   19.9474   67.1308 Cl  0  0  0  0  0
  1  9  1  0  0  0
  6 20  1  0  0  0
  8  7  1  0  0  0
  8 22  1  0  0  0
 10  2  1  0  0  0
 11  3  1  0  0  0
 11  5  1  0  0  0
 12  4  1  0  0  0
 13  1  1  0  0  0
 13 10  1  0  0  0
 14  1  1  0  0  0
 14 15  1  0  0  0
 15 26  1  0  0  0
 16 26  1  0  0  0
 16 17  1  0  0  0
 16 19  1  0  0  0
 17 27  1  0  0  0
 17 18  1  0  0  0
 18 28  1  0  0  0
 18 14  1  0  0  0
 19  6  1  0  0  0
 20 21  1  0  0  0
 23 30  1  0  0  0
 23 21  1  0  0  0
 24  8  1  0  0  0
 24 25  1  0  0  0
  9  2  2  0  0  0
 10 11  2  0  0  0
 12  3  2  0  0  0
 13  4  2  0  0  0
 20 29  2  0  0  0
 21  7  2  0  0  0
 22 23  2  0  0  0
M  END
> <rmsd>
0.753156662

$$$$
Molport-051-556-372 MCULE-5156463623 PubChem-119058240


 37 37  0  0  0  0  0  0  0  0999 V2000
   -2.3055   19.2371   69.8896 C   0  0  0  0  0
   -0.8132   19.3629   70.1493 C   0  0  0  0  0
   -0.2660   17.9818   70.4639 C   0  0  0  0  0
   -0.1001   19.9643   68.9342 C   0  0  0  0  0
   -0.5940   21.3425   68.6278 C   0  0  0  0  0
   -1.7992   22.8843   67.0235 C   0  0  0  0  0
   -2.0443   22.9484   65.5219 C   0  0  0  0  0
   -2.3492   24.3691   65.0615 C   0  0  0  0  0
   -1.0764   25.1903   64.9174 C   0  0  0  0  0
   -0.4500   26.9694   66.5915 C   0  0  0  0  0
   -3.0765   23.0716   67.7801 C   0  0  0  0  0
   -5.4046   22.1328   68.3037 C   0  0  0  0  0
   -5.7532   23.1464   69.2096 C   0  0  0  0  0
   -6.9963   23.1266   69.8483 C   0  0  0  0  0
   -7.8982   22.0898   69.5902 C   0  0  0  0  0
   -7.5595   21.0811   68.6832 C   0  0  0  0  0
   -6.3159   21.1032   68.0445 C   0  0  0  0  0
   -9.2312   22.0806   70.2501 C   0  0  0  0  0
    2.2596   19.4155   68.2320 C   0  0  0  0  0
    3.7209   19.5185   68.4873 C   0  0  0  0  0
    4.2589   20.7980   67.8764 C   0  0  0  0  0
    6.0125   22.0864   67.5162 C   0  0  0  0  0
    6.9888   22.8575   68.3875 C   0  0  0  0  0
   -0.4743   22.2647   69.4806 O   0  0  0  0  0
   -0.7580   27.8831   65.7801 O   0  0  0  0  0
   -3.1913   24.0615   68.5509 O   0  0  0  0  0
  -10.1511   22.7722   69.4624 O   0  0  0  0  0
    1.8456   18.8371   67.1918 O   0  0  0  0  0
    5.6179   20.9149   68.1637 O   0  0  0  0  0
   -1.2034   21.6001   67.3617 N   0  0  0  0  0
   -0.5859   25.5964   66.2265 N   0  0  0  0  0
    0.0343   27.3090   67.8849 N   0  0  0  0  0
   -4.1388   22.1184   67.6311 N   0  0  0  0  0
    1.3401   20.0063   69.1507 N   0  0  0  0  0
    8.2321   22.1165   68.5176 N   0  0  0  0  0
    8.6245   21.7599   69.6282 N   0  0  0  0  0
    9.0154   21.4026   70.7389 N   0  0  0  0  0
  1  2  1  0  0  0
  2  3  1  0  0  0
  4  2  1  0  0  0
  4  5  1  0  0  0
  4 34  1  0  0  0
  5 30  1  0  0  0
  6 30  1  0  0  0
  6  7  1  0  0  0
  6 11  1  0  0  0
  7  8  1  0  0  0
  8  9  1  0  0  0
  9 31  1  0  0  0
 10 32  1  0  0  0
 11 33  1  0  0  0
 13 14  1  0  0  0
 15 16  1  0  0  0
 17 12  1  0  0  0
 18 15  1  0  0  0
 18 27  1  0  0  0
 20 19  1  0  0  0
 20 21  1  0  0  0
 21 29  1  0  0  0
 22 29  1  0  0  0
 22 23  1  0  0  0
 23 35  1  0  0  0
 31 10  1  0  0  0
 33 12  1  0  0  0
 34 19  1  0  0  0
  5 24  2  0  0  0
 10 25  2  0  0  0
 11 26  2  0  0  0
 12 13  2  0  0  0
 14 15  2  0  0  0
 16 17  2  0  0  0
 19 28  2  0  0  0
 35 36  2  0  0  0
 36 37  2  0  0  0
M  CHG  2  36   1  37  -1
M  END
> <rmsd>
0.718763113

$$$$
MolPort-042-624-489 161842278 CHEMBL3634699 CSSS00159262641 MCULE-5360559140 MCULE-9003502352 PubChem-503733 ZINC000161842278


 42 46  0  0  0  0  0  0  0  0999 V2000
    2.2646   23.5384   74.9662 C   0  0  0  0  0
    3.0567   22.9624   72.6944 C   0  0  0  0  0
    2.7369   22.7057   71.3628 C   0  0  0  0  0
    3.7292   22.4018   70.4154 C   0  0  0  0  0
    2.0425   22.1616   68.5654 C   0  0  0  0  0
    0.3190   23.4543   67.9387 C   0  0  0  0  0
   -0.2877   24.8471   67.9911 C   0  0  0  0  0
   -2.4205   25.2689   67.5785 C   0  0  0  0  0
   -4.3629   24.3768   68.2223 C   0  0  0  0  0
   -5.2418   23.1412   68.2152 C   0  0  0  0  0
   -5.2118   25.6219   67.9203 C   0  0  0  0  0
   -4.5115   26.6008   66.9639 C   0  0  0  0  0
   -2.9831   26.6235   67.1246 C   0  0  0  0  0
   -0.7476   22.3970   68.2897 C   0  0  0  0  0
   -0.2561   21.3679   69.3173 C   0  0  0  0  0
    1.2198   20.9936   69.1298 C   0  0  0  0  0
    5.0878   22.3536   70.8222 C   0  0  0  0  0
    6.1423   22.0604   69.9207 C   0  0  0  0  0
    7.4824   22.0306   70.3801 C   0  0  0  0  0
    8.5819   21.7475   69.5388 C   0  0  0  0  0
    9.8702   21.7420   70.0687 C   0  0  0  0  0
   10.0497   22.0165   71.4225 C   0  0  0  0  0
   11.4190   22.0158   71.9997 C   0  0  0  0  0
    7.7574   22.2963   71.7428 C   0  0  0  0  0
    6.7201   22.5821   72.6243 C   0  0  0  0  0
    5.4011   22.6129   72.1819 C   0  0  0  0  0
    4.3945   22.9143   73.0983 C   0  0  0  0  0
    2.0290   23.2687   73.5906 O   0  0  0  0  0
    3.3760   22.1537   69.0779 O   0  0  0  0  0
    1.4186   23.3963   68.8124 O   0  0  0  0  0
   -1.2002   25.0209   66.9472 O   0  0  0  0  0
   -3.3217   24.2317   67.2909 O   0  0  0  0  0
   -4.5155   22.0388   68.6656 O   0  0  0  0  0
   -5.5209   26.2720   69.1151 O   0  0  0  0  0
   -4.8325   26.2730   65.6456 O   0  0  0  0  0
   -2.6184   27.6093   68.0405 O   0  0  0  0  0
   -1.1529   21.7437   67.1263 O   0  0  0  0  0
   -0.4487   21.8704   70.6045 O   0  0  0  0  0
    1.3252   19.8959   68.2766 O   0  0  0  0  0
    5.8662   21.8045   68.5795 O   0  0  0  0  0
    8.4310   21.4973   68.3135 O   0  0  0  0  0
    9.0059   22.2787   72.2001 O   0  0  0  0  0
  1 28  1  0  0  0
  2 28  1  0  0  0
  3  4  1  0  0  0
  4 29  1  0  0  0
  5 29  1  0  0  0
  5 30  1  0  0  0
  6 30  1  0  0  0
  6  7  1  0  0  0
  6 14  1  0  0  0
  7 31  1  0  0  0
  8 31  1  0  0  0
  8 32  1  0  0  0
  9 32  1  0  0  0
  9 10  1  0  0  0
  9 11  1  0  0  0
 10 33  1  0  0  0
 11 34  1  0  0  0
 11 12  1  0  0  0
 12 35  1  0  0  0
 12 13  1  0  0  0
 13 36  1  0  0  0
 13  8  1  0  0  0
 14 37  1  0  0  0
 14 15  1  0  0  0
 15 38  1  0  0  0
 15 16  1  0  0  0
 16 39  1  0  0  0
 16  5  1  0  0  0
 17 18  1  0  0  0
 18 40  1  0  0  0
 19 20  1  0  0  0
 20 21  1  0  0  0
 22 42  1  0  0  0
 23 22  1  0  0  0
 24 42  1  0  0  0
 24 19  1  0  0  0
 25 26  1  0  0  0
 26 17  1  0  0  0
 27  2  1  0  0  0
  2  3  2  0  0  0
  4 17  2  0  0  0
 18 19  2  0  0  0
 20 41  2  0  0  0
 21 22  2  0  0  0
 24 25  2  0  0  0
 26 27  2  0  0  0
M  END
> <rmsd>
0.795499265

$$$$
MolPort-051-708-916 MCULE-9319680506


 42 45  0  0  0  0  0  0  0  0999 V2000
    8.6266   20.1526   69.8391 C   0  0  0  0  0
    6.6802   21.0770   68.6473 C   0  0  0  0  0
    4.5143   20.1749   68.9613 C   0  0  0  0  0
    3.9819   21.1019   68.0620 C   0  0  0  0  0
    4.8571   22.0159   67.4687 C   0  0  0  0  0
    2.5431   21.1160   67.7504 C   0  0  0  0  0
    0.2304   20.1539   68.1333 C   0  0  0  0  0
   -0.3579   18.8371   68.6307 C   0  0  0  0  0
   -1.8401   18.7052   68.2879 C   0  0  0  0  0
   -2.0642   18.2330   66.8584 C   0  0  0  0  0
   -1.7857   19.3471   65.8645 C   0  0  0  0  0
   -3.7098   19.3505   64.1775 C   0  0  0  0  0
   -4.6181   20.1523   65.0244 C   0  0  0  0  0
   -5.8522   20.6345   64.6302 C   0  0  0  0  0
   -5.4432   21.2549   66.6194 C   0  0  0  0  0
   -5.6446   21.9016   67.9589 C   0  0  0  0  0
   -6.4380   20.9827   68.8790 C   0  0  0  0  0
   -7.8825   20.9516   68.5051 C   0  0  0  0  0
   -8.3940   19.8647   67.7871 C   0  0  0  0  0
   -9.7435   19.8388   67.4227 C   0  0  0  0  0
  -10.5832   20.9001   67.7747 C   0  0  0  0  0
  -10.0735   21.9876   68.4907 C   0  0  0  0  0
   -8.7239   22.0142   68.8552 C   0  0  0  0  0
   -3.4611   23.1905   68.0788 C   0  0  0  0  0
   -2.0687   23.2378   68.6276 C   0  0  0  0  0
   -0.4242   21.3227   68.8017 C   0  0  0  0  0
   -1.3965   24.6097   68.4777 C   0  0  0  0  0
   -0.2276   24.7362   69.4347 C   0  0  0  0  0
   -0.9247   24.8783   67.0563 C   0  0  0  0  0
    8.0461   21.0775   68.9319 O   0  0  0  0  0
    2.0823   21.9614   66.9350 O   0  0  0  0  0
   -4.1127   18.9662   63.0480 O   0  0  0  0  0
   -6.3258   21.3109   65.6498 O   0  0  0  0  0
   -3.8143   23.9516   67.1366 O   0  0  0  0  0
   -0.2611   21.5264   70.0358 O   0  0  0  0  0
    5.8442   20.1779   69.2367 N   0  0  0  0  0
    6.1813   21.9870   67.7699 N   0  0  0  0  0
    1.6669   20.1694   68.3716 N   0  0  0  0  0
   -2.3730   19.0173   64.5757 N   0  0  0  0  0
   -4.3534   20.5365   66.2871 N   0  0  0  0  0
   -4.3603   22.1991   68.5797 N   0  0  0  0  0
   -1.2739   22.1714   68.0312 N   0  0  0  0  0
  1 30  1  0  0  0
  2 30  1  0  0  0
  2 37  1  0  0  0
  3 36  1  0  0  0
  4  5  1  0  0  0
  4  6  1  0  0  0
  6 38  1  0  0  0
  7 38  1  0  0  0
  7  8  1  0  0  0
  7 26  1  0  0  0
  8  9  1  0  0  0
  9 10  1  0  0  0
 10 11  1  0  0  0
 11 39  1  0  0  0
 12 13  1  0  0  0
 13 40  1  0  0  0
 14 33  1  0  0  0
 15 33  1  0  0  0
 16 15  1  0  0  0
 16 17  1  0  0  0
 16 41  1  0  0  0
 17 18  1  0  0  0
 19 20  1  0  0  0
 21 22  1  0  0  0
 23 18  1  0  0  0
 25 24  1  0  0  0
 25 42  1  0  0  0
 25 27  1  0  0  0
 27 28  1  0  0  0
 27 29  1  0  0  0
 39 12  1  0  0  0
 41 24  1  0  0  0
 42 26  1  0  0  0
  2 36  2  0  0  0
  3  4  2  0  0  0
  5 37  2  0  0  0
  6 31  2  0  0  0
 12 32  2  0  0  0
 13 14  2  0  0  0
 15 40  2  0  0  0
 18 19  2  0  0  0
 20 21  2  0  0  0
 22 23  2  0  0  0
 24 34  2  0  0  0
 26 35  2  0  0  0
M  END
> <rmsd>
0.695022523

$$$$
MolPort-006-148-001 MCULE-6707470002 NSC170180 PubChem-155885920 PubChem-155886241 PubChem-158465036 PubChem-22146590 PubChem-72498922 PubChem-78381838 PubChem-871


 34 36  0  0  0  0  0  0  0  0999 V2000
    8.9427   23.1054   69.0669 C   0  0  0  0  0
    8.1142   21.8454   69.2424 C   0  0  0  0  0
    8.9361   20.6032   68.8493 C   0  0  0  0  0
    8.1034   19.5794   68.0673 C   0  0  0  0  0
    6.6552   19.5156   68.5821 C   0  0  0  0  0
    6.0940   20.9175   68.9265 C   0  0  0  0  0
    4.0009   21.3597   69.5250 C   0  0  0  0  0
    3.3205   22.7523   69.4658 C   0  0  0  0  0
    1.3798   22.0986   70.3918 C   0  0  0  0  0
    1.8337   20.6455   70.6528 C   0  0  0  0  0
    2.9757   20.2259   69.7216 C   0  0  0  0  0
   -0.5770   21.6067   69.2970 C   0  0  0  0  0
   -1.7983   20.7624   69.6982 C   0  0  0  0  0
   -3.3293   22.4323   69.2960 C   0  0  0  0  0
   -2.2610   23.3989   68.7603 C   0  0  0  0  0
   -1.0130   22.6539   68.2698 C   0  0  0  0  0
   -1.4171   19.6406   70.6491 C   0  0  0  0  0
    3.9752   23.7480   68.5120 C   0  0  0  0  0
    6.9435   21.9418   68.4704 O   0  0  0  0  0
    4.8079   21.1036   68.4087 O   0  0  0  0  0
    1.9405   22.6505   69.2200 O   0  0  0  0  0
    2.4414   19.8319   68.4919 O   0  0  0  0  0
    2.2337   20.5151   71.9823 O   0  0  0  0  0
   -0.0244   22.2440   70.4262 O   0  0  0  0  0
   -2.7986   21.5685   70.2836 O   0  0  0  0  0
   -1.2545   22.0364   67.0396 O   0  0  0  0  0
   -2.7851   24.2143   67.7551 O   0  0  0  0  0
   -3.9454   21.7101   68.2659 O   0  0  0  0  0
   -0.6741   18.6746   69.9703 O   0  0  0  0  0
    3.7011   23.4108   67.1850 O   0  0  0  0  0
    5.8396   18.8280   67.6777 O   0  0  0  0  0
    8.1235   19.9129   66.7105 O   0  0  0  0  0
    9.4557   20.0070   69.9982 O   0  0  0  0  0
    9.9531   23.1510   70.0278 O   0  0  0  0  0
  1 34  1  0  0  0
  2  1  1  0  0  0
  2  3  1  0  0  0
  2 19  1  0  0  0
  3  4  1  0  0  0
  3 33  1  0  0  0
  4  5  1  0  0  0
  4 32  1  0  0  0
  5  6  1  0  0  0
  5 31  1  0  0  0
  6 19  1  0  0  0
  6 20  1  0  0  0
  7 20  1  0  0  0
  7  8  1  0  0  0
  8 21  1  0  0  0
  8 18  1  0  0  0
  9 21  1  0  0  0
  9 10  1  0  0  0
  9 24  1  0  0  0
 10 11  1  0  0  0
 10 23  1  0  0  0
 11 22  1  0  0  0
 11  7  1  0  0  0
 12 24  1  0  0  0
 12 13  1  0  0  0
 13 25  1  0  0  0
 13 17  1  0  0  0
 14 25  1  0  0  0
 14 15  1  0  0  0
 14 28  1  0  0  0
 15 16  1  0  0  0
 15 27  1  0  0  0
 16 26  1  0  0  0
 16 12  1  0  0  0
 17 29  1  0  0  0
 18 30  1  0  0  0
M  END
> <rmsd>
0.76592958

$$$$
MolPort-045-913-670 CSSS00106257266 MCULE-2774073743 PubChem-131937453


 27 29  0  0  0  0  0  0  0  0999 V2000
   -0.0983   22.6058   69.1271 O   0  0  0  0  0
   -3.5242   23.9398   68.5606 O   0  0  0  0  0
    7.8236   20.8345   68.6782 O   0  0  0  0  0
    0.2835   21.6322   68.4216 C   0  0  0  0  0
   -1.8997   21.6231   67.1437 C   0  0  0  0  0
   -2.8555   21.1817   68.2398 C   0  0  0  0  0
   -4.4410   23.1604   68.1810 C   0  0  0  0  0
   -5.7888   23.6875   67.9067 C   0  0  0  0  0
   -6.0687   25.0518   68.0599 C   0  0  0  0  0
   -8.3227   24.7118   67.3955 C   0  0  0  0  0
   -8.0901   23.3454   67.2290 C   0  0  0  0  0
   -6.8169   22.8351   67.4866 C   0  0  0  0  0
    2.5093   21.5493   69.6297 C   0  0  0  0  0
    3.6196   20.5239   69.8655 C   0  0  0  0  0
    4.5653   20.4705   68.6654 C   0  0  0  0  0
    6.0374   21.6633   67.2855 C   0  0  0  0  0
    7.4970   21.7949   67.7081 C   0  0  0  0  0
    7.7842   23.1733   68.2633 C   0  0  0  0  0
    8.6467   22.9073   69.4593 C   0  0  0  0  0
    8.8552   21.4117   69.4321 C   0  0  0  0  0
    4.0760   22.6994   68.0321 C   0  0  0  0  0
    3.1000   22.8942   69.1924 C   0  0  0  0  0
   -0.5667   21.1008   67.4038 N   0  0  0  0  0
   -4.1722   21.7629   68.0225 N   0  0  0  0  0
   -7.3161   25.5301   67.8040 N   0  0  0  0  0
    1.5708   21.0496   68.6318 N   0  0  0  0  0
    5.1480   21.7904   68.4308 N   0  0  0  0  0
  4 23  1  0  0  0
  4 26  1  0  0  0
  5 23  1  0  0  0
  5  6  1  0  0  0
  6 24  1  0  0  0
  7  8  1  0  0  0
  9 25  1  0  0  0
 10 11  1  0  0  0
 12  8  1  0  0  0
 13 26  1  0  0  0
 13 14  1  0  0  0
 14 15  1  0  0  0
 15 27  1  0  0  0
 16 27  1  0  0  0
 16 17  1  0  0  0
 17 18  1  0  0  0
 17  3  1  0  0  0
 18 19  1  0  0  0
 19 20  1  0  0  0
 20  3  1  0  0  0
 21 27  1  0  0  0
 21 22  1  0  0  0
 22 13  1  0  0  0
 24  7  1  0  0  0
  4  1  2  0  0  0
  7  2  2  0  0  0
  8  9  2  0  0  0
 10 25  2  0  0  0
 11 12  2  0  0  0
M  END
> <rmsd>
0.750463009

$$$$
MolPort-006-069-342 13541011 CSSS00016990776 LN01742400 MCULE-1938032820 MCULE-6582658102 PubChem-20056559 ZINC000013541011 ZINC13541011


 23 23  0  0  0  0  0  0  0  0999 V2000
   -2.7929   24.9557   70.8684 C   0  0  0  0  0
   -2.1763   24.1640   69.7289 C   0  0  0  0  0
   -3.2366   23.8546   68.6556 C   0  0  0  0  0
   -3.1471   22.4123   68.1356 C   0  0  0  0  0
   -1.7060   21.8857   68.0738 C   0  0  0  0  0
   -0.8207   22.4673   69.1864 C   0  0  0  0  0
    1.3094   22.0236   69.5737 C   0  0  0  0  0
    2.3512   20.9690   69.9082 C   0  0  0  0  0
    3.7434   21.5909   70.0069 C   0  0  0  0  0
    4.2401   22.1598   68.6674 C   0  0  0  0  0
    5.2745   23.2793   68.8297 C   0  0  0  0  0
    6.5272   22.8362   69.5231 C   0  0  0  0  0
   -1.6018   22.9851   70.2334 O   0  0  0  0  0
    0.0294   21.4763   69.6777 O   0  0  0  0  0
    7.2576   22.0006   69.0155 O   0  0  0  0  0
    4.7107   24.3515   69.5215 O   0  0  0  0  0
    4.7234   21.1511   67.8291 O   0  0  0  0  0
    4.6473   20.6600   70.5249 O   0  0  0  0  0
    2.3260   19.9450   68.9574 O   0  0  0  0  0
   -1.1464   22.1848   66.8322 O   0  0  0  0  0
   -3.9104   21.5775   68.9523 O   0  0  0  0  0
   -3.0959   24.7468   67.5928 O   0  0  0  0  0
   -3.1124   26.2437   70.4376 O   0  0  0  0  0
  1 23  1  0  0  0
  2  1  1  0  0  0
  2  3  1  0  0  0
  2 13  1  0  0  0
  3  4  1  0  0  0
  3 22  1  0  0  0
  4  5  1  0  0  0
  4 21  1  0  0  0
  5  6  1  0  0  0
  5 20  1  0  0  0
  6 13  1  0  0  0
  6 14  1  0  0  0
  7 14  1  0  0  0
  8  7  1  0  0  0
  8  9  1  0  0  0
  8 19  1  0  0  0
  9 10  1  0  0  0
  9 18  1  0  0  0
 10 11  1  0  0  0
 10 17  1  0  0  0
 11 12  1  0  0  0
 11 16  1  0  0  0
 12 15  2  0  0  0
M  END
> <rmsd>
0.792960823

$$$$
MolPort-046-570-348 1704324408 CSSS00161200330 MCULE-7059269325 PubChem-135118095 ZINC001704324408


 47 50  0  0  0  0  0  0  0  0999 V2000
    0.0863   24.2983   67.2228 C   0  0  0  0  0
   -0.9428   23.7723   66.2370 C   0  0  0  0  0
   -0.2616   23.3909   64.9371 C   0  0  0  0  0
   -1.7459   22.5878   66.7929 C   0  0  0  0  0
   -0.2234   21.2547   68.4073 C   0  0  0  0  0
    0.6117   20.0278   68.6421 C   0  0  0  0  0
    2.7934   20.3449   69.8661 C   0  0  0  0  0
    4.2067   20.7369   69.8349 C   0  0  0  0  0
    5.0615   20.7374   70.9351 C   0  0  0  0  0
    7.4174   21.3450   71.1082 C   0  0  0  0  0
    8.5082   21.8018   70.3563 C   0  0  0  0  0
    8.3290   22.0429   68.9802 C   0  0  0  0  0
    6.0858   21.3940   69.1545 C   0  0  0  0  0
    0.3962   18.9368   67.5965 C   0  0  0  0  0
   -0.9949   18.3379   67.7034 C   0  0  0  0  0
   -1.2207   17.3825   66.5503 C   0  0  0  0  0
   -3.2849   15.9356   66.3896 C   0  0  0  0  0
   -4.7360   15.8211   66.0585 C   0  0  0  0  0
   -5.6490   14.3988   67.9046 C   0  0  0  0  0
   -6.1672   16.8505   67.8635 C   0  0  0  0  0
   -6.1497   18.1815   67.1662 C   0  0  0  0  0
   -7.5482   18.6685   66.7662 C   0  0  0  0  0
   -8.4447   18.9846   67.9237 C   0  0  0  0  0
   -8.2098   20.1084   68.7264 C   0  0  0  0  0
   -9.0700   20.4047   69.7878 C   0  0  0  0  0
  -10.1715   19.5831   70.0451 C   0  0  0  0  0
  -10.4150   18.4678   69.2383 C   0  0  0  0  0
   -9.5551   18.1717   68.1763 C   0  0  0  0  0
   -4.3004   19.8639   67.4733 C   0  0  0  0  0
   -3.3580   20.5471   68.4098 C   0  0  0  0  0
   -3.3917   19.9567   69.8088 C   0  0  0  0  0
   -2.7737   22.9578   67.8447 C   0  0  0  0  0
   -0.8940   21.4508   67.1544 N   0  0  0  0  0
    2.0180   20.3958   68.6674 N   0  0  0  0  0
    6.2421   21.1597   70.4628 N   0  0  0  0  0
    7.1151   21.8360   68.3906 N   0  0  0  0  0
    4.8422   21.1490   68.7089 N   0  0  0  0  0
   -2.6472   17.2106   66.3286 N   0  0  0  0  0
   -5.5327   15.7050   67.2739 N   0  0  0  0  0
   -5.4425   19.1653   67.9717 N   0  0  0  0  0
   -3.6126   21.9765   68.4658 N   0  0  0  0  0
   -0.3307   22.1070   69.3288 O   0  0  0  0  0
    2.2682   19.9627   70.9472 O   0  0  0  0  0
   -2.6339   14.9081   66.7191 O   0  0  0  0  0
   -6.7298   16.7464   68.9880 O   0  0  0  0  0
   -4.0732   19.9048   66.2348 O   0  0  0  0  0
   -2.9533   24.1695   68.1387 O   0  0  0  0  0
  1  2  1  0  0  0
  2  3  1  0  0  0
  4  2  1  0  0  0
  4 33  1  0  0  0
  4 32  1  0  0  0
  6  5  1  0  0  0
  6 34  1  0  0  0
  6 14  1  0  0  0
  7  8  1  0  0  0
  8 37  1  0  0  0
  9 35  1  0  0  0
 11 12  1  0  0  0
 13 36  1  0  0  0
 13 35  1  0  0  0
 14 15  1  0  0  0
 15 16  1  0  0  0
 16 38  1  0  0  0
 18 17  1  0  0  0
 18 39  1  0  0  0
 19 39  1  0  0  0
 21 20  1  0  0  0
 21 22  1  0  0  0
 21 40  1  0  0  0
 22 23  1  0  0  0
 24 25  1  0  0  0
 26 27  1  0  0  0
 28 23  1  0  0  0
 30 29  1  0  0  0
 30 31  1  0  0  0
 30 41  1  0  0  0
 33  5  1  0  0  0
 34  7  1  0  0  0
 35 10  1  0  0  0
 38 17  1  0  0  0
 39 20  1  0  0  0
 40 29  1  0  0  0
 41 32  1  0  0  0
  5 42  2  0  0  0
  7 43  2  0  0  0
  8  9  2  0  0  0
 10 11  2  0  0  0
 12 36  2  0  0  0
 13 37  2  0  0  0
 17 44  2  0  0  0
 20 45  2  0  0  0
 23 24  2  0  0  0
 25 26  2  0  0  0
 27 28  2  0  0  0
 29 46  2  0  0  0
 32 47  2  0  0  0
M  END
> <rmsd>
0.635855436

$$$$
MolPort-046-176-952 CSSS00159963192 MCULE-9134527534 PubChem-132409051


 28 31  0  0  0  0  0  0  0  0999 V2000
   -2.0999   16.8065   67.1632 C   0  0  0  0  0
   -1.8346   18.2388   67.4843 C   0  0  0  0  0
   -2.8645   19.1707   67.2696 C   0  0  0  0  0
   -2.6070   20.5035   67.5655 C   0  0  0  0  0
   -1.4048   20.9209   68.0549 C   0  0  0  0  0
   -0.3535   20.0257   68.2994 C   0  0  0  0  0
   -0.5728   18.6626   67.9858 C   0  0  0  0  0
    0.5252   17.6690   68.1999 C   0  0  0  0  0
    1.1580   21.5119   69.7247 C   0  0  0  0  0
    2.5343   22.0552   69.9176 C   0  0  0  0  0
    3.0860   22.6128   68.5988 C   0  0  0  0  0
    4.3521   21.8767   68.4289 C   0  0  0  0  0
    3.4886   20.9498   70.3997 C   0  0  0  0  0
    5.6931   19.9989   69.5152 C   0  0  0  0  0
    6.9733   20.6909   69.8378 C   0  0  0  0  0
    7.2931   20.9868   71.1660 C   0  0  0  0  0
    8.4856   21.6558   71.4473 C   0  0  0  0  0
    9.3389   22.0240   70.4055 C   0  0  0  0  0
    8.9818   21.7160   69.0907 C   0  0  0  0  0
   -2.6585   22.5878   67.7848 C   0  0  0  0  0
    0.9285   20.4579   68.7807 N   0  0  0  0  0
    4.5981   20.9568   69.4715 N   0  0  0  0  0
    7.8156   21.0636   68.8358 N   0  0  0  0  0
   -1.4086   22.2567   68.1934 N   0  0  0  0  0
   -3.4310   21.5465   67.3875 N   0  0  0  0  0
    0.2194   21.9490   70.4418 O   0  0  0  0  0
    5.1279   22.0354   67.4500 O   0  0  0  0  0
   -3.0702   23.7769   67.7704 O   0  0  0  0  0
  1  2  1  0  0  0
  3  4  1  0  0  0
  5  6  1  0  0  0
  5 24  1  0  0  0
  6 21  1  0  0  0
  7  2  1  0  0  0
  8  7  1  0  0  0
 10  9  1  0  0  0
 10 11  1  0  0  0
 11 12  1  0  0  0
 12 22  1  0  0  0
 13 22  1  0  0  0
 13 10  1  0  0  0
 14 22  1  0  0  0
 14 15  1  0  0  0
 15 23  1  0  0  0
 16 17  1  0  0  0
 18 19  1  0  0  0
 20 25  1  0  0  0
 21  9  1  0  0  0
 24 20  1  0  0  0
 25  4  1  0  0  0
  2  3  2  0  0  0
  4  5  2  0  0  0
  6  7  2  0  0  0
  9 26  2  0  0  0
 12 27  2  0  0  0
 15 16  2  0  0  0
 17 18  2  0  0  0
 19 23  2  0  0  0
 20 28  2  0  0  0
M  END
> <rmsd>
0.825379968

$$$$
MolPort-046-836-348 1800430771 CSSS00160603485 MCULE-9587440684 PubChem-139599186


 47 51  0  0  0  0  0  0  0  0999 V2000
   -1.8074   22.7361   65.5198 C   0  0  0  0  0
   -1.5385   22.7781   67.0111 C   0  0  0  0  0
   -0.1319   21.4625   68.6580 C   0  0  0  0  0
    0.7161   20.2590   68.9110 C   0  0  0  0  0
    0.3738   19.5757   70.2296 C   0  0  0  0  0
   -0.9139   18.8243   70.1437 C   0  0  0  0  0
   -1.0675   17.7790   69.2245 C   0  0  0  0  0
   -2.2651   17.0605   69.1731 C   0  0  0  0  0
   -3.3129   17.3696   70.0462 C   0  0  0  0  0
   -5.5934   16.7780   70.8673 C   0  0  0  0  0
   -6.2699   18.1267   70.6837 C   0  0  0  0  0
   -7.3171   19.4875   68.8294 C   0  0  0  0  0
   -7.4779   20.6843   69.7214 C   0  0  0  0  0
   -8.6935   20.6298   70.6160 C   0  0  0  0  0
   -8.6160   21.6521   69.4881 C   0  0  0  0  0
   -5.1620   21.7518   69.7205 C   0  0  0  0  0
   -5.1488   21.8737   68.2227 C   0  0  0  0  0
   -5.9077   23.1159   67.7621 C   0  0  0  0  0
   -6.1233   23.1049   66.2855 C   0  0  0  0  0
   -5.5286   24.0923   65.4928 C   0  0  0  0  0
   -5.7247   24.0930   64.1087 C   0  0  0  0  0
   -6.5189   23.1078   63.5154 C   0  0  0  0  0
   -7.1193   22.1222   64.3054 C   0  0  0  0  0
   -6.9233   22.1213   65.6896 C   0  0  0  0  0
   -2.8287   22.8790   67.7551 C   0  0  0  0  0
   -3.1521   18.4139   70.9725 C   0  0  0  0  0
   -1.9577   19.1385   71.0189 C   0  0  0  0  0
    2.9976   20.2424   67.8413 C   0  0  0  0  0
    4.4138   20.6376   67.8814 C   0  0  0  0  0
    6.1928   21.7345   68.9948 C   0  0  0  0  0
    6.6846   22.5212   70.1560 C   0  0  0  0  0
    6.6168   20.6706   66.9294 C   0  0  0  0  0
    7.5671   20.3034   65.8482 C   0  0  0  0  0
    5.2828   20.2760   66.8476 C   0  0  0  0  0
   -0.8063   21.5828   67.4045 N   0  0  0  0  0
   -6.7342   18.2761   69.3133 N   0  0  0  0  0
   -6.3062   21.2254   70.3997 N   0  0  0  0  0
   -3.7957   21.8228   67.6647 N   0  0  0  0  0
    2.1211   20.6330   68.9007 N   0  0  0  0  0
    4.8885   21.3593   68.9328 N   0  0  0  0  0
    7.0480   21.3901   67.9974 N   0  0  0  0  0
   -0.2075   22.3819   69.5188 O   0  0  0  0  0
   -4.4961   16.6245   69.9689 O   0  0  0  0  0
   -7.6864   19.5528   67.6273 O   0  0  0  0  0
   -4.1810   22.1517   70.4015 O   0  0  0  0  0
   -3.0649   23.9111   68.4373 O   0  0  0  0  0
    2.5563   19.5611   66.8756 O   0  0  0  0  0
  2  1  1  0  0  0
  2 35  1  0  0  0
  2 25  1  0  0  0
  4  3  1  0  0  0
  4  5  1  0  0  0
  4 39  1  0  0  0
  5  6  1  0  0  0
  7  8  1  0  0  0
  9 43  1  0  0  0
  9 26  1  0  0  0
 10 43  1  0  0  0
 10 11  1  0  0  0
 11 36  1  0  0  0
 13 12  1  0  0  0
 13 14  1  0  0  0
 13 37  1  0  0  0
 14 15  1  0  0  0
 15 13  1  0  0  0
 17 16  1  0  0  0
 17 18  1  0  0  0
 17 38  1  0  0  0
 18 19  1  0  0  0
 20 21  1  0  0  0
 22 23  1  0  0  0
 24 19  1  0  0  0
 27  6  1  0  0  0
 28 29  1  0  0  0
 30 40  1  0  0  0
 31 30  1  0  0  0
 32 41  1  0  0  0
 33 32  1  0  0  0
 34 29  1  0  0  0
 35  3  1  0  0  0
 36 12  1  0  0  0
 37 16  1  0  0  0
 38 25  1  0  0  0
 39 28  1  0  0  0
  3 42  2  0  0  0
  6  7  2  0  0  0
  8  9  2  0  0  0
 12 44  2  0  0  0
 16 45  2  0  0  0
 19 20  2  0  0  0
 21 22  2  0  0  0
 23 24  2  0  0  0
 25 46  2  0  0  0
 26 27  2  0  0  0
 28 47  2  0  0  0
 29 40  2  0  0  0
 30 41  2  0  0  0
 32 34  2  0  0  0
M  END
> <rmsd>
0.717497587

$$$$
MolPort-046-788-296 MolPort-047-806-502 238791240 CSSS03496583207 MCULE-2495589227 MCULE-7173015988 MCULE-8560788457 MCULE-9966890064 PubChem-100913401 PubChem-155977572


 39 38  0  0  0  0  0  0  0  0999 V2000
    3.7545   19.8569   62.9746 C   0  0  0  0  0
    4.7669   18.9558   63.6612 C   0  0  0  0  0
    6.1446   19.1206   63.0293 C   0  0  0  0  0
    6.1705   18.3958   61.6897 C   0  0  0  0  0
    7.2357   18.5663   63.9537 C   0  0  0  0  0
    8.6015   18.8040   63.3936 C   0  0  0  0  0
    6.9641   18.4021   66.4567 C   0  0  0  0  0
    6.8121   19.0979   67.7677 C   0  0  0  0  0
    7.8343   18.5834   68.7737 C   0  0  0  0  0
    7.9091   19.4888   69.9974 C   0  0  0  0  0
    8.6998   20.7228   69.7108 C   0  0  0  0  0
    4.5750   20.0003   68.4968 C   0  0  0  0  0
    3.1858   19.7300   68.9794 C   0  0  0  0  0
    3.0803   19.8462   70.4947 C   0  0  0  0  0
    1.3108   20.1429   67.3423 C   0  0  0  0  0
    0.3306   21.0904   66.7400 C   0  0  0  0  0
   -1.3314   21.2615   68.6490 C   0  0  0  0  0
   -2.7157   21.0316   69.1495 C   0  0  0  0  0
   -3.5263   23.3935   69.5822 C   0  0  0  0  0
   -4.3939   24.5477   69.1909 C   0  0  0  0  0
   -5.8582   24.3245   69.5849 C   0  0  0  0  0
   -6.6321   25.6261   69.5069 C   0  0  0  0  0
   -6.5411   23.2695   68.7291 C   0  0  0  0  0
    9.3418   17.8252   63.1185 O   0  0  0  0  0
    9.0551   20.0992   63.1725 O   0  0  0  0  0
    6.8964   17.1436   66.3913 O   0  0  0  0  0
    8.2742   21.5773   68.8906 O   0  0  0  0  0
    9.9026   20.9389   70.3713 O   0  0  0  0  0
    4.9702   21.1859   68.3237 O   0  0  0  0  0
    3.3331   21.1551   70.9125 O   0  0  0  0  0
    1.3107   18.9332   66.9901 O   0  0  0  0  0
   -0.4779   21.8079   69.3990 O   0  0  0  0  0
   -2.7800   23.5006   70.5919 O   0  0  0  0  0
    7.1481   19.1795   65.2732 N   0  0  0  0  0
    5.4606   18.9031   68.2726 N   0  0  0  0  0
    2.2289   20.6134   68.3284 N   0  0  0  0  0
   -0.9936   20.8850   67.3123 N   0  0  0  0  0
   -3.5621   22.1742   68.8328 N   0  0  0  0  0
   -4.2558   24.8376   67.7696 N   0  0  0  0  0
  1  2  1  0  0  0
  3  2  1  0  0  0
  3  4  1  0  0  0
  3  5  1  0  0  0
  5  6  1  0  0  0
  5 34  1  0  0  0
  6 25  1  0  0  0
  8  7  1  0  0  0
  8  9  1  0  0  0
  8 35  1  0  0  0
  9 10  1  0  0  0
 10 11  1  0  0  0
 11 28  1  0  0  0
 13 12  1  0  0  0
 13 14  1  0  0  0
 13 36  1  0  0  0
 14 30  1  0  0  0
 16 15  1  0  0  0
 16 37  1  0  0  0
 18 17  1  0  0  0
 18 38  1  0  0  0
 20 19  1  0  0  0
 20 21  1  0  0  0
 20 39  1  0  0  0
 21 22  1  0  0  0
 21 23  1  0  0  0
 34  7  1  0  0  0
 35 12  1  0  0  0
 36 15  1  0  0  0
 37 17  1  0  0  0
 38 19  1  0  0  0
  6 24  2  0  0  0
  7 26  2  0  0  0
 11 27  2  0  0  0
 12 29  2  0  0  0
 15 31  2  0  0  0
 17 32  2  0  0  0
 19 33  2  0  0  0
M  END
> <rmsd>
0.759496689

$$$$
MolPort-047-347-323 MCULE-5838708767 PubChem-115254


 22 21  0  0  0  0  0  0  0  0999 V2000
    1.8628   24.3199   69.2842 C   0  0  0  0  0
    2.5232   22.9838   69.5820 C   0  0  0  0  0
    2.2619   22.6382   71.0426 C   0  0  0  0  0
    4.0226   23.1748   69.3562 C   0  0  0  0  0
    1.9688   21.8974   68.6307 C   0  0  0  0  0
    0.4713   21.7957   68.6247 C   0  0  0  0  0
   -1.6995   22.1042   67.3604 C   0  0  0  0  0
   -2.2896   23.2763   68.1251 C   0  0  0  0  0
   -3.7761   23.2145   68.0944 C   0  0  0  0  0
   -5.9045   22.0257   68.7267 C   0  0  0  0  0
   -6.3212   20.7640   69.4543 C   0  0  0  0  0
    4.7520   22.0476   69.7499 O   0  0  0  0  0
    5.7713   21.8509   67.3353 O   0  0  0  0  0
    7.1595   20.7894   69.2770 O   0  0  0  0  0
    6.9712   23.5193   68.9601 O   0  0  0  0  0
   -0.1448   21.4003   69.6524 O   0  0  0  0  0
   -4.4241   24.1362   67.5310 O   0  0  0  0  0
    2.5241   20.6435   68.9045 O   0  0  0  0  0
    6.1472   22.0515   68.7868 P   0  0  0  0  0
   -0.2464   22.1399   67.4372 N   0  0  0  0  0
   -4.4559   22.1248   68.7188 N   0  0  0  0  0
   -8.1318   20.6506   69.4799 S   0  0  0  0  0
  1  2  1  0  0  0
  2  3  1  0  0  0
  2  4  1  0  0  0
  4 12  1  0  0  0
  5  2  1  0  0  0
  5  6  1  0  0  0
  5 18  1  0  0  0
  6 20  1  0  0  0
  7 20  1  0  0  0
  7  8  1  0  0  0
  8  9  1  0  0  0
  9 21  1  0  0  0
 10 21  1  0  0  0
 10 11  1  0  0  0
 11 22  1  0  0  0
 19 12  1  0  0  0
 19 14  1  0  0  0
 19 15  1  0  0  0
  6 16  2  0  0  0
  9 17  2  0  0  0
 19 13  2  0  0  0
M  END
> <rmsd>
0.854541242

$$$$
