HTS1710-00000257-01
 OpenBabel03232612363D

 47 49  0  0  1  0  0  0  0  0999 V2000
    2.9512   -8.9100  -31.6518 C   0  0  0  0  0  0  0  0  0  0  0  0
    4.5278  -12.7573  -30.0844 C   0  0  1  0  0  0  0  0  0  0  0  0
    2.1262   -9.8407  -32.5622 C   0  0  2  0  0  0  0  0  0  0  0  0
    4.1438  -11.4364  -32.0773 C   0  0  2  0  0  0  0  0  0  0  0  0
    4.6374  -12.3722  -28.5840 C   0  0  1  0  0  0  0  0  0  0  0  0
    3.3514  -12.7055  -27.7745 C   0  0  2  0  0  0  0  0  0  0  0  0
    4.0603  -14.1253  -30.2121 O   0  0  0  0  0  0  0  0  0  0  0  0
    4.2673   -9.1411  -31.4332 C   0  0  0  0  0  0  0  0  0  0  0  0
    2.9186  -11.1342  -32.9851 C   0  0  2  0  0  0  0  0  0  0  0  0
    3.6600  -11.8471  -30.7808 O   0  0  0  0  0  0  0  0  0  0  0  0
    2.8173  -14.1463  -28.0580 C   0  0  1  0  0  0  0  0  0  0  0  0
    2.8249  -14.5504  -29.5693 C   0  0  1  0  0  0  0  0  0  0  0  0
    4.9227  -10.2312  -31.9258 O   0  0  0  0  0  0  0  0  0  0  0  0
    2.2629   -7.7284  -31.0240 C   0  0  0  0  0  0  0  0  0  0  0  0
    3.2715  -10.8677  -34.4324 C   0  0  0  0  0  0  0  0  0  0  0  0
    1.7957   -9.1039  -33.8994 C   0  0  0  0  0  0  0  0  0  0  0  0
    2.6699   -9.7869  -34.9091 C   0  0  0  0  0  0  0  0  0  0  0  0
    2.9564   -6.9164  -30.4366 O   0  5  0  0  0  0  0  0  0  0  0  0
    5.7481  -13.0624  -28.0099 O   0  0  0  0  0  0  0  0  0  0  0  0
    2.3434  -11.7270  -28.0151 O   0  0  0  0  0  0  0  0  0  0  0  0
    3.6220  -15.0780  -27.3345 O   0  0  0  0  0  0  0  0  0  0  0  0
    1.0505   -7.6526  -31.1331 O   0  0  0  0  0  0  0  0  0  0  0  0
    1.5466  -14.2087  -30.3993 C   0  0  0  0  0  0  0  0  0  0  0  0
    4.1813  -11.8073  -35.2023 C   0  0  0  0  0  0  0  0  0  0  0  0
    1.4796  -14.8481  -31.6653 O   0  0  0  0  0  0  0  0  0  0  0  0
    5.4688  -11.2213  -35.3636 O   0  0  0  0  0  0  0  0  0  0  0  0
    5.4977  -12.6875  -30.5309 H   0  0  0  0  0  0  0  0  0  0  0  0
    1.2558  -10.1082  -32.0003 H   0  0  0  0  0  0  0  0  0  0  0  0
    4.7471  -12.2066  -32.5106 H   0  0  0  0  0  0  0  0  0  0  0  0
    4.7714  -11.3118  -28.5347 H   0  0  0  0  0  0  0  0  0  0  0  0
    3.6160  -12.6803  -26.7381 H   0  0  0  0  0  0  0  0  0  0  0  0
    4.7991   -8.4611  -30.8678 H   0  0  0  0  0  0  0  0  0  0  0  0
    2.3419  -12.0280  -32.8696 H   0  0  0  0  0  0  0  0  0  0  0  0
    1.7941  -14.1591  -27.7456 H   0  0  0  0  0  0  0  0  0  0  0  0
    2.7898  -15.6198  -29.5598 H   0  0  0  0  0  0  0  0  0  0  0  0
    2.0343   -8.0631  -33.8303 H   0  0  0  0  0  0  0  0  0  0  0  0
    0.7569   -9.1505  -34.1521 H   0  0  0  0  0  0  0  0  0  0  0  0
    2.7908   -9.4495  -35.8768 H   0  0  0  0  0  0  0  0  0  0  0  0
    5.5024  -13.9851  -27.8393 H   0  0  0  0  0  0  0  0  0  0  0  0
    2.1625  -11.6762  -28.9667 H   0  0  0  0  0  0  0  0  0  0  0  0
    3.2548  -15.9701  -27.4365 H   0  0  0  0  0  0  0  0  0  0  0  0
    1.5233  -13.1506  -30.5573 H   0  0  0  0  0  0  0  0  0  0  0  0
    0.7113  -14.5650  -29.8333 H   0  0  0  0  0  0  0  0  0  0  0  0
    3.7572  -11.9997  -36.1656 H   0  0  0  0  0  0  0  0  0  0  0  0
    4.2798  -12.7229  -34.6575 H   0  0  0  0  0  0  0  0  0  0  0  0
    1.6313  -15.7998  -31.5552 H   0  0  0  0  0  0  0  0  0  0  0  0
    6.0294  -11.8124  -35.8900 H   0  0  0  0  0  0  0  0  0  0  0  0
  1  3  1  0  0  0  0
  1  8  2  0  0  0  0
  1 14  1  0  0  0  0
  2 10  1  0  0  0  0
  2  5  1  0  0  0  0
  2  7  1  0  0  0  0
  2 27  1  6  0  0  0
  3  9  1  0  0  0  0
  3 16  1  0  0  0  0
  3 28  1  1  0  0  0
  4  9  1  0  0  0  0
  4 10  1  0  0  0  0
  4 13  1  0  0  0  0
  4 29  1  6  0  0  0
  5  6  1  0  0  0  0
  5 19  1  0  0  0  0
  5 30  1  1  0  0  0
  6 20  1  0  0  0  0
  6 11  1  0  0  0  0
  6 31  1  1  0  0  0
  7 12  1  0  0  0  0
  8 13  1  0  0  0  0
  8 32  1  0  0  0  0
  9 15  1  0  0  0  0
  9 33  1  1  0  0  0
 11 12  1  0  0  0  0
 11 21  1  0  0  0  0
 11 34  1  1  0  0  0
 12 23  1  0  0  0  0
 12 35  1  1  0  0  0
 14 18  1  0  0  0  0
 14 22  2  0  0  0  0
 15 24  1  0  0  0  0
 15 17  2  0  0  0  0
 16 17  1  0  0  0  0
 16 36  1  0  0  0  0
 16 37  1  0  0  0  0
 17 38  1  0  0  0  0
 19 39  1  0  0  0  0
 20 40  1  0  0  0  0
 21 41  1  0  0  0  0
 23 25  1  0  0  0  0
 23 42  1  0  0  0  0
 23 43  1  0  0  0  0
 24 26  1  0  0  0  0
 24 44  1  0  0  0  0
 24 45  1  0  0  0  0
 25 46  1  0  0  0  0
 26 47  1  0  0  0  0
M  CHG  1  18  -1
M  END
$$$$
