HTS1710-01640275-01
 OpenBabel03232612353D

 39 40  0  0  0  0  0  0  0  0999 V2000
    0.7489  -12.4690  -35.6197 C   0  0  0  0  0  0  0  0  0  0  0  0
    1.7342  -11.8635  -34.5969 C   0  0  0  0  0  0  0  0  0  0  0  0
    2.5184  -10.6541  -35.1600 C   0  0  0  0  0  0  0  0  0  0  0  0
    3.4761  -10.0896  -34.1774 N   0  0  0  0  0  0  0  0  0  0  0  0
    4.8862  -10.1038  -34.6567 C   0  0  0  0  0  0  0  0  0  0  0  0
    5.1224   -9.0973  -35.7952 C   0  0  0  0  0  0  0  0  0  0  0  0
    4.3857   -9.1505  -36.7660 O   0  5  0  0  0  0  0  0  0  0  0  0
    6.0373   -8.3063  -35.6463 O   0  0  0  0  0  0  0  0  0  0  0  0
    3.0092   -9.4527  -33.0063 C   0  0  0  0  0  0  0  0  0  0  0  0
    1.8173   -9.3929  -32.7540 O   0  0  0  0  0  0  0  0  0  0  0  0
    4.0298   -8.9034  -32.0537 C   0  0  0  0  0  0  0  0  0  0  0  0
    4.7753   -7.7854  -32.2688 N   0  0  0  0  0  0  0  0  0  0  0  0
    5.6752   -7.7992  -31.2999 C   0  0  0  0  0  0  0  0  0  0  0  0
    5.6363   -8.8644  -30.4273 O   0  0  0  0  0  0  0  0  0  0  0  0
    4.5504   -9.5157  -30.9403 C   0  0  0  0  0  0  0  0  0  0  0  0
    3.9611  -10.6558  -30.2085 C   0  0  0  0  0  0  0  0  0  0  0  0
    3.4419  -10.5422  -28.9000 C   0  0  0  0  0  0  0  0  0  0  0  0
    2.9220  -11.6640  -28.2337 C   0  0  0  0  0  0  0  0  0  0  0  0
    2.9298  -12.9259  -28.8505 C   0  0  0  0  0  0  0  0  0  0  0  0
    2.3647  -14.1388  -28.1262 C   0  0  0  0  0  0  0  0  0  0  0  0
    3.4807  -13.0554  -30.1357 C   0  0  0  0  0  0  0  0  0  0  0  0
    4.0026  -11.9347  -30.8003 C   0  0  0  0  0  0  0  0  0  0  0  0
    0.2381  -13.2976  -35.1755 H   0  0  0  0  0  0  0  0  0  0  0  0
    1.2891  -12.8031  -36.4808 H   0  0  0  0  0  0  0  0  0  0  0  0
    0.0365  -11.7259  -35.9118 H   0  0  0  0  0  0  0  0  0  0  0  0
    2.4340  -12.6196  -34.3078 H   0  0  0  0  0  0  0  0  0  0  0  0
    1.1593  -11.5144  -33.7647 H   0  0  0  0  0  0  0  0  0  0  0  0
    1.8207   -9.8914  -35.4362 H   0  0  0  0  0  0  0  0  0  0  0  0
    3.0818  -10.9963  -36.0029 H   0  0  0  0  0  0  0  0  0  0  0  0
    5.1199  -11.0860  -35.0110 H   0  0  0  0  0  0  0  0  0  0  0  0
    5.5149   -9.8260  -33.8367 H   0  0  0  0  0  0  0  0  0  0  0  0
    6.3744   -7.0466  -31.2020 H   0  0  0  0  0  0  0  0  0  0  0  0
    3.4446   -9.6244  -28.4280 H   0  0  0  0  0  0  0  0  0  0  0  0
    2.5315  -11.5604  -27.2840 H   0  0  0  0  0  0  0  0  0  0  0  0
    1.9936  -13.8409  -27.1678 H   0  0  0  0  0  0  0  0  0  0  0  0
    3.1358  -14.8695  -27.9988 H   0  0  0  0  0  0  0  0  0  0  0  0
    1.5670  -14.5588  -28.7027 H   0  0  0  0  0  0  0  0  0  0  0  0
    3.5021  -13.9798  -30.5940 H   0  0  0  0  0  0  0  0  0  0  0  0
    4.4229  -12.0485  -31.7359 H   0  0  0  0  0  0  0  0  0  0  0  0
  1  2  1  0  0  0  0
  1 23  1  0  0  0  0
  1 24  1  0  0  0  0
  1 25  1  0  0  0  0
  2  3  1  0  0  0  0
  2 26  1  0  0  0  0
  2 27  1  0  0  0  0
  3  4  1  0  0  0  0
  3 28  1  0  0  0  0
  3 29  1  0  0  0  0
  4  5  1  0  0  0  0
  4  9  1  0  0  0  0
  5  6  1  0  0  0  0
  5 30  1  0  0  0  0
  5 31  1  0  0  0  0
  6  7  1  0  0  0  0
  6  8  2  0  0  0  0
  9 10  2  0  0  0  0
  9 11  1  0  0  0  0
 11 12  1  0  0  0  0
 11 15  2  0  0  0  0
 12 13  2  0  0  0  0
 13 14  1  0  0  0  0
 13 32  1  0  0  0  0
 14 15  1  0  0  0  0
 15 16  1  0  0  0  0
 16 17  2  0  0  0  0
 16 22  1  0  0  0  0
 17 18  1  0  0  0  0
 17 33  1  0  0  0  0
 18 19  2  0  0  0  0
 18 34  1  0  0  0  0
 19 20  1  0  0  0  0
 19 21  1  0  0  0  0
 20 35  1  0  0  0  0
 20 36  1  0  0  0  0
 20 37  1  0  0  0  0
 21 22  2  0  0  0  0
 21 38  1  0  0  0  0
 22 39  1  0  0  0  0
M  CHG  1   7  -1
M  END
$$$$
