HTS1710-02202283-01
 OpenBabel03232612353D

 37 37  0  0  0  0  0  0  0  0999 V2000
    2.9007  -10.6158  -34.2224 C   0  0  0  0  0  0  0  0  0  0  0  0
    2.1798  -11.6247  -33.8159 N   0  0  0  0  0  0  0  0  0  0  0  0
    2.6107   -9.8891  -35.5344 C   0  0  0  0  0  0  0  0  0  0  0  0
    1.4970  -13.3449  -32.2813 C   0  0  0  0  0  0  0  0  0  0  0  0
    2.3632  -12.3354  -32.6713 N   0  0  0  0  0  0  0  0  0  0  0  0
    4.8000   -8.7136  -31.3591 C   0  0  0  0  0  0  0  0  0  0  0  0
    4.0829  -10.1336  -33.3764 C   0  0  0  0  0  0  0  0  0  0  0  0
    3.5242   -9.4389  -36.2051 O   0  5  0  0  0  0  0  0  0  0  0  0
    0.5320  -13.6316  -32.9718 O   0  0  0  0  0  0  0  0  0  0  0  0
    5.1663   -9.4270  -30.4408 O   0  5  0  0  0  0  0  0  0  0  0  0
    1.7925  -14.0829  -30.9774 C   0  0  0  0  0  0  0  0  0  0  0  0
    2.5034  -13.2102  -30.0797 O   0  0  0  0  0  0  0  0  0  0  0  0
    3.6277   -9.2151  -32.2144 C   0  0  0  0  0  0  0  0  0  0  0  0
    1.4371   -9.7891  -35.8518 O   0  0  0  0  0  0  0  0  0  0  0  0
    3.4996  -13.6490  -29.2313 C   0  0  0  0  0  0  0  0  0  0  0  0
    5.5862  -14.4522  -27.5097 C   0  0  0  0  0  0  0  0  0  0  0  0
    5.2723   -7.6272  -31.6434 O   0  0  0  0  0  0  0  0  0  0  0  0
    3.6209  -15.0011  -28.8465 C   0  0  0  0  0  0  0  0  0  0  0  0
    4.4202  -12.7047  -28.7472 C   0  0  0  0  0  0  0  0  0  0  0  0
    4.6616  -15.3956  -27.9901 C   0  0  0  0  0  0  0  0  0  0  0  0
    5.4601  -13.0992  -27.8905 C   0  0  0  0  0  0  0  0  0  0  0  0
    6.5954  -14.8933  -26.6751 O   0  0  0  0  0  0  0  0  0  0  0  0
    6.9453  -16.2819  -26.5393 C   0  0  0  0  0  0  0  0  0  0  0  0
    3.1372  -12.1259  -32.1002 H   0  0  0  0  0  0  0  0  0  0  0  0
    4.7574   -9.5889  -34.0036 H   0  0  0  0  0  0  0  0  0  0  0  0
    4.5583  -10.9931  -32.9518 H   0  0  0  0  0  0  0  0  0  0  0  0
    2.3910  -14.9455  -31.1840 H   0  0  0  0  0  0  0  0  0  0  0  0
    0.8720  -14.3863  -30.5239 H   0  0  0  0  0  0  0  0  0  0  0  0
    3.1186   -8.3690  -32.6266 H   0  0  0  0  0  0  0  0  0  0  0  0
    2.9884   -9.7917  -31.5790 H   0  0  0  0  0  0  0  0  0  0  0  0
    2.9454  -15.6996  -29.1941 H   0  0  0  0  0  0  0  0  0  0  0  0
    4.3316  -11.7143  -29.0234 H   0  0  0  0  0  0  0  0  0  0  0  0
    4.7483  -16.3854  -27.7115 H   0  0  0  0  0  0  0  0  0  0  0  0
    6.1323  -12.3995  -27.5390 H   0  0  0  0  0  0  0  0  0  0  0  0
    7.7507  -16.3802  -25.8417 H   0  0  0  0  0  0  0  0  0  0  0  0
    7.2479  -16.6680  -27.4902 H   0  0  0  0  0  0  0  0  0  0  0  0
    6.0975  -16.8303  -26.1850 H   0  0  0  0  0  0  0  0  0  0  0  0
  1  2  2  0  0  0  0
  1  3  1  0  0  0  0
  1  7  1  0  0  0  0
  2  5  1  0  0  0  0
  3  8  1  0  0  0  0
  3 14  2  0  0  0  0
  4  5  1  0  0  0  0
  4  9  2  0  0  0  0
  4 11  1  0  0  0  0
  5 24  1  0  0  0  0
  6 10  1  0  0  0  0
  6 13  1  0  0  0  0
  6 17  2  0  0  0  0
  7 13  1  0  0  0  0
  7 25  1  0  0  0  0
  7 26  1  0  0  0  0
 11 12  1  0  0  0  0
 11 27  1  0  0  0  0
 11 28  1  0  0  0  0
 12 15  1  0  0  0  0
 13 29  1  0  0  0  0
 13 30  1  0  0  0  0
 15 18  2  0  0  0  0
 15 19  1  0  0  0  0
 16 20  2  0  0  0  0
 16 21  1  0  0  0  0
 16 22  1  0  0  0  0
 18 20  1  0  0  0  0
 18 31  1  0  0  0  0
 19 21  2  0  0  0  0
 19 32  1  0  0  0  0
 20 33  1  0  0  0  0
 21 34  1  0  0  0  0
 22 23  1  0  0  0  0
 23 35  1  0  0  0  0
 23 36  1  0  0  0  0
 23 37  1  0  0  0  0
M  CHG  2   8  -1  10  -1
M  END
$$$$
