HTS1710-04906138-01
 OpenBabel03232612363D

 44 46  0  0  1  0  0  0  0  0999 V2000
   -0.0808   -8.2093  -33.6133 C   0  0  0  0  0  0  0  0  0  0  0  0
    1.7141   -9.8147  -34.3113 N   0  0  0  0  0  0  0  0  0  0  0  0
    1.0716   -9.1055  -33.2805 C   0  0  0  0  0  0  0  0  0  0  0  0
    2.7512  -11.7033  -32.9839 C   0  0  0  0  0  0  0  0  0  0  0  0
   -0.3848   -7.1246  -32.8520 N   0  0  0  0  0  0  0  0  0  0  0  0
    2.9249  -10.6351  -34.0680 C   0  0  1  0  0  0  0  0  0  0  0  0
    3.5590  -11.6274  -31.9015 N   0  0  0  0  0  0  0  0  0  0  0  0
    1.7880  -12.6266  -33.1970 N   0  0  0  0  0  0  0  0  0  0  0  0
   -1.0084   -8.3023  -34.6204 C   0  0  0  0  0  0  0  0  0  0  0  0
   -1.4539   -6.6258  -33.4408 C   0  0  0  0  0  0  0  0  0  0  0  0
   -1.9220   -7.2857  -34.5514 O   0  0  0  0  0  0  0  0  0  0  0  0
    3.3935  -12.5670  -30.9481 C   0  0  0  0  0  0  0  0  0  0  0  0
    1.6224  -13.5629  -32.2405 C   0  0  0  0  0  0  0  0  0  0  0  0
    1.4472   -9.2122  -32.1237 O   0  0  0  0  0  0  0  0  0  0  0  0
    4.1673   -9.9820  -29.3724 C   0  0  0  0  0  0  0  0  0  0  0  0
    2.4190  -13.5751  -31.0800 C   0  0  0  0  0  0  0  0  0  0  0  0
    5.0424   -9.8798  -30.2147 O   0  5  0  0  0  0  0  0  0  0  0  0
    1.4096   -9.8108  -35.7504 C   0  0  0  0  0  0  0  0  0  0  0  0
    3.9435  -11.3678  -28.7567 C   0  0  0  0  0  0  0  0  0  0  0  0
    4.3214  -12.5031  -29.7388 C   0  0  0  0  0  0  0  0  0  0  0  0
    3.4441   -9.0793  -28.9906 O   0  0  0  0  0  0  0  0  0  0  0  0
    3.3249  -11.2634  -35.4199 C   0  0  0  0  0  0  0  0  0  0  0  0
    2.6269  -10.4041  -36.4767 C   0  0  0  0  0  0  0  0  0  0  0  0
   -2.1923   -5.4028  -32.9689 C   0  0  0  0  0  0  0  0  0  0  0  0
    0.5418  -14.6062  -32.4784 C   0  0  0  0  0  0  0  0  0  0  0  0
    3.6971  -10.0008  -33.6854 H   0  0  0  0  0  0  0  0  0  0  0  0
   -1.0161   -9.0440  -35.3380 H   0  0  0  0  0  0  0  0  0  0  0  0
    2.2936  -14.2963  -30.3525 H   0  0  0  0  0  0  0  0  0  0  0  0
    1.2358   -8.8095  -36.0851 H   0  0  0  0  0  0  0  0  0  0  0  0
    0.5303  -10.3857  -35.9531 H   0  0  0  0  0  0  0  0  0  0  0  0
    2.9110  -11.4670  -28.4939 H   0  0  0  0  0  0  0  0  0  0  0  0
    4.5708  -11.4528  -27.8940 H   0  0  0  0  0  0  0  0  0  0  0  0
    4.2710  -13.4368  -29.2187 H   0  0  0  0  0  0  0  0  0  0  0  0
    5.3092  -12.3042  -30.0989 H   0  0  0  0  0  0  0  0  0  0  0  0
    2.9887  -12.2777  -35.4776 H   0  0  0  0  0  0  0  0  0  0  0  0
    4.3861  -11.2847  -35.5553 H   0  0  0  0  0  0  0  0  0  0  0  0
    3.2768   -9.6273  -36.8216 H   0  0  0  0  0  0  0  0  0  0  0  0
    2.3480  -10.9700  -37.3409 H   0  0  0  0  0  0  0  0  0  0  0  0
   -1.7079   -5.0064  -32.1011 H   0  0  0  0  0  0  0  0  0  0  0  0
   -3.2003   -5.6665  -32.7255 H   0  0  0  0  0  0  0  0  0  0  0  0
   -2.1938   -4.6656  -33.7445 H   0  0  0  0  0  0  0  0  0  0  0  0
    0.0599  -14.4136  -33.4141 H   0  0  0  0  0  0  0  0  0  0  0  0
   -0.1794  -14.5591  -31.6893 H   0  0  0  0  0  0  0  0  0  0  0  0
    0.9846  -15.5801  -32.4991 H   0  0  0  0  0  0  0  0  0  0  0  0
  1  3  1  0  0  0  0
  1  5  1  0  0  0  0
  1  9  2  0  0  0  0
  2  3  1  0  0  0  0
  2  6  1  0  0  0  0
  2 18  1  0  0  0  0
  3 14  2  0  0  0  0
  4  6  1  0  0  0  0
  4  7  2  0  0  0  0
  4  8  1  0  0  0  0
  5 10  2  0  0  0  0
  6 22  1  0  0  0  0
  6 26  1  1  0  0  0
  7 12  1  0  0  0  0
  8 13  2  0  0  0  0
  9 11  1  0  0  0  0
  9 27  1  0  0  0  0
 10 24  1  0  0  0  0
 10 11  1  0  0  0  0
 12 20  1  0  0  0  0
 12 16  2  0  0  0  0
 13 16  1  0  0  0  0
 13 25  1  0  0  0  0
 15 19  1  0  0  0  0
 15 17  1  0  0  0  0
 15 21  2  0  0  0  0
 16 28  1  0  0  0  0
 18 23  1  0  0  0  0
 18 29  1  0  0  0  0
 18 30  1  0  0  0  0
 19 20  1  0  0  0  0
 19 31  1  0  0  0  0
 19 32  1  0  0  0  0
 20 33  1  0  0  0  0
 20 34  1  0  0  0  0
 22 23  1  0  0  0  0
 22 35  1  0  0  0  0
 22 36  1  0  0  0  0
 23 37  1  0  0  0  0
 23 38  1  0  0  0  0
 24 39  1  0  0  0  0
 24 40  1  0  0  0  0
 24 41  1  0  0  0  0
 25 42  1  0  0  0  0
 25 43  1  0  0  0  0
 25 44  1  0  0  0  0
M  CHG  1  17  -1
M  END
$$$$
