HTS1710-04286976-01
 OpenBabel03232612353D

 43 43  0  0  0  0  0  0  0  0999 V2000
    3.5257   -7.8399  -30.6198 C   0  0  0  0  0  0  0  0  0  0  0  0
    4.7899   -8.2521  -30.9952 C   0  0  0  0  0  0  0  0  0  0  0  0
    5.1334   -9.5247  -30.6140 O   0  0  0  0  0  0  0  0  0  0  0  0
    2.9978   -8.9571  -29.9211 C   0  0  0  0  0  0  0  0  0  0  0  0
    2.8277   -6.5549  -30.8646 C   0  0  0  0  0  0  0  0  0  0  0  0
    3.9912   -9.8980  -29.9598 C   0  0  0  0  0  0  0  0  0  0  0  0
    3.3972  -12.5549  -31.5044 C   0  0  0  0  0  0  0  0  0  0  0  0
    4.3683  -11.9542  -34.3864 C   0  0  0  0  0  0  0  0  0  0  0  0
    4.2352  -12.2491  -30.4417 N   0  0  0  0  0  0  0  0  0  0  0  0
    3.6589  -13.0383  -33.8856 N   0  0  0  0  0  0  0  0  0  0  0  0
    2.4395   -5.9116  -29.9057 O   0  5  0  0  0  0  0  0  0  0  0  0
    5.2084  -11.4039  -33.6917 O   0  0  0  0  0  0  0  0  0  0  0  0
    2.3175  -11.9988  -31.6161 O   0  0  0  0  0  0  0  0  0  0  0  0
    3.8568  -11.2894  -29.4011 C   0  0  0  0  0  0  0  0  0  0  0  0
    3.8881  -13.5699  -32.5359 C   0  0  0  0  0  0  0  0  0  0  0  0
    2.6850   -6.2167  -32.0264 O   0  0  0  0  0  0  0  0  0  0  0  0
    4.0437  -11.4855  -35.8107 C   0  0  0  0  0  0  0  0  0  0  0  0
    5.7859   -7.4316  -31.7722 C   0  0  0  0  0  0  0  0  0  0  0  0
    3.1403  -10.2235  -35.8476 C   0  0  0  0  0  0  0  0  0  0  0  0
    1.7751  -10.4084  -35.1239 C   0  0  0  0  0  0  0  0  0  0  0  0
    0.9180  -11.5320  -35.7629 C   0  0  0  0  0  0  0  0  0  0  0  0
    0.9878   -9.0757  -35.1083 C   0  0  0  0  0  0  0  0  0  0  0  0
    2.0685   -9.0415  -29.4805 H   0  0  0  0  0  0  0  0  0  0  0  0
    5.1129  -12.6915  -30.3850 H   0  0  0  0  0  0  0  0  0  0  0  0
    2.9788  -13.4652  -34.4553 H   0  0  0  0  0  0  0  0  0  0  0  0
    4.5020  -11.4021  -28.5549 H   0  0  0  0  0  0  0  0  0  0  0  0
    2.8472  -11.4636  -29.0925 H   0  0  0  0  0  0  0  0  0  0  0  0
    4.9338  -13.7467  -32.3940 H   0  0  0  0  0  0  0  0  0  0  0  0
    3.3540  -14.4893  -32.4169 H   0  0  0  0  0  0  0  0  0  0  0  0
    3.5411  -12.2788  -36.3237 H   0  0  0  0  0  0  0  0  0  0  0  0
    4.9702  -11.2275  -36.2798 H   0  0  0  0  0  0  0  0  0  0  0  0
    5.3654   -6.4720  -31.9892 H   0  0  0  0  0  0  0  0  0  0  0  0
    6.0237   -7.9322  -32.6875 H   0  0  0  0  0  0  0  0  0  0  0  0
    6.6762   -7.3079  -31.1917 H   0  0  0  0  0  0  0  0  0  0  0  0
    2.9491   -9.9750  -36.8706 H   0  0  0  0  0  0  0  0  0  0  0  0
    3.6656   -9.4484  -35.3296 H   0  0  0  0  0  0  0  0  0  0  0  0
    1.9886  -10.7045  -34.1181 H   0  0  0  0  0  0  0  0  0  0  0  0
    0.6834  -11.2707  -36.7737 H   0  0  0  0  0  0  0  0  0  0  0  0
    0.0122  -11.6501  -35.2057 H   0  0  0  0  0  0  0  0  0  0  0  0
    1.4669  -12.4504  -35.7501 H   0  0  0  0  0  0  0  0  0  0  0  0
    0.7727   -8.7767  -36.1129 H   0  0  0  0  0  0  0  0  0  0  0  0
    1.5749   -8.3203  -34.6292 H   0  0  0  0  0  0  0  0  0  0  0  0
    0.0717   -9.2090  -34.5719 H   0  0  0  0  0  0  0  0  0  0  0  0
  1  2  2  0  0  0  0
  1  4  1  0  0  0  0
  1  5  1  0  0  0  0
  2  3  1  0  0  0  0
  2 18  1  0  0  0  0
  3  6  1  0  0  0  0
  4  6  2  0  0  0  0
  4 23  1  0  0  0  0
  5 11  1  0  0  0  0
  5 16  2  0  0  0  0
  6 14  1  0  0  0  0
  7  9  1  0  0  0  0
  7 13  2  0  0  0  0
  7 15  1  0  0  0  0
  8 10  1  0  0  0  0
  8 12  2  0  0  0  0
  8 17  1  0  0  0  0
  9 14  1  0  0  0  0
  9 24  1  0  0  0  0
 10 15  1  0  0  0  0
 10 25  1  0  0  0  0
 14 26  1  0  0  0  0
 14 27  1  0  0  0  0
 15 28  1  0  0  0  0
 15 29  1  0  0  0  0
 17 19  1  0  0  0  0
 17 30  1  0  0  0  0
 17 31  1  0  0  0  0
 18 32  1  0  0  0  0
 18 33  1  0  0  0  0
 18 34  1  0  0  0  0
 19 20  1  0  0  0  0
 19 35  1  0  0  0  0
 19 36  1  0  0  0  0
 20 21  1  0  0  0  0
 20 22  1  0  0  0  0
 20 37  1  0  0  0  0
 21 38  1  0  0  0  0
 21 39  1  0  0  0  0
 21 40  1  0  0  0  0
 22 41  1  0  0  0  0
 22 42  1  0  0  0  0
 22 43  1  0  0  0  0
M  CHG  1  11  -1
M  END
$$$$
