HTS1710-05326285-01
 OpenBabel03232612363D

 28 29  0  0  1  0  0  0  0  0999 V2000
    2.7758   -9.1690  -35.2781 O   0  5  0  0  0  0  0  0  0  0  0  0
    3.1392   -9.7859  -36.2649 C   0  0  0  0  0  0  0  0  0  0  0  0
    3.6841   -9.1809  -37.1716 O   0  0  0  0  0  0  0  0  0  0  0  0
    2.8575  -11.3453  -36.3434 C   0  0  2  0  0  0  0  0  0  0  0  0
    1.3428  -11.2009  -35.9090 C   0  0  0  0  0  0  0  0  0  0  0  0
    1.8213  -11.5542  -34.4564 C   0  0  0  0  0  0  0  0  0  0  0  0
    2.9915  -12.1882  -35.1179 N   0  0  0  0  0  0  0  0  0  0  0  0
    4.4716  -12.4008  -34.2982 S   0  0  0  0  0  0  0  0  0  0  0  0
    5.3104  -11.2586  -34.6702 O   0  0  0  0  0  0  0  0  0  0  0  0
    4.9117  -13.7852  -34.5023 O   0  0  0  0  0  0  0  0  0  0  0  0
    3.9849  -12.1878  -32.5741 C   0  0  0  0  0  0  0  0  0  0  0  0
    3.2412  -13.1956  -31.9387 C   0  0  0  0  0  0  0  0  0  0  0  0
    2.8501  -13.0423  -30.6017 C   0  0  0  0  0  0  0  0  0  0  0  0
    1.9078  -14.3060  -29.8313 Cl  0  0  0  0  0  0  0  0  0  0  0  0
    3.2023  -11.8825  -29.8896 C   0  0  0  0  0  0  0  0  0  0  0  0
    2.7862  -11.7453  -28.6103 F   0  0  0  0  0  0  0  0  0  0  0  0
    3.9608  -10.8635  -30.5131 C   0  0  0  0  0  0  0  0  0  0  0  0
    4.3450  -11.0291  -31.8603 C   0  0  0  0  0  0  0  0  0  0  0  0
    4.3547   -9.6051  -29.7803 C   0  0  0  0  0  0  0  0  0  0  0  0
    3.8431   -9.4175  -28.6899 O   0  5  0  0  0  0  0  0  0  0  0  0
    5.1468   -8.8562  -30.3240 O   0  0  0  0  0  0  0  0  0  0  0  0
    3.3736  -11.7266  -37.1995 H   0  0  0  0  0  0  0  0  0  0  0  0
    0.6789  -11.9150  -36.3497 H   0  0  0  0  0  0  0  0  0  0  0  0
    0.7701  -10.3226  -36.1224 H   0  0  0  0  0  0  0  0  0  0  0  0
    1.1844  -12.2266  -33.9206 H   0  0  0  0  0  0  0  0  0  0  0  0
    1.9211  -10.8188  -33.6857 H   0  0  0  0  0  0  0  0  0  0  0  0
    2.9825  -14.0499  -32.4568 H   0  0  0  0  0  0  0  0  0  0  0  0
    4.8962  -10.2925  -32.3279 H   0  0  0  0  0  0  0  0  0  0  0  0
  1  2  1  0  0  0  0
  2  3  2  0  0  0  0
  2  4  1  0  0  0  0
  4  5  1  0  0  0  0
  4  7  1  0  0  0  0
  4 22  1  6  0  0  0
  5  6  1  0  0  0  0
  5 23  1  0  0  0  0
  5 24  1  0  0  0  0
  6  7  1  0  0  0  0
  6 25  1  0  0  0  0
  6 26  1  0  0  0  0
  7  8  1  0  0  0  0
  8  9  2  0  0  0  0
  8 10  2  0  0  0  0
  8 11  1  0  0  0  0
 11 12  2  0  0  0  0
 11 18  1  0  0  0  0
 12 13  1  0  0  0  0
 12 27  1  0  0  0  0
 13 14  1  0  0  0  0
 13 15  2  0  0  0  0
 15 16  1  0  0  0  0
 15 17  1  0  0  0  0
 17 18  2  0  0  0  0
 17 19  1  0  0  0  0
 18 28  1  0  0  0  0
 19 20  1  0  0  0  0
 19 21  2  0  0  0  0
M  CHG  2   1  -1  20  -1
M  END
$$$$
