HTS1710-01930488-01
 OpenBabel03232612343D

 29 29  0  0  0  0  0  0  0  0999 V2000
    3.1905   -8.0551  -30.9576 C   0  0  0  0  0  0  0  0  0  0  0  0
    3.4495  -10.1768  -29.5875 C   0  0  0  0  0  0  0  0  0  0  0  0
    3.6994   -9.1136  -31.6827 C   0  0  0  0  0  0  0  0  0  0  0  0
    3.7982  -10.3272  -30.9170 C   0  0  0  0  0  0  0  0  0  0  0  0
    2.8637   -8.5395  -29.2928 S   0  0  0  0  0  0  0  0  0  0  0  0
    3.5633  -11.1815  -28.4956 C   0  0  0  0  0  0  0  0  0  0  0  0
    2.9317   -6.6753  -31.4491 C   0  0  0  0  0  0  0  0  0  0  0  0
    3.5544   -5.7721  -30.9179 O   0  5  0  0  0  0  0  0  0  0  0  0
    2.5621  -11.3942  -27.8348 O   0  5  0  0  0  0  0  0  0  0  0  0
    4.1463  -11.5146  -31.5047 O   0  0  0  0  0  0  0  0  0  0  0  0
    4.0449   -9.0073  -33.0132 O   0  0  0  0  0  0  0  0  0  0  0  0
    2.1210   -6.5145  -32.3453 O   0  0  0  0  0  0  0  0  0  0  0  0
    4.6389  -11.7203  -28.3006 O   0  0  0  0  0  0  0  0  0  0  0  0
    4.2660   -9.7272  -36.0160 O   0  0  0  0  0  0  0  0  0  0  0  0
    0.9638  -13.0590  -32.6453 O   0  0  0  0  0  0  0  0  0  0  0  0
    3.1693  -12.5717  -31.6654 C   0  0  0  0  0  0  0  0  0  0  0  0
    4.9696   -9.8821  -33.6877 C   0  0  0  0  0  0  0  0  0  0  0  0
    2.0608  -12.1481  -32.6643 C   0  0  0  0  0  0  0  0  0  0  0  0
    5.2548   -9.2961  -35.0844 C   0  0  0  0  0  0  0  0  0  0  0  0
    4.2829  -10.6949  -36.0808 H   0  0  0  0  0  0  0  0  0  0  0  0
    1.2163  -13.8785  -33.0988 H   0  0  0  0  0  0  0  0  0  0  0  0
    2.7238  -12.7852  -30.7162 H   0  0  0  0  0  0  0  0  0  0  0  0
    3.6630  -13.4405  -32.0481 H   0  0  0  0  0  0  0  0  0  0  0  0
    4.5405  -10.8574  -33.7848 H   0  0  0  0  0  0  0  0  0  0  0  0
    5.8780   -9.9624  -33.1280 H   0  0  0  0  0  0  0  0  0  0  0  0
    1.7078  -11.1734  -32.3990 H   0  0  0  0  0  0  0  0  0  0  0  0
    2.4790  -12.1470  -33.6491 H   0  0  0  0  0  0  0  0  0  0  0  0
    5.2434   -8.2277  -35.0275 H   0  0  0  0  0  0  0  0  0  0  0  0
    6.2140   -9.6367  -35.4142 H   0  0  0  0  0  0  0  0  0  0  0  0
  1  3  2  0  0  0  0
  1  5  1  0  0  0  0
  1  7  1  0  0  0  0
  2  4  2  0  0  0  0
  2  5  1  0  0  0  0
  2  6  1  0  0  0  0
  3  4  1  0  0  0  0
  3 11  1  0  0  0  0
  4 10  1  0  0  0  0
  6  9  1  0  0  0  0
  6 13  2  0  0  0  0
  7  8  1  0  0  0  0
  7 12  2  0  0  0  0
 10 16  1  0  0  0  0
 11 17  1  0  0  0  0
 14 19  1  0  0  0  0
 14 20  1  0  0  0  0
 15 18  1  0  0  0  0
 15 21  1  0  0  0  0
 16 18  1  0  0  0  0
 16 22  1  0  0  0  0
 16 23  1  0  0  0  0
 17 19  1  0  0  0  0
 17 24  1  0  0  0  0
 17 25  1  0  0  0  0
 18 26  1  0  0  0  0
 18 27  1  0  0  0  0
 19 28  1  0  0  0  0
 19 29  1  0  0  0  0
M  CHG  2   8  -1   9  -1
M  END
$$$$
