HTS1710-01341836-01
 OpenBabel03232612363D

 35 36  0  0  1  0  0  0  0  0999 V2000
    2.2577  -11.3393  -35.9467 C   0  0  0  0  0  0  0  0  0  0  0  0
    1.1807  -12.1057  -35.3795 O   0  0  0  0  0  0  0  0  0  0  0  0
    1.2365  -12.6548  -34.1121 C   0  0  0  0  0  0  0  0  0  0  0  0
    0.3617  -13.7067  -33.8083 C   0  0  0  0  0  0  0  0  0  0  0  0
    0.3836  -14.2988  -32.5390 C   0  0  0  0  0  0  0  0  0  0  0  0
    1.2752  -13.8566  -31.5449 C   0  0  0  0  0  0  0  0  0  0  0  0
    1.2648  -14.4489  -30.3314 N   0  0  0  0  0  0  0  0  0  0  0  0
    2.1103  -14.0183  -29.3770 C   0  0  0  0  0  0  0  0  0  0  0  0
    2.0433  -14.7299  -28.0339 C   0  0  0  0  0  0  0  0  0  0  0  0
    3.0198  -12.9728  -29.5927 C   0  0  0  0  0  0  0  0  0  0  0  0
    3.0663  -12.3528  -30.8501 C   0  0  0  0  0  0  0  0  0  0  0  0
    4.2408  -11.0258  -31.1294 S   0  0  0  0  0  0  0  0  0  0  0  0
    3.2961   -9.4720  -30.7608 C   0  0  2  0  0  0  0  0  0  0  0  0
    3.7096   -8.3109  -31.7104 C   0  0  0  0  0  0  0  0  0  0  0  0
    5.2233   -8.0499  -31.7090 C   0  0  0  0  0  0  0  0  0  0  0  0
    5.8682   -8.5011  -30.7786 O   0  5  0  0  0  0  0  0  0  0  0  0
    5.6779   -7.3958  -32.6316 O   0  0  0  0  0  0  0  0  0  0  0  0
    3.4163   -9.1283  -29.2620 C   0  0  0  0  0  0  0  0  0  0  0  0
    4.2503   -9.7191  -28.5966 O   0  5  0  0  0  0  0  0  0  0  0  0
    2.6618   -8.2707  -28.8368 O   0  0  0  0  0  0  0  0  0  0  0  0
    2.1640  -12.7914  -31.8492 C   0  0  0  0  0  0  0  0  0  0  0  0
    2.1358  -12.1944  -33.1292 C   0  0  0  0  0  0  0  0  0  0  0  0
    1.9879  -11.0196  -36.9316 H   0  0  0  0  0  0  0  0  0  0  0  0
    3.1384  -11.9449  -35.9970 H   0  0  0  0  0  0  0  0  0  0  0  0
    2.4479  -10.4834  -35.3334 H   0  0  0  0  0  0  0  0  0  0  0  0
   -0.3012  -14.0465  -34.5226 H   0  0  0  0  0  0  0  0  0  0  0  0
   -0.2659  -15.0730  -32.3295 H   0  0  0  0  0  0  0  0  0  0  0  0
    1.2921  -15.4909  -28.0705 H   0  0  0  0  0  0  0  0  0  0  0  0
    1.7988  -14.0238  -27.2680 H   0  0  0  0  0  0  0  0  0  0  0  0
    2.9920  -15.1754  -27.8185 H   0  0  0  0  0  0  0  0  0  0  0  0
    3.6479  -12.6630  -28.8347 H   0  0  0  0  0  0  0  0  0  0  0  0
    2.2569   -9.6324  -30.9591 H   0  0  0  0  0  0  0  0  0  0  0  0
    3.2087   -7.4186  -31.3975 H   0  0  0  0  0  0  0  0  0  0  0  0
    3.4328   -8.5941  -32.7044 H   0  0  0  0  0  0  0  0  0  0  0  0
    2.7778  -11.4161  -33.3461 H   0  0  0  0  0  0  0  0  0  0  0  0
  1  2  1  0  0  0  0
  1 23  1  0  0  0  0
  1 24  1  0  0  0  0
  1 25  1  0  0  0  0
  2  3  1  0  0  0  0
  3  4  2  0  0  0  0
  3 22  1  0  0  0  0
  4  5  1  0  0  0  0
  4 26  1  0  0  0  0
  5  6  2  0  0  0  0
  5 27  1  0  0  0  0
  6  7  1  0  0  0  0
  6 21  1  0  0  0  0
  7  8  2  0  0  0  0
  8  9  1  0  0  0  0
  8 10  1  0  0  0  0
  9 28  1  0  0  0  0
  9 29  1  0  0  0  0
  9 30  1  0  0  0  0
 10 11  2  0  0  0  0
 10 31  1  0  0  0  0
 11 12  1  0  0  0  0
 11 21  1  0  0  0  0
 12 13  1  0  0  0  0
 13 14  1  0  0  0  0
 13 18  1  0  0  0  0
 13 32  1  6  0  0  0
 14 15  1  0  0  0  0
 14 33  1  0  0  0  0
 14 34  1  0  0  0  0
 15 16  1  0  0  0  0
 15 17  2  0  0  0  0
 18 19  1  0  0  0  0
 18 20  2  0  0  0  0
 21 22  2  0  0  0  0
 22 35  1  0  0  0  0
M  CHG  2  16  -1  19  -1
M  END
$$$$
