HTS1710-00385048-01
 OpenBabel03232612343D

 44 46  0  0  1  0  0  0  0  0999 V2000
    6.7266   -6.7012  -34.3466 C   0  0  0  0  0  0  0  0  0  0  0  0
    6.0194   -8.0134  -34.1287 C   0  0  0  0  0  0  0  0  0  0  0  0
    5.7346   -8.7996  -35.2161 O   0  0  0  0  0  0  0  0  0  0  0  0
    5.1102   -9.8489  -34.5993 C   0  0  0  0  0  0  0  0  0  0  0  0
    4.6139  -11.0144  -35.4079 C   0  0  0  0  0  0  0  0  0  0  0  0
    4.5999  -12.2207  -34.5761 N   0  0  0  0  0  0  0  0  0  0  0  0
    3.5229  -12.5456  -33.7625 C   0  0  0  0  0  0  0  0  0  0  0  0
    2.5476  -11.8142  -33.7263 O   0  0  0  0  0  0  0  0  0  0  0  0
    3.5918  -13.8304  -32.9227 C   0  0  1  0  0  0  0  0  0  0  0  0
    4.2505  -13.5606  -31.5480 C   0  0  0  0  0  0  0  0  0  0  0  0
    3.1442  -13.5307  -30.5953 N   0  0  0  0  0  0  0  0  0  0  0  0
    3.3388  -12.9816  -29.2468 C   0  0  0  0  0  0  0  0  0  0  0  0
    4.3820  -13.7474  -28.4445 C   0  0  0  0  0  0  0  0  0  0  0  0
    4.0787  -14.9970  -27.8690 C   0  0  0  0  0  0  0  0  0  0  0  0
    5.0592  -15.6507  -27.1080 C   0  0  0  0  0  0  0  0  0  0  0  0
    6.3062  -15.0301  -26.9486 C   0  0  0  0  0  0  0  0  0  0  0  0
    6.5291  -13.7891  -27.5681 C   0  0  0  0  0  0  0  0  0  0  0  0
    5.5880  -13.1563  -28.2994 N   0  0  0  0  0  0  0  0  0  0  0  0
    1.9470  -13.9416  -31.1374 C   0  0  0  0  0  0  0  0  0  0  0  0
    0.8756  -13.9477  -30.5568 O   0  0  0  0  0  0  0  0  0  0  0  0
    2.1701  -14.3587  -32.5856 C   0  0  0  0  0  0  0  0  0  0  0  0
    4.9993   -9.7528  -33.2374 C   0  0  0  0  0  0  0  0  0  0  0  0
    5.6124   -8.5158  -32.9085 C   0  0  0  0  0  0  0  0  0  0  0  0
    5.7490   -7.9412  -31.5478 C   0  0  0  0  0  0  0  0  0  0  0  0
    6.3509   -6.8861  -31.4506 O   0  5  0  0  0  0  0  0  0  0  0  0
    5.2615   -8.5452  -30.6092 O   0  0  0  0  0  0  0  0  0  0  0  0
    6.9202   -6.5694  -35.3906 H   0  0  0  0  0  0  0  0  0  0  0  0
    7.6521   -6.7014  -33.8094 H   0  0  0  0  0  0  0  0  0  0  0  0
    6.1099   -5.9009  -33.9943 H   0  0  0  0  0  0  0  0  0  0  0  0
    5.2613  -11.1676  -36.2459 H   0  0  0  0  0  0  0  0  0  0  0  0
    3.6221  -10.8100  -35.7534 H   0  0  0  0  0  0  0  0  0  0  0  0
    5.3801  -12.8209  -34.5949 H   0  0  0  0  0  0  0  0  0  0  0  0
    4.1507  -14.5314  -33.5066 H   0  0  0  0  0  0  0  0  0  0  0  0
    4.7651  -12.6226  -31.5557 H   0  0  0  0  0  0  0  0  0  0  0  0
    4.9752  -14.3069  -31.2975 H   0  0  0  0  0  0  0  0  0  0  0  0
    2.4066  -13.0223  -28.7229 H   0  0  0  0  0  0  0  0  0  0  0  0
    3.6887  -11.9762  -29.3549 H   0  0  0  0  0  0  0  0  0  0  0  0
    3.1496  -15.4249  -28.0052 H   0  0  0  0  0  0  0  0  0  0  0  0
    4.8669  -16.5676  -26.6753 H   0  0  0  0  0  0  0  0  0  0  0  0
    7.0472  -15.4770  -26.3862 H   0  0  0  0  0  0  0  0  0  0  0  0
    7.4528  -13.3419  -27.4591 H   0  0  0  0  0  0  0  0  0  0  0  0
    1.4381  -13.9122  -33.2257 H   0  0  0  0  0  0  0  0  0  0  0  0
    2.0833  -15.4161  -32.7246 H   0  0  0  0  0  0  0  0  0  0  0  0
    4.5652  -10.4311  -32.5922 H   0  0  0  0  0  0  0  0  0  0  0  0
  1  2  1  0  0  0  0
  1 27  1  0  0  0  0
  1 28  1  0  0  0  0
  1 29  1  0  0  0  0
  2  3  1  0  0  0  0
  2 23  2  0  0  0  0
  3  4  1  0  0  0  0
  4  5  1  0  0  0  0
  4 22  2  0  0  0  0
  5  6  1  0  0  0  0
  5 30  1  0  0  0  0
  5 31  1  0  0  0  0
  6  7  1  0  0  0  0
  6 32  1  0  0  0  0
  7  8  2  0  0  0  0
  7  9  1  0  0  0  0
  9 10  1  0  0  0  0
  9 21  1  0  0  0  0
  9 33  1  6  0  0  0
 10 11  1  0  0  0  0
 10 34  1  0  0  0  0
 10 35  1  0  0  0  0
 11 12  1  0  0  0  0
 11 19  1  0  0  0  0
 12 13  1  0  0  0  0
 12 36  1  0  0  0  0
 12 37  1  0  0  0  0
 13 14  2  0  0  0  0
 13 18  1  0  0  0  0
 14 15  1  0  0  0  0
 14 38  1  0  0  0  0
 15 16  2  0  0  0  0
 15 39  1  0  0  0  0
 16 17  1  0  0  0  0
 16 40  1  0  0  0  0
 17 18  2  0  0  0  0
 17 41  1  0  0  0  0
 19 20  2  0  0  0  0
 19 21  1  0  0  0  0
 21 42  1  0  0  0  0
 21 43  1  0  0  0  0
 22 23  1  0  0  0  0
 22 44  1  0  0  0  0
 23 24  1  0  0  0  0
 24 25  1  0  0  0  0
 24 26  2  0  0  0  0
M  CHG  1  25  -1
M  END
$$$$
