HTS1710-05407639-01
 OpenBabel03232612353D

 41 42  0  0  0  0  0  0  0  0999 V2000
    6.7028   -7.1139  -34.0491 C   0  0  0  0  0  0  0  0  0  0  0  0
    5.7481   -8.2811  -34.0015 C   0  0  0  0  0  0  0  0  0  0  0  0
    5.3892   -8.8658  -35.1784 O   0  0  0  0  0  0  0  0  0  0  0  0
    4.5478   -9.8390  -34.7245 C   0  0  0  0  0  0  0  0  0  0  0  0
    3.9168  -10.7604  -35.7378 C   0  0  0  0  0  0  0  0  0  0  0  0
    4.3586   -9.8989  -33.3571 C   0  0  0  0  0  0  0  0  0  0  0  0
    5.1879   -8.8315  -32.8642 C   0  0  0  0  0  0  0  0  0  0  0  0
    5.3931   -8.4018  -31.4486 C   0  0  0  0  0  0  0  0  0  0  0  0
    5.8543   -7.2939  -31.2422 O   0  5  0  0  0  0  0  0  0  0  0  0
    5.0902   -9.1781  -30.5627 O   0  0  0  0  0  0  0  0  0  0  0  0
    3.2886  -11.0621  -32.4755 S   0  0  0  0  0  0  0  0  0  0  0  0
    2.7701  -12.0129  -33.4633 O   0  0  0  0  0  0  0  0  0  0  0  0
    2.4197  -10.3752  -31.5157 O   0  0  0  0  0  0  0  0  0  0  0  0
    4.3389  -12.0110  -31.5363 N   0  0  0  0  0  0  0  0  0  0  0  0
    3.8799  -13.3527  -31.1395 C   0  0  0  0  0  0  0  0  0  0  0  0
    2.9845  -13.2677  -29.8824 C   0  0  0  0  0  0  0  0  0  0  0  0
    3.7494  -12.7620  -28.6343 C   0  0  0  0  0  0  0  0  0  0  0  0
    4.7279  -13.7873  -28.1250 C   0  0  0  0  0  0  0  0  0  0  0  0
    6.0064  -13.4663  -27.6176 C   0  0  0  0  0  0  0  0  0  0  0  0
    6.6239  -14.5768  -27.2486 N   0  0  0  0  0  0  0  0  0  0  0  0
    5.7336  -15.5952  -27.5290 N   0  0  0  0  0  0  0  0  0  0  0  0
    6.0818  -16.9890  -27.2388 C   0  0  0  0  0  0  0  0  0  0  0  0
    4.5465  -15.1325  -28.0765 C   0  0  0  0  0  0  0  0  0  0  0  0
    6.9681   -6.9113  -35.0657 H   0  0  0  0  0  0  0  0  0  0  0  0
    7.5843   -7.3513  -33.4910 H   0  0  0  0  0  0  0  0  0  0  0  0
    6.2331   -6.2515  -33.6244 H   0  0  0  0  0  0  0  0  0  0  0  0
    4.2388  -10.4843  -36.7201 H   0  0  0  0  0  0  0  0  0  0  0  0
    2.8515  -10.6821  -35.6764 H   0  0  0  0  0  0  0  0  0  0  0  0
    4.2125  -11.7687  -35.5357 H   0  0  0  0  0  0  0  0  0  0  0  0
    4.5362  -11.4914  -30.6811 H   0  0  0  0  0  0  0  0  0  0  0  0
    4.7296  -13.9669  -30.9259 H   0  0  0  0  0  0  0  0  0  0  0  0
    3.3117  -13.7757  -31.9415 H   0  0  0  0  0  0  0  0  0  0  0  0
    2.5953  -14.2422  -29.6732 H   0  0  0  0  0  0  0  0  0  0  0  0
    2.2047  -12.5649  -30.0890 H   0  0  0  0  0  0  0  0  0  0  0  0
    3.0435  -12.5426  -27.8607 H   0  0  0  0  0  0  0  0  0  0  0  0
    4.2989  -11.8871  -28.9126 H   0  0  0  0  0  0  0  0  0  0  0  0
    6.3978  -12.5142  -27.5459 H   0  0  0  0  0  0  0  0  0  0  0  0
    7.0656  -17.0311  -26.8203 H   0  0  0  0  0  0  0  0  0  0  0  0
    6.0545  -17.5593  -28.1438 H   0  0  0  0  0  0  0  0  0  0  0  0
    5.3795  -17.3942  -26.5406 H   0  0  0  0  0  0  0  0  0  0  0  0
    3.7234  -15.6788  -28.3751 H   0  0  0  0  0  0  0  0  0  0  0  0
  1  2  1  0  0  0  0
  1 24  1  0  0  0  0
  1 25  1  0  0  0  0
  1 26  1  0  0  0  0
  2  3  1  0  0  0  0
  2  7  2  0  0  0  0
  3  4  1  0  0  0  0
  4  5  1  0  0  0  0
  4  6  2  0  0  0  0
  5 27  1  0  0  0  0
  5 28  1  0  0  0  0
  5 29  1  0  0  0  0
  6  7  1  0  0  0  0
  6 11  1  0  0  0  0
  7  8  1  0  0  0  0
  8  9  1  0  0  0  0
  8 10  2  0  0  0  0
 11 12  2  0  0  0  0
 11 13  2  0  0  0  0
 11 14  1  0  0  0  0
 14 15  1  0  0  0  0
 14 30  1  0  0  0  0
 15 16  1  0  0  0  0
 15 31  1  0  0  0  0
 15 32  1  0  0  0  0
 16 17  1  0  0  0  0
 16 33  1  0  0  0  0
 16 34  1  0  0  0  0
 17 18  1  0  0  0  0
 17 35  1  0  0  0  0
 17 36  1  0  0  0  0
 18 19  1  0  0  0  0
 18 23  2  0  0  0  0
 19 20  2  0  0  0  0
 19 37  1  0  0  0  0
 20 21  1  0  0  0  0
 21 22  1  0  0  0  0
 21 23  1  0  0  0  0
 22 38  1  0  0  0  0
 22 39  1  0  0  0  0
 22 40  1  0  0  0  0
 23 41  1  0  0  0  0
M  CHG  1   9  -1
M  END
$$$$
