HTS1710-04762552-01
 OpenBabel03232612353D

 44 47  0  0  1  0  0  0  0  0999 V2000
    3.3271   -9.1462  -38.1210 O   0  5  0  0  0  0  0  0  0  0  0  0
    3.9701   -9.4893  -37.1435 C   0  0  0  0  0  0  0  0  0  0  0  0
    4.8671   -8.8453  -36.6274 O   0  0  0  0  0  0  0  0  0  0  0  0
    3.6614  -10.8709  -36.5459 C   0  0  0  0  0  0  0  0  0  0  0  0
    2.5966  -10.8539  -35.4155 C   0  0  1  0  0  0  0  0  0  0  0  0
    2.9996   -9.9701  -34.2014 C   0  0  0  0  0  0  0  0  0  0  0  0
    1.8880   -9.5275  -33.2997 N   0  0  0  0  0  0  0  0  0  0  0  0
    0.4961   -9.6105  -33.8386 C   0  0  0  0  0  0  0  0  0  0  0  0
    0.2813  -10.5781  -35.0185 C   0  0  0  0  0  0  0  0  0  0  0  0
    1.3495  -10.3943  -35.9492 O   0  0  0  0  0  0  0  0  0  0  0  0
    2.0659   -8.7211  -32.1491 C   0  0  0  0  0  0  0  0  0  0  0  0
    1.1117   -8.1574  -31.6357 O   0  0  0  0  0  0  0  0  0  0  0  0
    3.4411   -8.5907  -31.5508 C   0  0  0  0  0  0  0  0  0  0  0  0
    4.2382   -7.4910  -31.6217 N   0  0  0  0  0  0  0  0  0  0  0  0
    5.4070   -7.8935  -31.1524 C   0  0  0  0  0  0  0  0  0  0  0  0
    5.5019   -9.2109  -30.7674 O   0  0  0  0  0  0  0  0  0  0  0  0
    4.2144   -9.5945  -31.0124 C   0  0  0  0  0  0  0  0  0  0  0  0
    3.7486  -10.9162  -30.5435 C   0  0  0  0  0  0  0  0  0  0  0  0
    4.0338  -12.0499  -31.3357 C   0  0  0  0  0  0  0  0  0  0  0  0
    3.6389  -13.3364  -30.9324 C   0  0  0  0  0  0  0  0  0  0  0  0
    2.9723  -13.5083  -29.7125 C   0  0  0  0  0  0  0  0  0  0  0  0
    2.5633  -14.7634  -29.3181 O   0  0  0  0  0  0  0  0  0  0  0  0
    1.6234  -14.8807  -28.2302 C   0  0  0  0  0  0  0  0  0  0  0  0
    2.0574  -13.9162  -27.1023 C   0  0  0  0  0  0  0  0  0  0  0  0
    2.1477  -12.5826  -27.6483 O   0  0  0  0  0  0  0  0  0  0  0  0
    2.7417  -12.4006  -28.8785 C   0  0  0  0  0  0  0  0  0  0  0  0
    3.1273  -11.1145  -29.2878 C   0  0  0  0  0  0  0  0  0  0  0  0
    4.5686  -11.2734  -36.1460 H   0  0  0  0  0  0  0  0  0  0  0  0
    3.2575  -11.4649  -37.3390 H   0  0  0  0  0  0  0  0  0  0  0  0
    2.5121  -11.8563  -35.0508 H   0  0  0  0  0  0  0  0  0  0  0  0
    3.4781   -9.0923  -34.5827 H   0  0  0  0  0  0  0  0  0  0  0  0
    3.6267  -10.5899  -33.5953 H   0  0  0  0  0  0  0  0  0  0  0  0
    0.2126   -8.6312  -34.1635 H   0  0  0  0  0  0  0  0  0  0  0  0
   -0.0990   -9.9977  -33.0380 H   0  0  0  0  0  0  0  0  0  0  0  0
   -0.6535  -10.3668  -35.4943 H   0  0  0  0  0  0  0  0  0  0  0  0
    0.2670  -11.5892  -34.6685 H   0  0  0  0  0  0  0  0  0  0  0  0
    6.2102   -7.2497  -31.0785 H   0  0  0  0  0  0  0  0  0  0  0  0
    4.5412  -11.9313  -32.2265 H   0  0  0  0  0  0  0  0  0  0  0  0
    3.8392  -14.1516  -31.5326 H   0  0  0  0  0  0  0  0  0  0  0  0
    1.6188  -15.8860  -27.8638 H   0  0  0  0  0  0  0  0  0  0  0  0
    0.6389  -14.6319  -28.5672 H   0  0  0  0  0  0  0  0  0  0  0  0
    3.0109  -14.2147  -26.7194 H   0  0  0  0  0  0  0  0  0  0  0  0
    1.3428  -13.9385  -26.3061 H   0  0  0  0  0  0  0  0  0  0  0  0
    2.9564  -10.3072  -28.6680 H   0  0  0  0  0  0  0  0  0  0  0  0
  1  2  1  0  0  0  0
  2  3  2  0  0  0  0
  2  4  1  0  0  0  0
  4  5  1  0  0  0  0
  4 28  1  0  0  0  0
  4 29  1  0  0  0  0
  5  6  1  0  0  0  0
  5 10  1  0  0  0  0
  5 30  1  1  0  0  0
  6  7  1  0  0  0  0
  6 31  1  0  0  0  0
  6 32  1  0  0  0  0
  7  8  1  0  0  0  0
  7 11  1  0  0  0  0
  8  9  1  0  0  0  0
  8 33  1  0  0  0  0
  8 34  1  0  0  0  0
  9 10  1  0  0  0  0
  9 35  1  0  0  0  0
  9 36  1  0  0  0  0
 11 12  2  0  0  0  0
 11 13  1  0  0  0  0
 13 14  1  0  0  0  0
 13 17  2  0  0  0  0
 14 15  2  0  0  0  0
 15 16  1  0  0  0  0
 15 37  1  0  0  0  0
 16 17  1  0  0  0  0
 17 18  1  0  0  0  0
 18 19  2  0  0  0  0
 18 27  1  0  0  0  0
 19 20  1  0  0  0  0
 19 38  1  0  0  0  0
 20 21  2  0  0  0  0
 20 39  1  0  0  0  0
 21 22  1  0  0  0  0
 21 26  1  0  0  0  0
 22 23  1  0  0  0  0
 23 24  1  0  0  0  0
 23 40  1  0  0  0  0
 23 41  1  0  0  0  0
 24 25  1  0  0  0  0
 24 42  1  0  0  0  0
 24 43  1  0  0  0  0
 25 26  1  0  0  0  0
 26 27  2  0  0  0  0
 27 44  1  0  0  0  0
M  CHG  1   1  -1
M  END
$$$$
