HTS1710-01935385-01
 OpenBabel03232612353D

 45 47  0  0  1  0  0  0  0  0999 V2000
    4.1801   -9.5977  -30.1766 C   0  0  0  0  0  0  0  0  0  0  0  0
    4.6464  -10.5437  -31.0715 C   0  0  0  0  0  0  0  0  0  0  0  0
    5.0978   -8.6529  -32.6564 C   0  0  0  0  0  0  0  0  0  0  0  0
    4.6274   -7.8207  -31.6775 C   0  0  0  0  0  0  0  0  0  0  0  0
    4.0437   -8.2740  -30.5211 O   0  0  0  0  0  0  0  0  0  0  0  0
    4.9436  -10.1653  -32.4947 C   0  0  2  0  0  0  0  0  0  0  0  0
    3.8015   -9.9807  -28.8094 C   0  0  0  0  0  0  0  0  0  0  0  0
    4.8119  -11.8818  -30.7705 O   0  0  0  0  0  0  0  0  0  0  0  0
    3.9912  -11.4036  -28.5347 C   0  0  0  0  0  0  0  0  0  0  0  0
    5.7655   -8.2387  -33.9599 C   0  0  0  0  0  0  0  0  0  0  0  0
    4.4757  -12.2683  -29.4915 C   0  0  0  0  0  0  0  0  0  0  0  0
    3.8567  -10.6962  -33.4279 C   0  0  0  0  0  0  0  0  0  0  0  0
    4.7035   -6.4500  -31.7661 N   0  0  0  0  0  0  0  0  0  0  0  0
    3.3737   -9.1956  -27.9804 O   0  0  0  0  0  0  0  0  0  0  0  0
    5.7266   -8.9341  -34.9642 O   0  0  0  0  0  0  0  0  0  0  0  0
    3.2380  -12.1431  -35.2748 N   0  0  0  0  0  0  0  0  0  0  0  0
    6.4124   -7.0335  -33.9183 O   0  0  0  0  0  0  0  0  0  0  0  0
    4.6549  -13.7270  -29.1610 C   0  0  0  0  0  0  0  0  0  0  0  0
    4.1598  -11.6445  -34.4252 C   0  0  0  0  0  0  0  0  0  0  0  0
    5.7423  -13.9169  -28.2611 O   0  0  0  0  0  0  0  0  0  0  0  0
    7.3218   -4.3795  -33.8104 O   0  0  0  0  0  0  0  0  0  0  0  0
    1.9663  -11.7109  -35.1589 C   0  0  0  0  0  0  0  0  0  0  0  0
    2.5260  -10.2524  -33.3150 C   0  0  0  0  0  0  0  0  0  0  0  0
    6.8402   -6.3773  -35.1321 C   0  0  0  0  0  0  0  0  0  0  0  0
    6.6376   -4.8462  -34.9896 C   0  0  0  0  0  0  0  0  0  0  0  0
    7.6257   -2.9726  -33.7857 C   0  0  0  0  0  0  0  0  0  0  0  0
    1.5650  -10.7697  -34.1968 C   0  0  0  0  0  0  0  0  0  0  0  0
    5.8770  -10.6155  -32.7611 H   0  0  0  0  0  0  0  0  0  0  0  0
    3.7559  -11.7704  -27.5992 H   0  0  0  0  0  0  0  0  0  0  0  0
    4.1804   -5.8872  -31.1505 H   0  0  0  0  0  0  0  0  0  0  0  0
    5.2810   -6.0319  -32.4450 H   0  0  0  0  0  0  0  0  0  0  0  0
    4.8487  -14.2689  -30.0631 H   0  0  0  0  0  0  0  0  0  0  0  0
    3.7603  -14.0831  -28.6944 H   0  0  0  0  0  0  0  0  0  0  0  0
    5.1342  -11.9736  -34.5098 H   0  0  0  0  0  0  0  0  0  0  0  0
    5.9918  -14.8541  -28.2487 H   0  0  0  0  0  0  0  0  0  0  0  0
    1.2563  -12.0883  -35.8058 H   0  0  0  0  0  0  0  0  0  0  0  0
    2.2620   -9.5596  -32.5973 H   0  0  0  0  0  0  0  0  0  0  0  0
    6.2613   -6.7387  -35.9563 H   0  0  0  0  0  0  0  0  0  0  0  0
    7.8752   -6.5861  -35.3053 H   0  0  0  0  0  0  0  0  0  0  0  0
    7.0345   -4.3520  -35.8516 H   0  0  0  0  0  0  0  0  0  0  0  0
    5.5929   -4.6307  -34.9048 H   0  0  0  0  0  0  0  0  0  0  0  0
    8.1301   -2.7327  -32.8731 H   0  0  0  0  0  0  0  0  0  0  0  0
    6.7176   -2.4104  -33.8498 H   0  0  0  0  0  0  0  0  0  0  0  0
    8.2553   -2.7292  -34.6160 H   0  0  0  0  0  0  0  0  0  0  0  0
    0.5809  -10.4641  -34.1394 H   0  0  0  0  0  0  0  0  0  0  0  0
  1  2  2  0  0  0  0
  1  5  1  0  0  0  0
  1  7  1  0  0  0  0
  2  6  1  0  0  0  0
  2  8  1  0  0  0  0
  3  4  2  0  0  0  0
  3  6  1  0  0  0  0
  3 10  1  0  0  0  0
  4  5  1  0  0  0  0
  4 13  1  0  0  0  0
  6 12  1  0  0  0  0
  6 28  1  6  0  0  0
  7  9  1  0  0  0  0
  7 14  2  0  0  0  0
  8 11  1  0  0  0  0
  9 11  2  0  0  0  0
  9 29  1  0  0  0  0
 10 15  2  0  0  0  0
 10 17  1  0  0  0  0
 11 18  1  0  0  0  0
 12 19  2  0  0  0  0
 12 23  1  0  0  0  0
 13 30  1  0  0  0  0
 13 31  1  0  0  0  0
 16 19  1  0  0  0  0
 16 22  2  0  0  0  0
 17 24  1  0  0  0  0
 18 20  1  0  0  0  0
 18 32  1  0  0  0  0
 18 33  1  0  0  0  0
 19 34  1  0  0  0  0
 20 35  1  0  0  0  0
 21 25  1  0  0  0  0
 21 26  1  0  0  0  0
 22 27  1  0  0  0  0
 22 36  1  0  0  0  0
 23 27  2  0  0  0  0
 23 37  1  0  0  0  0
 24 25  1  0  0  0  0
 24 38  1  0  0  0  0
 24 39  1  0  0  0  0
 25 40  1  0  0  0  0
 25 41  1  0  0  0  0
 26 42  1  0  0  0  0
 26 43  1  0  0  0  0
 26 44  1  0  0  0  0
 27 45  1  0  0  0  0
M  END
$$$$
