HTS1710-01057672-01
 OpenBabel03232612363D

 30 31  0  0  0  0  0  0  0  0999 V2000
    5.3700   -9.0033  -32.8768 C   0  0  0  0  0  0  0  0  0  0  0  0
    5.1703   -9.4201  -34.3152 C   0  0  0  0  0  0  0  0  0  0  0  0
    4.6080  -10.6854  -34.5281 N   0  0  0  0  0  0  0  0  0  0  0  0
    4.9957   -9.8325  -31.8096 C   0  0  0  0  0  0  0  0  0  0  0  0
    4.3646  -11.1253  -32.1302 C   0  0  0  0  0  0  0  0  0  0  0  0
    4.1655  -11.5344  -33.4639 C   0  0  0  0  0  0  0  0  0  0  0  0
    6.0012   -7.6481  -32.5961 C   0  0  0  0  0  0  0  0  0  0  0  0
    4.5050  -11.1669  -35.9349 C   0  0  0  0  0  0  0  0  0  0  0  0
    3.0684  -11.0358  -36.4934 C   0  0  0  0  0  0  0  0  0  0  0  0
    2.8238   -9.6536  -37.1028 C   0  0  0  0  0  0  0  0  0  0  0  0
    5.4743   -8.7108  -35.2625 O   0  0  0  0  0  0  0  0  0  0  0  0
    6.0774   -7.2578  -31.4437 O   0  5  0  0  0  0  0  0  0  0  0  0
    5.1498   -9.5354  -30.4991 O   0  5  0  0  0  0  0  0  0  0  0  0
    3.6358   -9.1090  -37.8289 O   0  0  0  0  0  0  0  0  0  0  0  0
    1.6493   -8.9880  -36.8132 N   0  0  0  0  0  0  0  0  0  0  0  0
    6.4154   -6.9834  -33.5286 O   0  0  0  0  0  0  0  0  0  0  0  0
    3.9378  -11.9768  -31.0791 C   0  0  0  0  0  0  0  0  0  0  0  0
    3.5224  -12.7750  -33.7159 C   0  0  0  0  0  0  0  0  0  0  0  0
    3.3174  -13.2022  -31.3451 C   0  0  0  0  0  0  0  0  0  0  0  0
    3.1058  -13.5997  -32.6655 C   0  0  0  0  0  0  0  0  0  0  0  0
    4.7954  -12.1963  -35.9690 H   0  0  0  0  0  0  0  0  0  0  0  0
    5.1485  -10.5607  -36.5376 H   0  0  0  0  0  0  0  0  0  0  0  0
    2.3709  -11.1925  -35.6973 H   0  0  0  0  0  0  0  0  0  0  0  0
    2.9411  -11.7679  -37.2634 H   0  0  0  0  0  0  0  0  0  0  0  0
    1.4798   -8.0981  -37.1989 H   0  0  0  0  0  0  0  0  0  0  0  0
    0.9814   -9.4031  -36.2210 H   0  0  0  0  0  0  0  0  0  0  0  0
    4.0877  -11.6870  -30.1001 H   0  0  0  0  0  0  0  0  0  0  0  0
    3.3596  -13.0733  -34.6904 H   0  0  0  0  0  0  0  0  0  0  0  0
    3.0173  -13.8101  -30.5670 H   0  0  0  0  0  0  0  0  0  0  0  0
    2.6430  -14.4999  -32.8668 H   0  0  0  0  0  0  0  0  0  0  0  0
  1  2  1  0  0  0  0
  1  4  2  0  0  0  0
  1  7  1  0  0  0  0
  2  3  1  0  0  0  0
  2 11  2  0  0  0  0
  3  8  1  0  0  0  0
  3  6  1  0  0  0  0
  4  5  1  0  0  0  0
  4 13  1  0  0  0  0
  5  6  2  0  0  0  0
  5 17  1  0  0  0  0
  6 18  1  0  0  0  0
  7 12  1  0  0  0  0
  7 16  2  0  0  0  0
  8  9  1  0  0  0  0
  8 21  1  0  0  0  0
  8 22  1  0  0  0  0
  9 10  1  0  0  0  0
  9 23  1  0  0  0  0
  9 24  1  0  0  0  0
 10 14  2  0  0  0  0
 10 15  1  0  0  0  0
 15 25  1  0  0  0  0
 15 26  1  0  0  0  0
 17 19  2  0  0  0  0
 17 27  1  0  0  0  0
 18 20  2  0  0  0  0
 18 28  1  0  0  0  0
 19 20  1  0  0  0  0
 19 29  1  0  0  0  0
 20 30  1  0  0  0  0
M  CHG  2  12  -1  13  -1
M  END
$$$$
