HTS1710-00769084-01
 OpenBabel03232612363D

 40 41  0  0  0  0  0  0  0  0999 V2000
    6.5679  -18.4696  -24.5189 C   0  0  0  0  0  0  0  0  0  0  0  0
    3.8765  -10.5806  -29.7069 C   0  0  0  0  0  0  0  0  0  0  0  0
    3.3625  -11.5634  -28.7231 C   0  0  0  0  0  0  0  0  0  0  0  0
    7.1053  -17.5302  -25.5328 C   0  0  0  0  0  0  0  0  0  0  0  0
    7.4250  -19.2521  -23.7608 C   0  0  0  0  0  0  0  0  0  0  0  0
    3.7970   -9.2209  -29.4460 C   0  0  0  0  0  0  0  0  0  0  0  0
    5.1487  -18.6103  -24.2776 C   0  0  0  0  0  0  0  0  0  0  0  0
    4.4762  -10.9856  -30.9585 C   0  0  0  0  0  0  0  0  0  0  0  0
    5.6626  -20.3222  -22.5213 C   0  0  0  0  0  0  0  0  0  0  0  0
    4.8403   -8.5689  -31.5147 C   0  0  0  0  0  0  0  0  0  0  0  0
    6.9775  -20.1319  -22.8106 O   0  0  0  0  0  0  0  0  0  0  0  0
    4.2612   -8.2727  -30.3195 O   0  0  0  0  0  0  0  0  0  0  0  0
    4.7369  -19.5051  -23.3150 C   0  0  0  0  0  0  0  0  0  0  0  0
    4.9313  -10.0047  -31.8104 C   0  0  0  0  0  0  0  0  0  0  0  0
    8.3033  -17.4101  -25.7350 O   0  0  0  0  0  0  0  0  0  0  0  0
    2.6270  -11.2384  -27.8049 O   0  0  0  0  0  0  0  0  0  0  0  0
    5.2900  -21.1108  -21.6697 O   0  0  0  0  0  0  0  0  0  0  0  0
    5.2470   -7.7073  -32.2738 O   0  0  0  0  0  0  0  0  0  0  0  0
    3.7304  -12.8969  -28.8475 N   0  0  0  0  0  0  0  0  0  0  0  0
    6.2194  -16.7601  -26.2744 N   0  0  0  0  0  0  0  0  0  0  0  0
    3.2618  -13.9275  -27.9122 C   0  0  0  0  0  0  0  0  0  0  0  0
    6.6748  -15.8098  -27.2941 C   0  0  0  0  0  0  0  0  0  0  0  0
    5.6854  -14.6284  -27.3866 C   0  0  0  0  0  0  0  0  0  0  0  0
    4.2755  -15.0919  -27.8281 C   0  0  0  0  0  0  0  0  0  0  0  0
    8.4414  -19.1686  -23.9186 H   0  0  0  0  0  0  0  0  0  0  0  0
    3.3713   -8.9108  -28.5585 H   0  0  0  0  0  0  0  0  0  0  0  0
    4.4629  -18.0548  -24.8126 H   0  0  0  0  0  0  0  0  0  0  0  0
    4.5610  -11.9838  -31.2067 H   0  0  0  0  0  0  0  0  0  0  0  0
    3.7244  -19.6064  -23.1428 H   0  0  0  0  0  0  0  0  0  0  0  0
    5.3591  -10.2935  -32.7041 H   0  0  0  0  0  0  0  0  0  0  0  0
    4.3250  -13.1598  -29.5868 H   0  0  0  0  0  0  0  0  0  0  0  0
    5.2534  -16.8552  -26.1102 H   0  0  0  0  0  0  0  0  0  0  0  0
    2.3196  -14.3058  -28.2500 H   0  0  0  0  0  0  0  0  0  0  0  0
    3.1599  -13.4897  -26.9412 H   0  0  0  0  0  0  0  0  0  0  0  0
    6.7278  -16.3039  -28.2418 H   0  0  0  0  0  0  0  0  0  0  0  0
    7.6424  -15.4402  -27.0258 H   0  0  0  0  0  0  0  0  0  0  0  0
    6.0562  -13.9211  -28.0988 H   0  0  0  0  0  0  0  0  0  0  0  0
    5.6016  -14.1881  -26.4150 H   0  0  0  0  0  0  0  0  0  0  0  0
    4.3522  -15.5490  -28.7925 H   0  0  0  0  0  0  0  0  0  0  0  0
    3.9165  -15.7794  -27.0909 H   0  0  0  0  0  0  0  0  0  0  0  0
  1  4  1  0  0  0  0
  1  5  2  0  0  0  0
  1  7  1  0  0  0  0
  2  3  1  0  0  0  0
  2  6  2  0  0  0  0
  2  8  1  0  0  0  0
  3 19  1  0  0  0  0
  3 16  2  0  0  0  0
  4 15  2  0  0  0  0
  4 20  1  0  0  0  0
  5 11  1  0  0  0  0
  5 25  1  0  0  0  0
  6 12  1  0  0  0  0
  6 26  1  0  0  0  0
  7 13  2  0  0  0  0
  7 27  1  0  0  0  0
  8 14  2  0  0  0  0
  8 28  1  0  0  0  0
  9 13  1  0  0  0  0
  9 17  2  0  0  0  0
  9 11  1  0  0  0  0
 10 14  1  0  0  0  0
 10 18  2  0  0  0  0
 10 12  1  0  0  0  0
 13 29  1  0  0  0  0
 14 30  1  0  0  0  0
 19 21  1  0  0  0  0
 19 31  1  0  0  0  0
 20 22  1  0  0  0  0
 20 32  1  0  0  0  0
 21 24  1  0  0  0  0
 21 33  1  0  0  0  0
 21 34  1  0  0  0  0
 22 23  1  0  0  0  0
 22 35  1  0  0  0  0
 22 36  1  0  0  0  0
 23 24  1  0  0  0  0
 23 37  1  0  0  0  0
 23 38  1  0  0  0  0
 24 39  1  0  0  0  0
 24 40  1  0  0  0  0
M  END
$$$$
