HTS1710-00805279-01
 OpenBabel03232612353D

 43 45  0  0  1  0  0  0  0  0999 V2000
    4.7254  -10.1920  -33.1465 S   0  0  0  0  0  0  0  0  0  0  0  0
    3.3150  -10.1731  -34.1598 N   0  0  0  0  0  0  0  0  0  0  0  0
    2.1384   -9.4321  -33.9200 C   0  0  0  0  0  0  0  0  0  0  0  0
    2.4813  -10.6202  -36.4752 C   0  0  1  0  0  0  0  0  0  0  0  0
    3.2887  -11.1602  -35.2717 C   0  0  0  0  0  0  0  0  0  0  0  0
    1.1755  -10.2343  -35.9974 O   0  0  0  0  0  0  0  0  0  0  0  0
    1.0639   -9.4950  -34.8406 C   0  0  0  0  0  0  0  0  0  0  0  0
    3.2063   -9.4420  -37.1664 C   0  0  0  0  0  0  0  0  0  0  0  0
    4.2512  -11.1320  -31.6861 C   0  0  0  0  0  0  0  0  0  0  0  0
    5.7620  -10.9234  -33.8840 O   0  0  0  0  0  0  0  0  0  0  0  0
    4.9574   -8.8133  -32.7011 O   0  0  0  0  0  0  0  0  0  0  0  0
    1.9772   -8.6318  -32.7662 C   0  0  0  0  0  0  0  0  0  0  0  0
    2.0205   -6.6247  -30.7423 C   0  0  0  0  0  0  0  0  0  0  0  0
    2.5615   -8.8098  -37.9856 O   0  5  0  0  0  0  0  0  0  0  0  0
    0.7873   -7.9186  -32.5346 C   0  0  0  0  0  0  0  0  0  0  0  0
   -0.1341   -8.8055  -34.5992 C   0  0  0  0  0  0  0  0  0  0  0  0
    2.6459   -5.8005  -31.3872 O   0  5  0  0  0  0  0  0  0  0  0  0
    4.1080  -12.5299  -31.7452 C   0  0  0  0  0  0  0  0  0  0  0  0
    4.0238  -10.4557  -30.4757 C   0  0  0  0  0  0  0  0  0  0  0  0
    0.6532   -7.0494  -31.2884 C   0  0  0  0  0  0  0  0  0  0  0  0
    4.3583   -9.2010  -36.8472 O   0  0  0  0  0  0  0  0  0  0  0  0
   -0.2715   -8.0162  -33.4506 C   0  0  0  0  0  0  0  0  0  0  0  0
    3.5106  -12.5761  -29.3823 C   0  0  0  0  0  0  0  0  0  0  0  0
    2.3866   -7.1318  -29.6968 O   0  0  0  0  0  0  0  0  0  0  0  0
    3.6547  -11.1721  -29.3252 C   0  0  0  0  0  0  0  0  0  0  0  0
    3.7371  -13.2460  -30.5963 C   0  0  0  0  0  0  0  0  0  0  0  0
    3.1545  -13.3269  -28.2797 O   0  0  0  0  0  0  0  0  0  0  0  0
    2.6549  -14.6715  -28.3764 C   0  0  0  0  0  0  0  0  0  0  0  0
    2.3848  -11.3836  -37.2186 H   0  0  0  0  0  0  0  0  0  0  0  0
    4.2919  -11.3605  -35.5852 H   0  0  0  0  0  0  0  0  0  0  0  0
    2.8189  -12.0553  -34.9209 H   0  0  0  0  0  0  0  0  0  0  0  0
    2.7466   -8.5695  -32.0813 H   0  0  0  0  0  0  0  0  0  0  0  0
   -0.9154   -8.8803  -35.2693 H   0  0  0  0  0  0  0  0  0  0  0  0
    4.2756  -13.0290  -32.6328 H   0  0  0  0  0  0  0  0  0  0  0  0
    4.1282   -9.4300  -30.4318 H   0  0  0  0  0  0  0  0  0  0  0  0
    0.0915   -6.1729  -31.5360 H   0  0  0  0  0  0  0  0  0  0  0  0
    0.1568   -7.6233  -30.5339 H   0  0  0  0  0  0  0  0  0  0  0  0
   -1.1518   -7.5061  -33.2776 H   0  0  0  0  0  0  0  0  0  0  0  0
    3.4887  -10.6723  -28.4377 H   0  0  0  0  0  0  0  0  0  0  0  0
    3.6300  -14.2713  -30.6437 H   0  0  0  0  0  0  0  0  0  0  0  0
    2.4483  -15.0466  -27.3958 H   0  0  0  0  0  0  0  0  0  0  0  0
    3.3883  -15.2914  -28.8483 H   0  0  0  0  0  0  0  0  0  0  0  0
    1.7562  -14.6771  -28.9571 H   0  0  0  0  0  0  0  0  0  0  0  0
  1  2  1  0  0  0  0
  1  9  1  0  0  0  0
  1 10  2  0  0  0  0
  1 11  2  0  0  0  0
  2  3  1  0  0  0  0
  2  5  1  0  0  0  0
  3  7  2  0  0  0  0
  3 12  1  0  0  0  0
  4  5  1  0  0  0  0
  4  6  1  0  0  0  0
  4  8  1  0  0  0  0
  4 29  1  6  0  0  0
  5 30  1  0  0  0  0
  5 31  1  0  0  0  0
  6  7  1  0  0  0  0
  7 16  1  0  0  0  0
  8 14  1  0  0  0  0
  8 21  2  0  0  0  0
  9 18  2  0  0  0  0
  9 19  1  0  0  0  0
 12 15  2  0  0  0  0
 12 32  1  0  0  0  0
 13 20  1  0  0  0  0
 13 17  1  0  0  0  0
 13 24  2  0  0  0  0
 15 20  1  0  0  0  0
 15 22  1  0  0  0  0
 16 22  2  0  0  0  0
 16 33  1  0  0  0  0
 18 26  1  0  0  0  0
 18 34  1  0  0  0  0
 19 25  2  0  0  0  0
 19 35  1  0  0  0  0
 20 36  1  0  0  0  0
 20 37  1  0  0  0  0
 22 38  1  0  0  0  0
 23 25  1  0  0  0  0
 23 27  1  0  0  0  0
 23 26  2  0  0  0  0
 25 39  1  0  0  0  0
 26 40  1  0  0  0  0
 27 28  1  0  0  0  0
 28 41  1  0  0  0  0
 28 42  1  0  0  0  0
 28 43  1  0  0  0  0
M  CHG  2  14  -1  17  -1
M  END
$$$$
