HTS1710-01355876-01
 OpenBabel03232612363D

 38 39  0  0  1  0  0  0  0  0999 V2000
    2.7401   -9.1128  -32.4910 C   0  0  0  0  0  0  0  0  0  0  0  0
    1.6812   -8.2448  -32.7649 C   0  0  0  0  0  0  0  0  0  0  0  0
    1.1441   -8.5709  -34.0281 N   0  0  0  0  0  0  0  0  0  0  0  0
    2.8432   -9.9899  -33.6283 C   0  0  0  0  0  0  0  0  0  0  0  0
    3.5494   -9.0475  -31.2176 C   0  0  2  0  0  0  0  0  0  0  0  0
    1.8779   -9.6329  -34.5187 C   0  0  0  0  0  0  0  0  0  0  0  0
    5.0406   -8.7780  -31.5130 C   0  0  0  0  0  0  0  0  0  0  0  0
    3.0968   -9.9699  -28.8647 C   0  0  0  0  0  0  0  0  0  0  0  0
    3.3157  -10.3151  -30.3450 C   0  0  0  0  0  0  0  0  0  0  0  0
    5.4170   -8.7980  -32.6732 O   0  5  0  0  0  0  0  0  0  0  0  0
    3.6272   -8.9557  -28.4456 O   0  5  0  0  0  0  0  0  0  0  0  0
    5.7550   -8.5575  -30.5507 O   0  0  0  0  0  0  0  0  0  0  0  0
    0.0273   -7.8975  -34.7032 C   0  0  0  0  0  0  0  0  0  0  0  0
    2.4317  -10.7467  -28.2014 O   0  0  0  0  0  0  0  0  0  0  0  0
    3.7276  -11.0449  -33.8889 C   0  0  0  0  0  0  0  0  0  0  0  0
    1.7106  -10.2913  -35.7453 C   0  0  0  0  0  0  0  0  0  0  0  0
   -1.0303   -7.3536  -33.7174 C   0  0  0  0  0  0  0  0  0  0  0  0
   -1.8323   -6.1791  -34.3220 C   0  0  0  0  0  0  0  0  0  0  0  0
    3.5894  -11.7329  -35.1119 C   0  0  0  0  0  0  0  0  0  0  0  0
    2.5864  -11.3578  -36.0364 C   0  0  0  0  0  0  0  0  0  0  0  0
   -2.3769   -6.5100  -35.7273 C   0  0  0  0  0  0  0  0  0  0  0  0
    1.3468   -7.4898  -32.1459 H   0  0  0  0  0  0  0  0  0  0  0  0
    3.2080   -8.2143  -30.6396 H   0  0  0  0  0  0  0  0  0  0  0  0
    2.4516  -10.8298  -30.7099 H   0  0  0  0  0  0  0  0  0  0  0  0
    4.1915  -10.9259  -30.4131 H   0  0  0  0  0  0  0  0  0  0  0  0
   -0.4460   -8.5966  -35.3605 H   0  0  0  0  0  0  0  0  0  0  0  0
    0.4307   -7.0614  -35.2354 H   0  0  0  0  0  0  0  0  0  0  0  0
    4.4565  -11.3098  -33.2080 H   0  0  0  0  0  0  0  0  0  0  0  0
    0.9744  -10.0063  -36.4100 H   0  0  0  0  0  0  0  0  0  0  0  0
   -0.5353   -7.0145  -32.8315 H   0  0  0  0  0  0  0  0  0  0  0  0
   -1.7162   -8.1448  -33.4974 H   0  0  0  0  0  0  0  0  0  0  0  0
   -1.1923   -5.3245  -34.3926 H   0  0  0  0  0  0  0  0  0  0  0  0
   -2.6678   -5.9869  -33.6818 H   0  0  0  0  0  0  0  0  0  0  0  0
    4.2244  -12.5155  -35.3342 H   0  0  0  0  0  0  0  0  0  0  0  0
    2.4950  -11.8676  -36.9290 H   0  0  0  0  0  0  0  0  0  0  0  0
   -1.5597   -6.7070  -36.3893 H   0  0  0  0  0  0  0  0  0  0  0  0
   -2.9420   -5.6793  -36.0956 H   0  0  0  0  0  0  0  0  0  0  0  0
   -3.0068   -7.3732  -35.6716 H   0  0  0  0  0  0  0  0  0  0  0  0
  1  2  2  0  0  0  0
  1  4  1  0  0  0  0
  1  5  1  0  0  0  0
  2  3  1  0  0  0  0
  2 22  1  0  0  0  0
  3 13  1  0  0  0  0
  3  6  1  0  0  0  0
  4  6  2  0  0  0  0
  4 15  1  0  0  0  0
  5  7  1  0  0  0  0
  5  9  1  0  0  0  0
  5 23  1  1  0  0  0
  6 16  1  0  0  0  0
  7 10  1  0  0  0  0
  7 12  2  0  0  0  0
  8  9  1  0  0  0  0
  8 11  1  0  0  0  0
  8 14  2  0  0  0  0
  9 24  1  0  0  0  0
  9 25  1  0  0  0  0
 13 17  1  0  0  0  0
 13 26  1  0  0  0  0
 13 27  1  0  0  0  0
 15 19  2  0  0  0  0
 15 28  1  0  0  0  0
 16 20  2  0  0  0  0
 16 29  1  0  0  0  0
 17 18  1  0  0  0  0
 17 30  1  0  0  0  0
 17 31  1  0  0  0  0
 18 21  1  0  0  0  0
 18 32  1  0  0  0  0
 18 33  1  0  0  0  0
 19 20  1  0  0  0  0
 19 34  1  0  0  0  0
 20 35  1  0  0  0  0
 21 36  1  0  0  0  0
 21 37  1  0  0  0  0
 21 38  1  0  0  0  0
M  CHG  2  10  -1  11  -1
M  END
$$$$
