HTS1710-00480767-01
 OpenBabel03232612363D

 35 36  0  0  1  0  0  0  0  0999 V2000
    2.5704   -9.7530  -31.6676 N   0  0  0  0  0  0  0  0  0  0  0  0
    3.4233   -8.9981  -30.7079 C   0  0  2  0  0  0  0  0  0  0  0  0
    1.7619   -9.1044  -32.5995 C   0  0  0  0  0  0  0  0  0  0  0  0
    2.5515  -11.1404  -31.7694 C   0  0  0  0  0  0  0  0  0  0  0  0
    4.9402   -9.1587  -31.0221 C   0  0  0  0  0  0  0  0  0  0  0  0
    3.0283   -9.3340  -29.2514 C   0  0  0  0  0  0  0  0  0  0  0  0
    1.0792  -10.0944  -33.4630 C   0  0  0  0  0  0  0  0  0  0  0  0
    1.6423   -7.8927  -32.6842 O   0  0  0  0  0  0  0  0  0  0  0  0
    1.4826  -11.7520  -33.0646 S   0  0  0  0  0  0  0  0  0  0  0  0
    3.4540  -12.2074  -30.8420 S   0  0  0  0  0  0  0  0  0  0  0  0
    5.4751   -8.0172  -31.8975 C   0  0  0  0  0  0  0  0  0  0  0  0
    1.9056   -9.7780  -29.0754 O   0  5  0  0  0  0  0  0  0  0  0  0
    3.8456   -9.1333  -28.3686 O   0  0  0  0  0  0  0  0  0  0  0  0
    0.2197   -9.6981  -34.4675 C   0  0  0  0  0  0  0  0  0  0  0  0
    5.6720   -6.9439  -31.3538 O   0  5  0  0  0  0  0  0  0  0  0  0
    5.6859   -8.2632  -33.0726 O   0  0  0  0  0  0  0  0  0  0  0  0
   -0.2862   -8.3966  -35.0057 C   0  0  0  0  0  0  0  0  0  0  0  0
    0.2180   -7.9504  -36.2436 C   0  0  0  0  0  0  0  0  0  0  0  0
   -1.2408   -7.5960  -34.3424 C   0  0  0  0  0  0  0  0  0  0  0  0
   -0.2148   -6.7399  -36.8055 C   0  0  0  0  0  0  0  0  0  0  0  0
   -1.6772   -6.3836  -34.9038 C   0  0  0  0  0  0  0  0  0  0  0  0
   -1.1634   -5.9491  -36.1416 C   0  0  0  0  0  0  0  0  0  0  0  0
   -1.5602   -4.7647  -36.7342 O   0  0  0  0  0  0  0  0  0  0  0  0
   -1.0150   -4.2930  -37.9787 C   0  0  0  0  0  0  0  0  0  0  0  0
    3.2387   -7.9511  -30.8294 H   0  0  0  0  0  0  0  0  0  0  0  0
    5.0895  -10.0856  -31.5354 H   0  0  0  0  0  0  0  0  0  0  0  0
    5.4719   -9.1376  -30.0938 H   0  0  0  0  0  0  0  0  0  0  0  0
   -0.1743  -10.5044  -34.9771 H   0  0  0  0  0  0  0  0  0  0  0  0
    0.9159   -8.5225  -36.7443 H   0  0  0  0  0  0  0  0  0  0  0  0
   -1.6227   -7.9044  -33.4346 H   0  0  0  0  0  0  0  0  0  0  0  0
    0.1673   -6.4298  -37.7127 H   0  0  0  0  0  0  0  0  0  0  0  0
   -2.3766   -5.8095  -34.4075 H   0  0  0  0  0  0  0  0  0  0  0  0
   -1.4719   -3.3608  -38.2377 H   0  0  0  0  0  0  0  0  0  0  0  0
   -1.2087   -5.0110  -38.7479 H   0  0  0  0  0  0  0  0  0  0  0  0
    0.0413   -4.1561  -37.8763 H   0  0  0  0  0  0  0  0  0  0  0  0
  1  2  1  0  0  0  0
  1  3  1  0  0  0  0
  1  4  1  0  0  0  0
  2  5  1  0  0  0  0
  2  6  1  0  0  0  0
  2 25  1  6  0  0  0
  3  7  1  0  0  0  0
  3  8  2  0  0  0  0
  4  9  1  0  0  0  0
  4 10  2  0  0  0  0
  5 11  1  0  0  0  0
  5 26  1  0  0  0  0
  5 27  1  0  0  0  0
  6 12  1  0  0  0  0
  6 13  2  0  0  0  0
  7 14  2  0  0  0  0
  7  9  1  0  0  0  0
 11 15  1  0  0  0  0
 11 16  2  0  0  0  0
 14 17  1  0  0  0  0
 14 28  1  0  0  0  0
 17 18  2  0  0  0  0
 17 19  1  0  0  0  0
 18 20  1  0  0  0  0
 18 29  1  0  0  0  0
 19 21  2  0  0  0  0
 19 30  1  0  0  0  0
 20 22  2  0  0  0  0
 20 31  1  0  0  0  0
 21 22  1  0  0  0  0
 21 32  1  0  0  0  0
 22 23  1  0  0  0  0
 23 24  1  0  0  0  0
 24 33  1  0  0  0  0
 24 34  1  0  0  0  0
 24 35  1  0  0  0  0
M  CHG  2  12  -1  15  -1
M  END
$$$$
