HTS1710-01238621-01
 OpenBabel03232612353D

 41 41  0  0  1  0  0  0  0  0999 V2000
    2.7278  -11.5695  -34.3342 P   0  0  1  0  0  0  0  0  0  0  0  0
    3.8798  -12.5482  -29.9454 C   0  0  0  0  0  0  0  0  0  0  0  0
    3.3863  -11.2554  -30.0564 N   0  0  0  0  0  0  0  0  0  0  0  0
    4.3443   -9.1189  -30.7429 C   0  0  0  0  0  0  0  0  0  0  0  0
    3.6317  -10.3947  -31.2240 C   0  0  2  0  0  0  0  0  0  0  0  0
    4.8105   -9.4723  -36.2992 C   0  0  0  0  0  0  0  0  0  0  0  0
    4.7970  -11.0100  -36.2097 C   0  0  0  0  0  0  0  0  0  0  0  0
    2.2954  -10.0904  -31.9574 C   0  0  0  0  0  0  0  0  0  0  0  0
    1.9079  -11.6246  -35.5733 O   0  0  0  0  0  0  0  0  0  0  0  0
    4.5671  -13.0299  -30.8317 O   0  0  0  0  0  0  0  0  0  0  0  0
    3.7636   -8.4101  -29.9367 O   0  5  0  0  0  0  0  0  0  0  0  0
    4.5196  -11.5691  -34.7879 C   0  0  0  0  0  0  0  0  0  0  0  0
    2.4731   -9.9476  -33.4886 C   0  0  0  0  0  0  0  0  0  0  0  0
    5.2243   -8.8373  -35.3442 O   0  5  0  0  0  0  0  0  0  0  0  0
    3.5480  -13.3315  -28.6764 C   0  0  0  0  0  0  0  0  0  0  0  0
    2.4427  -12.6807  -33.3868 O   0  0  0  0  0  1  0  0  0  0  0  0
    5.4522   -8.9002  -31.2021 O   0  0  0  0  0  0  0  0  0  0  0  0
    4.3982   -8.9864  -37.3382 O   0  0  0  0  0  0  0  0  0  0  0  0
    4.7881  -14.0303  -28.1337 C   0  0  0  0  0  0  0  0  0  0  0  0
    5.9097  -13.2835  -27.7274 C   0  0  0  0  0  0  0  0  0  0  0  0
    4.8271  -15.4358  -28.0535 C   0  0  0  0  0  0  0  0  0  0  0  0
    5.9746  -16.0854  -27.5716 C   0  0  0  0  0  0  0  0  0  0  0  0
    7.0561  -13.9344  -27.2429 C   0  0  0  0  0  0  0  0  0  0  0  0
    7.0890  -15.3356  -27.1655 C   0  0  0  0  0  0  0  0  0  0  0  0
    2.8448  -10.8965  -29.3166 H   0  0  0  0  0  0  0  0  0  0  0  0
    4.2624  -10.8872  -31.9343 H   0  0  0  0  0  0  0  0  0  0  0  0
    5.7512  -11.3721  -36.5310 H   0  0  0  0  0  0  0  0  0  0  0  0
    3.9923  -11.3443  -36.8307 H   0  0  0  0  0  0  0  0  0  0  0  0
    1.8944   -9.1760  -31.5726 H   0  0  0  0  0  0  0  0  0  0  0  0
    1.6365  -10.9155  -31.7840 H   0  0  0  0  0  0  0  0  0  0  0  0
    5.0488  -10.9680  -34.0782 H   0  0  0  0  0  0  0  0  0  0  0  0
    4.8471  -12.5877  -34.7801 H   0  0  0  0  0  0  0  0  0  0  0  0
    3.3235   -9.3264  -33.6775 H   0  0  0  0  0  0  0  0  0  0  0  0
    1.5736   -9.5190  -33.8786 H   0  0  0  0  0  0  0  0  0  0  0  0
    2.8021  -14.0647  -28.9014 H   0  0  0  0  0  0  0  0  0  0  0  0
    3.1869  -12.6487  -27.9360 H   0  0  0  0  0  0  0  0  0  0  0  0
    5.8896  -12.2534  -27.7857 H   0  0  0  0  0  0  0  0  0  0  0  0
    4.0090  -15.9904  -28.3502 H   0  0  0  0  0  0  0  0  0  0  0  0
    5.9986  -17.1157  -27.5159 H   0  0  0  0  0  0  0  0  0  0  0  0
    7.8749  -13.3821  -26.9435 H   0  0  0  0  0  0  0  0  0  0  0  0
    7.9318  -15.8137  -26.8104 H   0  0  0  0  0  0  0  0  0  0  0  0
  1  9  2  6  0  0  0
  1 12  1  0  0  0  0
  1 13  1  0  0  0  0
  1 16  1  0  0  0  0
  2  3  1  0  0  0  0
  2 10  2  0  0  0  0
  2 15  1  0  0  0  0
  3  5  1  0  0  0  0
  3 25  1  0  0  0  0
  4  5  1  0  0  0  0
  4 11  1  0  0  0  0
  4 17  2  0  0  0  0
  5  8  1  0  0  0  0
  5 26  1  6  0  0  0
  6  7  1  0  0  0  0
  6 14  1  0  0  0  0
  6 18  2  0  0  0  0
  7 12  1  0  0  0  0
  7 27  1  0  0  0  0
  7 28  1  0  0  0  0
  8 13  1  0  0  0  0
  8 29  1  0  0  0  0
  8 30  1  0  0  0  0
 12 31  1  0  0  0  0
 12 32  1  0  0  0  0
 13 33  1  0  0  0  0
 13 34  1  0  0  0  0
 15 19  1  0  0  0  0
 15 35  1  0  0  0  0
 15 36  1  0  0  0  0
 19 20  2  0  0  0  0
 19 21  1  0  0  0  0
 20 23  1  0  0  0  0
 20 37  1  0  0  0  0
 21 22  2  0  0  0  0
 21 38  1  0  0  0  0
 22 24  1  0  0  0  0
 22 39  1  0  0  0  0
 23 24  2  0  0  0  0
 23 40  1  0  0  0  0
 24 41  1  0  0  0  0
M  CHG  2  11  -1  14  -1
M  END
$$$$
