HTS1710-01235413-01
 OpenBabel03232612343D

 31 33  0  0  0  0  0  0  0  0999 V2000
    3.3584   -9.6950  -29.8653 C   0  0  0  0  0  0  0  0  0  0  0  0
    3.7953  -10.1898  -31.0964 C   0  0  0  0  0  0  0  0  0  0  0  0
    3.1089  -10.5506  -28.8105 O   0  0  0  0  0  0  0  0  0  0  0  0
    4.0494  -11.6419  -31.2933 C   0  0  0  0  0  0  0  0  0  0  0  0
    3.2643  -11.9152  -28.9285 C   0  0  0  0  0  0  0  0  0  0  0  0
    3.7190  -12.5044  -30.1192 C   0  0  0  0  0  0  0  0  0  0  0  0
    3.1162   -8.2452  -29.5728 C   0  0  0  0  0  0  0  0  0  0  0  0
    4.0616   -9.3096  -32.1260 O   0  0  0  0  0  0  0  0  0  0  0  0
    2.9613  -12.7180  -27.8155 C   0  0  0  0  0  0  0  0  0  0  0  0
    3.8658  -13.9056  -30.1872 C   0  0  0  0  0  0  0  0  0  0  0  0
    4.5147  -12.1249  -32.3134 O   0  0  0  0  0  0  0  0  0  0  0  0
    2.7541   -7.9635  -28.4417 O   0  5  0  0  0  0  0  0  0  0  0  0
    3.1090  -14.1127  -27.8865 C   0  0  0  0  0  0  0  0  0  0  0  0
    3.2831   -7.4159  -30.4498 O   0  0  0  0  0  0  0  0  0  0  0  0
    3.5613  -14.7058  -29.0752 C   0  0  0  0  0  0  0  0  0  0  0  0
    3.7569   -9.6578  -33.4245 C   0  0  0  0  0  0  0  0  0  0  0  0
    2.8151  -14.8888  -26.8032 O   0  0  0  0  0  0  0  0  0  0  0  0
    2.4984  -10.2008  -33.7527 C   0  0  0  0  0  0  0  0  0  0  0  0
    4.7058   -9.4244  -34.4323 C   0  0  0  0  0  0  0  0  0  0  0  0
    2.2073  -10.5321  -35.0866 C   0  0  0  0  0  0  0  0  0  0  0  0
    4.4117   -9.7569  -35.7651 C   0  0  0  0  0  0  0  0  0  0  0  0
    3.1640  -10.3135  -36.0917 C   0  0  0  0  0  0  0  0  0  0  0  0
    2.6286  -12.2806  -26.9420 H   0  0  0  0  0  0  0  0  0  0  0  0
    4.1989  -14.3449  -31.0596 H   0  0  0  0  0  0  0  0  0  0  0  0
    3.6701  -15.7306  -29.1316 H   0  0  0  0  0  0  0  0  0  0  0  0
    2.9312  -15.8175  -26.8469 H   0  0  0  0  0  0  0  0  0  0  0  0
    1.7929  -10.3545  -33.0155 H   0  0  0  0  0  0  0  0  0  0  0  0
    5.6197   -9.0084  -34.1940 H   0  0  0  0  0  0  0  0  0  0  0  0
    1.2892  -10.9366  -35.3284 H   0  0  0  0  0  0  0  0  0  0  0  0
    5.1126   -9.5922  -36.5045 H   0  0  0  0  0  0  0  0  0  0  0  0
    2.9502  -10.5619  -37.0703 H   0  0  0  0  0  0  0  0  0  0  0  0
  1  2  2  0  0  0  0
  1  3  1  0  0  0  0
  1  7  1  0  0  0  0
  2  4  1  0  0  0  0
  2  8  1  0  0  0  0
  3  5  1  0  0  0  0
  4 11  2  0  0  0  0
  4  6  1  0  0  0  0
  5  6  2  0  0  0  0
  5  9  1  0  0  0  0
  6 10  1  0  0  0  0
  7 12  1  0  0  0  0
  7 14  2  0  0  0  0
  8 16  1  0  0  0  0
  9 13  2  0  0  0  0
  9 23  1  0  0  0  0
 10 15  2  0  0  0  0
 10 24  1  0  0  0  0
 13 15  1  0  0  0  0
 13 17  1  0  0  0  0
 15 25  1  0  0  0  0
 16 18  2  0  0  0  0
 16 19  1  0  0  0  0
 17 26  1  0  0  0  0
 18 20  1  0  0  0  0
 18 27  1  0  0  0  0
 19 21  2  0  0  0  0
 19 28  1  0  0  0  0
 20 22  2  0  0  0  0
 20 29  1  0  0  0  0
 21 22  1  0  0  0  0
 21 30  1  0  0  0  0
 22 31  1  0  0  0  0
M  CHG  1  12  -1
M  END
$$$$
