HTS1710-01268417-01
 OpenBabel03232612353D

 52 53  0  0  1  0  0  0  0  0999 V2000
    2.7211   -8.1052  -32.1454 C   0  0  0  0  0  0  0  0  0  0  0  0
    2.7908   -9.0853  -33.2641 C   0  0  0  0  0  0  0  0  0  0  0  0
    1.7337   -9.0132  -34.1749 N   0  0  0  0  0  0  0  0  0  0  0  0
    1.7166   -7.1519  -32.0226 C   0  0  0  0  0  0  0  0  0  0  0  0
    0.6823   -7.1427  -33.0182 C   0  0  0  0  0  0  0  0  0  0  0  0
    0.7090   -8.0654  -34.0456 C   0  0  0  0  0  0  0  0  0  0  0  0
    3.8286   -8.1806  -31.0872 C   0  0  2  0  0  0  0  0  0  0  0  0
    1.7220   -9.9892  -35.3031 C   0  0  0  0  0  0  0  0  0  0  0  0
    3.6999   -9.8927  -33.3794 O   0  0  0  0  0  0  0  0  0  0  0  0
    5.2218   -7.8357  -31.6946 C   0  0  0  0  0  0  0  0  0  0  0  0
    3.7604   -9.5137  -30.3207 C   0  0  0  0  0  0  0  0  0  0  0  0
    2.4830   -9.4301  -36.5135 C   0  0  0  0  0  0  0  0  0  0  0  0
    5.3457   -6.3477  -32.0445 C   0  0  0  0  0  0  0  0  0  0  0  0
    1.8178   -9.0012  -37.4397 O   0  5  0  0  0  0  0  0  0  0  0  0
    4.8770   -5.4528  -31.3601 O   0  0  0  0  0  0  0  0  0  0  0  0
    1.6561   -6.2357  -31.0334 O   0  5  0  0  0  0  0  0  0  0  0  0
    2.8048   -9.6441  -29.2939 C   0  0  0  0  0  0  0  0  0  0  0  0
    4.5901  -10.6184  -30.6166 C   0  0  0  0  0  0  0  0  0  0  0  0
    3.3814  -13.1639  -28.2420 O   0  0  0  0  0  0  0  0  0  0  0  0
    3.4824  -11.9504  -28.8999 C   0  0  0  0  0  0  0  0  0  0  0  0
    3.7010   -9.4467  -36.4681 O   0  0  0  0  0  0  0  0  0  0  0  0
    2.6616  -10.8478  -28.5874 C   0  0  0  0  0  0  0  0  0  0  0  0
    4.4513  -11.8221  -29.9074 C   0  0  0  0  0  0  0  0  0  0  0  0
    6.0542   -6.1567  -33.1989 O   0  0  0  0  0  0  0  0  0  0  0  0
   -0.4289   -8.0048  -35.0494 C   0  0  0  0  0  0  0  0  0  0  0  0
    3.5142  -14.4508  -28.8832 C   0  0  0  0  0  0  0  0  0  0  0  0
    6.3721   -4.8189  -33.6180 C   0  0  0  0  0  0  0  0  0  0  0  0
    2.1055  -15.0806  -28.9462 C   0  0  0  0  0  0  0  0  0  0  0  0
    4.4909  -15.3280  -28.0600 C   0  0  0  0  0  0  0  0  0  0  0  0
   -0.0794   -6.4484  -32.9663 H   0  0  0  0  0  0  0  0  0  0  0  0
    3.6666   -7.4240  -30.3483 H   0  0  0  0  0  0  0  0  0  0  0  0
    0.7093  -10.1868  -35.5859 H   0  0  0  0  0  0  0  0  0  0  0  0
    2.2012  -10.8906  -34.9825 H   0  0  0  0  0  0  0  0  0  0  0  0
    5.3625   -8.4125  -32.5848 H   0  0  0  0  0  0  0  0  0  0  0  0
    5.9669   -8.0653  -30.9618 H   0  0  0  0  0  0  0  0  0  0  0  0
    2.2005   -8.8416  -29.0576 H   0  0  0  0  0  0  0  0  0  0  0  0
    5.3028  -10.5400  -31.3589 H   0  0  0  0  0  0  0  0  0  0  0  0
    1.9555  -10.9259  -27.8388 H   0  0  0  0  0  0  0  0  0  0  0  0
    5.0672  -12.6200  -30.1289 H   0  0  0  0  0  0  0  0  0  0  0  0
   -1.1030   -7.2196  -34.7775 H   0  0  0  0  0  0  0  0  0  0  0  0
   -0.9516   -8.9383  -35.0528 H   0  0  0  0  0  0  0  0  0  0  0  0
   -0.0339   -7.8136  -36.0253 H   0  0  0  0  0  0  0  0  0  0  0  0
    3.9102  -14.3633  -29.8734 H   0  0  0  0  0  0  0  0  0  0  0  0
    6.9249   -4.8539  -34.5334 H   0  0  0  0  0  0  0  0  0  0  0  0
    6.9607   -4.3394  -32.8639 H   0  0  0  0  0  0  0  0  0  0  0  0
    5.4674   -4.2678  -33.7685 H   0  0  0  0  0  0  0  0  0  0  0  0
    1.7093  -15.1681  -27.9561 H   0  0  0  0  0  0  0  0  0  0  0  0
    2.1683  -16.0511  -29.3924 H   0  0  0  0  0  0  0  0  0  0  0  0
    1.4628  -14.4588  -29.5338 H   0  0  0  0  0  0  0  0  0  0  0  0
    4.1203  -15.4339  -27.0618 H   0  0  0  0  0  0  0  0  0  0  0  0
    5.4541  -14.8625  -28.0355 H   0  0  0  0  0  0  0  0  0  0  0  0
    4.5728  -16.2933  -28.5144 H   0  0  0  0  0  0  0  0  0  0  0  0
  1  2  1  0  0  0  0
  1  4  2  0  0  0  0
  1  7  1  0  0  0  0
  2  3  1  0  0  0  0
  2  9  2  0  0  0  0
  3  8  1  0  0  0  0
  3  6  1  0  0  0  0
  4  5  1  0  0  0  0
  4 16  1  0  0  0  0
  5  6  2  0  0  0  0
  5 30  1  0  0  0  0
  6 25  1  0  0  0  0
  7 10  1  0  0  0  0
  7 11  1  0  0  0  0
  7 31  1  1  0  0  0
  8 12  1  0  0  0  0
  8 32  1  0  0  0  0
  8 33  1  0  0  0  0
 10 13  1  0  0  0  0
 10 34  1  0  0  0  0
 10 35  1  0  0  0  0
 11 17  2  0  0  0  0
 11 18  1  0  0  0  0
 12 14  1  0  0  0  0
 12 21  2  0  0  0  0
 13 15  2  0  0  0  0
 13 24  1  0  0  0  0
 17 22  1  0  0  0  0
 17 36  1  0  0  0  0
 18 23  2  0  0  0  0
 18 37  1  0  0  0  0
 19 20  1  0  0  0  0
 19 26  1  0  0  0  0
 20 23  1  0  0  0  0
 20 22  2  0  0  0  0
 22 38  1  0  0  0  0
 23 39  1  0  0  0  0
 24 27  1  0  0  0  0
 25 40  1  0  0  0  0
 25 41  1  0  0  0  0
 25 42  1  0  0  0  0
 26 28  1  0  0  0  0
 26 29  1  0  0  0  0
 26 43  1  0  0  0  0
 27 44  1  0  0  0  0
 27 45  1  0  0  0  0
 27 46  1  0  0  0  0
 28 47  1  0  0  0  0
 28 48  1  0  0  0  0
 28 49  1  0  0  0  0
 29 50  1  0  0  0  0
 29 51  1  0  0  0  0
 29 52  1  0  0  0  0
M  CHG  2  14  -1  16  -1
M  END
$$$$
