HTS1710-00285909-01
 OpenBabel03232612363D

 50 52  0  0  1  0  0  0  0  0999 V2000
    3.0200  -10.1724  -30.8788 N   0  0  0  0  0  0  0  0  0  0  0  0
    3.0519   -9.8691  -29.5104 C   0  0  0  0  0  0  0  0  0  0  0  0
    0.4973   -7.8807  -33.0237 C   0  0  0  0  0  0  0  0  0  0  0  0
   -0.0279   -7.1108  -34.2013 C   0  0  0  0  0  0  0  0  0  0  0  0
    0.3963   -7.3909  -31.8271 N   0  0  0  0  0  0  0  0  0  0  0  0
    3.3841  -11.0534  -28.5473 C   0  0  0  0  0  0  0  0  0  0  0  0
    2.5895   -9.3579  -33.2607 C   0  0  2  0  0  0  0  0  0  0  0  0
    3.1964   -9.0714  -31.8620 C   0  0  0  0  0  0  0  0  0  0  0  0
   -0.8506   -5.9894  -33.9670 C   0  0  0  0  0  0  0  0  0  0  0  0
    1.0251   -9.3042  -33.2226 C   0  0  0  0  0  0  0  0  0  0  0  0
    3.1683  -10.7005  -33.7961 C   0  0  2  0  0  0  0  0  0  0  0  0
    3.1958   -9.9580  -36.2582 C   0  0  0  0  0  0  0  0  0  0  0  0
    0.2528   -7.4816  -35.5332 C   0  0  0  0  0  0  0  0  0  0  0  0
    3.2908  -11.5539  -31.3670 C   0  0  0  0  0  0  0  0  0  0  0  0
    2.7260  -11.0219  -35.2553 C   0  0  0  0  0  0  0  0  0  0  0  0
    2.8364   -8.7555  -29.0576 O   0  0  0  0  0  0  0  0  0  0  0  0
   -1.3798   -5.2502  -35.0409 C   0  0  0  0  0  0  0  0  0  0  0  0
    2.4419  -11.5678  -27.9696 O   0  5  0  0  0  0  0  0  0  0  0  0
    2.8286  -11.8485  -32.8168 C   0  0  0  0  0  0  0  0  0  0  0  0
    4.2675   -9.4196  -36.0412 O   0  5  0  0  0  0  0  0  0  0  0  0
   -1.0852   -5.6232  -36.3690 C   0  0  0  0  0  0  0  0  0  0  0  0
   -0.0532   -6.0058  -31.5720 C   0  0  0  0  0  0  0  0  0  0  0  0
    4.5591  -11.3606  -28.4465 O   0  0  0  0  0  0  0  0  0  0  0  0
   -0.2686   -6.7399  -36.6047 C   0  0  0  0  0  0  0  0  0  0  0  0
    2.4747   -9.7385  -37.2160 O   0  0  0  0  0  0  0  0  0  0  0  0
   -1.1963   -5.6212  -32.5340 C   0  0  0  0  0  0  0  0  0  0  0  0
   -1.5773   -4.9304  -37.4578 O   0  0  0  0  0  0  0  0  0  0  0  0
   -2.4942   -3.8294  -37.3363 C   0  0  0  0  0  0  0  0  0  0  0  0
    2.8705   -8.5923  -33.9534 H   0  0  0  0  0  0  0  0  0  0  0  0
    2.7293   -8.1930  -31.4681 H   0  0  0  0  0  0  0  0  0  0  0  0
    4.2504   -8.9551  -32.0045 H   0  0  0  0  0  0  0  0  0  0  0  0
    0.6451   -9.6861  -34.1471 H   0  0  0  0  0  0  0  0  0  0  0  0
    0.6975   -9.8940  -32.3922 H   0  0  0  0  0  0  0  0  0  0  0  0
    4.2320  -10.5957  -33.8454 H   0  0  0  0  0  0  0  0  0  0  0  0
    0.8461   -8.3047  -35.7213 H   0  0  0  0  0  0  0  0  0  0  0  0
    2.7898  -12.2387  -30.7150 H   0  0  0  0  0  0  0  0  0  0  0  0
    4.3552  -11.6629  -31.3687 H   0  0  0  0  0  0  0  0  0  0  0  0
    3.1390  -11.9673  -35.5390 H   0  0  0  0  0  0  0  0  0  0  0  0
    1.6564  -11.0388  -35.2754 H   0  0  0  0  0  0  0  0  0  0  0  0
   -1.9842   -4.4343  -34.8567 H   0  0  0  0  0  0  0  0  0  0  0  0
    3.3113  -12.7414  -33.1553 H   0  0  0  0  0  0  0  0  0  0  0  0
    1.7641  -11.9560  -32.8013 H   0  0  0  0  0  0  0  0  0  0  0  0
    0.7690   -5.3366  -31.7172 H   0  0  0  0  0  0  0  0  0  0  0  0
   -0.4112   -5.9386  -30.5659 H   0  0  0  0  0  0  0  0  0  0  0  0
   -0.0496   -7.0181  -37.5740 H   0  0  0  0  0  0  0  0  0  0  0  0
   -1.3632   -4.5659  -32.4746 H   0  0  0  0  0  0  0  0  0  0  0  0
   -2.0770   -6.1573  -32.2477 H   0  0  0  0  0  0  0  0  0  0  0  0
   -2.7325   -3.4546  -38.3098 H   0  0  0  0  0  0  0  0  0  0  0  0
   -2.0433   -3.0522  -36.7554 H   0  0  0  0  0  0  0  0  0  0  0  0
   -3.3891   -4.1622  -36.8534 H   0  0  0  0  0  0  0  0  0  0  0  0
  1  2  1  0  0  0  0
  1  8  1  0  0  0  0
  1 14  1  0  0  0  0
  2  6  1  0  0  0  0
  2 16  2  0  0  0  0
  3 10  1  0  0  0  0
  3  4  1  0  0  0  0
  3  5  2  0  0  0  0
  4  9  2  0  0  0  0
  4 13  1  0  0  0  0
  5 22  1  0  0  0  0
  6 18  1  0  0  0  0
  6 23  2  0  0  0  0
  7  8  1  0  0  0  0
  7 10  1  0  0  0  0
  7 11  1  0  0  0  0
  7 29  1  6  0  0  0
  8 30  1  0  0  0  0
  8 31  1  0  0  0  0
  9 17  1  0  0  0  0
  9 26  1  0  0  0  0
 10 32  1  0  0  0  0
 10 33  1  0  0  0  0
 11 19  1  0  0  0  0
 11 15  1  0  0  0  0
 11 34  1  6  0  0  0
 12 15  1  0  0  0  0
 12 20  1  0  0  0  0
 12 25  2  0  0  0  0
 13 24  2  0  0  0  0
 13 35  1  0  0  0  0
 14 19  1  0  0  0  0
 14 36  1  0  0  0  0
 14 37  1  0  0  0  0
 15 38  1  0  0  0  0
 15 39  1  0  0  0  0
 17 21  2  0  0  0  0
 17 40  1  0  0  0  0
 19 41  1  0  0  0  0
 19 42  1  0  0  0  0
 21 24  1  0  0  0  0
 21 27  1  0  0  0  0
 22 26  1  0  0  0  0
 22 43  1  0  0  0  0
 22 44  1  0  0  0  0
 24 45  1  0  0  0  0
 26 46  1  0  0  0  0
 26 47  1  0  0  0  0
 27 28  1  0  0  0  0
 28 48  1  0  0  0  0
 28 49  1  0  0  0  0
 28 50  1  0  0  0  0
M  CHG  2  18  -1  20  -1
M  END
$$$$
