HTS1710-00277847-01
 OpenBabel03232612353D

 38 40  0  0  1  0  0  0  0  0999 V2000
    2.9276  -11.8014  -32.4177 C   0  0  0  0  0  0  0  0  0  0  0  0
    3.6755  -10.9950  -31.3318 C   0  0  1  0  0  0  0  0  0  0  0  0
    4.4709  -11.8898  -30.4817 N   0  0  0  0  0  0  0  0  0  0  0  0
    3.9487  -12.5553  -29.3815 C   0  0  0  0  0  0  0  0  0  0  0  0
    2.7740  -12.4086  -29.0879 O   0  0  0  0  0  0  0  0  0  0  0  0
    4.8488  -13.4287  -28.6035 C   0  0  0  0  0  0  0  0  0  0  0  0
    5.9727  -13.0140  -28.0117 N   0  0  0  0  0  0  0  0  0  0  0  0
    6.5609  -14.1677  -27.3752 O   0  0  0  0  0  0  0  0  0  0  0  0
    5.7191  -15.1916  -27.6486 C   0  0  0  0  0  0  0  0  0  0  0  0
    5.9996  -16.5834  -27.1535 C   0  0  0  0  0  0  0  0  0  0  0  0
    4.6532  -14.8203  -28.3905 C   0  0  0  0  0  0  0  0  0  0  0  0
    4.5060   -9.8638  -31.9128 C   0  0  0  0  0  0  0  0  0  0  0  0
    4.3573   -8.5085  -31.7559 C   0  0  0  0  0  0  0  0  0  0  0  0
    3.2994   -7.7623  -31.0050 C   0  0  0  0  0  0  0  0  0  0  0  0
    2.6759   -6.9022  -31.5993 O   0  5  0  0  0  0  0  0  0  0  0  0
    3.0819   -8.0662  -29.8470 O   0  0  0  0  0  0  0  0  0  0  0  0
    5.4154   -8.0008  -32.5979 C   0  0  0  0  0  0  0  0  0  0  0  0
    6.0353   -8.9719  -33.2624 N   0  0  0  0  0  0  0  0  0  0  0  0
    5.4703  -10.1982  -32.8064 O   0  0  0  0  0  0  0  0  0  0  0  0
    5.8120   -6.5791  -32.6256 C   0  0  0  0  0  0  0  0  0  0  0  0
    5.4581   -5.6583  -31.6157 C   0  0  0  0  0  0  0  0  0  0  0  0
    5.9337   -4.3409  -31.6920 C   0  0  0  0  0  0  0  0  0  0  0  0
    6.7737   -3.9857  -32.7589 C   0  0  0  0  0  0  0  0  0  0  0  0
    7.1619   -4.8638  -33.7031 N   0  0  0  0  0  0  0  0  0  0  0  0
    6.7024   -6.1293  -33.6246 C   0  0  0  0  0  0  0  0  0  0  0  0
    2.3607  -12.5821  -31.9552 H   0  0  0  0  0  0  0  0  0  0  0  0
    3.6361  -12.2289  -33.0961 H   0  0  0  0  0  0  0  0  0  0  0  0
    2.2680  -11.1513  -32.9538 H   0  0  0  0  0  0  0  0  0  0  0  0
    2.9386  -10.5242  -30.7151 H   0  0  0  0  0  0  0  0  0  0  0  0
    5.4208  -12.0241  -30.7029 H   0  0  0  0  0  0  0  0  0  0  0  0
    6.9107  -16.5855  -26.5925 H   0  0  0  0  0  0  0  0  0  0  0  0
    6.0930  -17.2467  -27.9879 H   0  0  0  0  0  0  0  0  0  0  0  0
    5.1947  -16.9085  -26.5279 H   0  0  0  0  0  0  0  0  0  0  0  0
    3.8760  -15.4108  -28.7255 H   0  0  0  0  0  0  0  0  0  0  0  0
    4.8562   -5.9511  -30.8303 H   0  0  0  0  0  0  0  0  0  0  0  0
    5.6708   -3.6453  -30.9764 H   0  0  0  0  0  0  0  0  0  0  0  0
    7.1076   -3.0113  -32.8225 H   0  0  0  0  0  0  0  0  0  0  0  0
    7.0196   -6.8073  -34.3351 H   0  0  0  0  0  0  0  0  0  0  0  0
  1  2  1  0  0  0  0
  1 26  1  0  0  0  0
  1 27  1  0  0  0  0
  1 28  1  0  0  0  0
  2  3  1  0  0  0  0
  2 12  1  0  0  0  0
  2 29  1  1  0  0  0
  3  4  1  0  0  0  0
  3 30  1  0  0  0  0
  4  5  2  0  0  0  0
  4  6  1  0  0  0  0
  6  7  2  0  0  0  0
  6 11  1  0  0  0  0
  7  8  1  0  0  0  0
  8  9  1  0  0  0  0
  9 10  1  0  0  0  0
  9 11  2  0  0  0  0
 10 31  1  0  0  0  0
 10 32  1  0  0  0  0
 10 33  1  0  0  0  0
 11 34  1  0  0  0  0
 12 13  2  0  0  0  0
 12 19  1  0  0  0  0
 13 14  1  0  0  0  0
 13 17  1  0  0  0  0
 14 15  1  0  0  0  0
 14 16  2  0  0  0  0
 17 18  2  0  0  0  0
 17 20  1  0  0  0  0
 18 19  1  0  0  0  0
 20 21  2  0  0  0  0
 20 25  1  0  0  0  0
 21 22  1  0  0  0  0
 21 35  1  0  0  0  0
 22 23  2  0  0  0  0
 22 36  1  0  0  0  0
 23 24  1  0  0  0  0
 23 37  1  0  0  0  0
 24 25  2  0  0  0  0
 25 38  1  0  0  0  0
M  CHG  1  15  -1
M  END
$$$$
