HTS1710-00183088-01
 OpenBabel03232612343D

 26 26  0  0  0  0  0  0  0  0999 V2000
    4.0399  -11.1279  -33.2962 S   0  0  0  0  0  0  0  0  0  0  0  0
    3.1056   -9.6202  -32.9035 C   0  0  0  0  0  0  0  0  0  0  0  0
    3.5387   -8.6915  -31.9252 C   0  0  0  0  0  0  0  0  0  0  0  0
    3.6754  -11.4237  -34.9311 N   0  0  0  0  0  0  0  0  0  0  0  0
    1.8982   -9.3834  -33.5918 C   0  0  0  0  0  0  0  0  0  0  0  0
    4.8158   -8.8546  -31.1590 C   0  0  0  0  0  0  0  0  0  0  0  0
    1.1060   -8.2486  -33.3160 C   0  0  0  0  0  0  0  0  0  0  0  0
   -0.1959   -8.0128  -34.0542 C   0  0  0  0  0  0  0  0  0  0  0  0
    2.7496   -7.5615  -31.6493 C   0  0  0  0  0  0  0  0  0  0  0  0
    4.6841  -11.0296  -35.9281 C   0  0  0  0  0  0  0  0  0  0  0  0
    5.4738  -10.8200  -33.3057 O   0  0  0  0  0  0  0  0  0  0  0  0
    3.4787  -12.2642  -32.5574 O   0  0  0  0  0  0  0  0  0  0  0  0
    4.6314   -9.5231  -36.1973 C   0  0  0  0  0  0  0  0  0  0  0  0
    1.5474   -7.3408  -32.3334 C   0  0  0  0  0  0  0  0  0  0  0  0
    4.8749   -9.7759  -30.3643 O   0  5  0  0  0  0  0  0  0  0  0  0
   -0.6557   -8.9397  -34.6988 O   0  5  0  0  0  0  0  0  0  0  0  0
    3.9461   -9.1448  -37.1323 O   0  5  0  0  0  0  0  0  0  0  0  0
    5.7112   -8.0644  -31.4046 O   0  0  0  0  0  0  0  0  0  0  0  0
   -0.7068   -6.9094  -33.9601 O   0  0  0  0  0  0  0  0  0  0  0  0
    5.2802   -8.8027  -35.4590 O   0  0  0  0  0  0  0  0  0  0  0  0
    2.8154  -10.9205  -35.1495 H   0  0  0  0  0  0  0  0  0  0  0  0
    1.5873  -10.0538  -34.3121 H   0  0  0  0  0  0  0  0  0  0  0  0
    3.0598   -6.8859  -30.9336 H   0  0  0  0  0  0  0  0  0  0  0  0
    4.4970  -11.5549  -36.8414 H   0  0  0  0  0  0  0  0  0  0  0  0
    5.6535  -11.2738  -35.5466 H   0  0  0  0  0  0  0  0  0  0  0  0
    0.9805   -6.5063  -32.1159 H   0  0  0  0  0  0  0  0  0  0  0  0
  1  2  1  0  0  0  0
  1  4  1  0  0  0  0
  1 11  2  0  0  0  0
  1 12  2  0  0  0  0
  2  3  2  0  0  0  0
  2  5  1  0  0  0  0
  3  6  1  0  0  0  0
  3  9  1  0  0  0  0
  4 10  1  0  0  0  0
  4 21  1  0  0  0  0
  5  7  2  0  0  0  0
  5 22  1  0  0  0  0
  6 15  1  0  0  0  0
  6 18  2  0  0  0  0
  7  8  1  0  0  0  0
  7 14  1  0  0  0  0
  8 16  1  0  0  0  0
  8 19  2  0  0  0  0
  9 14  2  0  0  0  0
  9 23  1  0  0  0  0
 10 13  1  0  0  0  0
 10 24  1  0  0  0  0
 10 25  1  0  0  0  0
 13 17  1  0  0  0  0
 13 20  2  0  0  0  0
 14 26  1  0  0  0  0
M  CHG  3  15  -1  16  -1  17  -1
M  END
$$$$
