HTS1710-00162365-01
 OpenBabel03232612353D

 25 26  0  0  0  0  0  0  0  0999 V2000
    2.7696   -9.1100  -31.9453 C   0  0  0  0  0  0  0  0  0  0  0  0
    2.8919   -8.7799  -30.5809 C   0  0  0  0  0  0  0  0  0  0  0  0
    1.8723   -7.8602  -30.2486 N   0  0  0  0  0  0  0  0  0  0  0  0
    1.6353   -8.3517  -32.4240 C   0  0  0  0  0  0  0  0  0  0  0  0
    1.1436   -7.6293  -31.3867 C   0  0  0  0  0  0  0  0  0  0  0  0
    3.8787   -9.2414  -29.5653 C   0  0  0  0  0  0  0  0  0  0  0  0
    1.0580   -8.2816  -33.6995 C   0  0  0  0  0  0  0  0  0  0  0  0
   -0.0600   -7.4266  -33.8904 C   0  0  0  0  0  0  0  0  0  0  0  0
   -0.7131   -7.3094  -35.2508 C   0  0  0  0  0  0  0  0  0  0  0  0
    3.6608  -10.0524  -32.7256 C   0  0  0  0  0  0  0  0  0  0  0  0
    4.8773   -9.3667  -33.3589 C   0  0  0  0  0  0  0  0  0  0  0  0
    0.0463   -6.7748  -31.5173 C   0  0  0  0  0  0  0  0  0  0  0  0
    4.9258   -9.7100  -29.9812 O   0  5  0  0  0  0  0  0  0  0  0  0
   -1.8939   -7.5985  -35.3369 O   0  5  0  0  0  0  0  0  0  0  0  0
   -0.5556   -6.6774  -32.7863 C   0  0  0  0  0  0  0  0  0  0  0  0
    5.5464   -8.6479  -32.6367 O   0  5  0  0  0  0  0  0  0  0  0  0
    3.6021   -9.1337  -28.3853 O   0  0  0  0  0  0  0  0  0  0  0  0
   -0.0169   -6.9340  -36.1797 O   0  0  0  0  0  0  0  0  0  0  0  0
    5.0945   -9.5815  -34.5388 O   0  0  0  0  0  0  0  0  0  0  0  0
    1.7143   -7.4593  -29.3635 H   0  0  0  0  0  0  0  0  0  0  0  0
    1.4366   -8.8383  -34.4816 H   0  0  0  0  0  0  0  0  0  0  0  0
    3.0800  -10.4983  -33.5059 H   0  0  0  0  0  0  0  0  0  0  0  0
    4.0353  -10.7756  -32.0316 H   0  0  0  0  0  0  0  0  0  0  0  0
   -0.3099   -6.2348  -30.7132 H   0  0  0  0  0  0  0  0  0  0  0  0
   -1.3674   -6.0541  -32.9178 H   0  0  0  0  0  0  0  0  0  0  0  0
  1  2  2  0  0  0  0
  1  4  1  0  0  0  0
  1 10  1  0  0  0  0
  2  3  1  0  0  0  0
  2  6  1  0  0  0  0
  3  5  1  0  0  0  0
  3 20  1  0  0  0  0
  4  5  2  0  0  0  0
  4  7  1  0  0  0  0
  5 12  1  0  0  0  0
  6 13  1  0  0  0  0
  6 17  2  0  0  0  0
  7  8  2  0  0  0  0
  7 21  1  0  0  0  0
  8  9  1  0  0  0  0
  8 15  1  0  0  0  0
  9 14  1  0  0  0  0
  9 18  2  0  0  0  0
 10 11  1  0  0  0  0
 10 22  1  0  0  0  0
 10 23  1  0  0  0  0
 11 16  1  0  0  0  0
 11 19  2  0  0  0  0
 12 15  2  0  0  0  0
 12 24  1  0  0  0  0
 15 25  1  0  0  0  0
M  CHG  3  13  -1  14  -1  16  -1
M  END
$$$$
