HTS1710-02802987-01
 OpenBabel03232612343D

 46 48  0  0  0  0  0  0  0  0999 V2000
    1.9528   -8.9830  -31.4339 C   0  0  0  0  0  0  0  0  0  0  0  0
    4.1501  -10.3497  -32.7290 C   0  0  0  0  0  0  0  0  0  0  0  0
    4.9419   -9.1812  -33.0000 C   0  0  0  0  0  0  0  0  0  0  0  0
    2.6648  -10.1166  -30.7472 C   0  0  0  0  0  0  0  0  0  0  0  0
    1.7304   -7.6916  -30.9951 C   0  0  0  0  0  0  0  0  0  0  0  0
    3.6601  -10.7910  -31.4865 N   0  0  0  0  0  0  0  0  0  0  0  0
    5.0799   -9.0439  -34.3126 N   0  0  0  0  0  0  0  0  0  0  0  0
    1.2487   -9.0519  -32.6450 N   0  0  0  0  0  0  0  0  0  0  0  0
    3.9335  -10.9859  -33.9165 C   0  0  0  0  0  0  0  0  0  0  0  0
    0.6973   -7.8482  -32.9972 N   0  0  0  0  0  0  0  0  0  0  0  0
    4.4643  -10.1368  -34.8667 N   0  0  0  0  0  0  0  0  0  0  0  0
    0.9964   -7.0275  -32.0116 C   0  0  0  0  0  0  0  0  0  0  0  0
    4.3904  -11.9210  -30.8432 C   0  0  0  0  0  0  0  0  0  0  0  0
    5.6223   -8.2621  -32.0450 C   0  0  0  0  0  0  0  0  0  0  0  0
    2.1723   -6.9889  -29.7575 C   0  0  0  0  0  0  0  0  0  0  0  0
    3.5092  -12.9001  -30.0528 C   0  0  0  0  0  0  0  0  0  0  0  0
    2.4007  -10.4401  -29.6018 O   0  0  0  0  0  0  0  0  0  0  0  0
    2.6645  -13.8418  -30.6863 C   0  0  0  0  0  0  0  0  0  0  0  0
    6.3235   -7.3827  -32.5164 O   0  5  0  0  0  0  0  0  0  0  0  0
    2.7478   -7.6644  -28.9219 O   0  5  0  0  0  0  0  0  0  0  0  0
    5.4822   -8.4540  -30.8518 O   0  0  0  0  0  0  0  0  0  0  0  0
    1.9448   -5.8015  -29.6260 O   0  0  0  0  0  0  0  0  0  0  0  0
    2.5887  -13.9848  -32.4303 Cl  0  0  0  0  0  0  0  0  0  0  0  0
    0.8514  -10.2311  -33.4246 C   0  0  0  0  0  0  0  0  0  0  0  0
    4.3973  -10.3001  -36.3241 C   0  0  0  0  0  0  0  0  0  0  0  0
    3.5639  -12.8810  -28.6443 C   0  0  0  0  0  0  0  0  0  0  0  0
    1.8706  -14.7109  -29.9185 C   0  0  0  0  0  0  0  0  0  0  0  0
    3.0235   -9.9122  -36.9073 C   0  0  0  0  0  0  0  0  0  0  0  0
    2.7680  -13.7486  -27.8811 C   0  0  0  0  0  0  0  0  0  0  0  0
    1.9170  -14.6620  -28.5176 C   0  0  0  0  0  0  0  0  0  0  0  0
    3.4754  -11.8979  -34.0699 H   0  0  0  0  0  0  0  0  0  0  0  0
    0.7313   -6.0306  -31.9825 H   0  0  0  0  0  0  0  0  0  0  0  0
    5.1132  -11.5085  -30.1707 H   0  0  0  0  0  0  0  0  0  0  0  0
    4.8247  -12.4876  -31.6403 H   0  0  0  0  0  0  0  0  0  0  0  0
    1.3538  -11.0959  -33.0442 H   0  0  0  0  0  0  0  0  0  0  0  0
    1.1177  -10.0865  -34.4508 H   0  0  0  0  0  0  0  0  0  0  0  0
   -0.2066  -10.3702  -33.3469 H   0  0  0  0  0  0  0  0  0  0  0  0
    4.5927  -11.3247  -36.5624 H   0  0  0  0  0  0  0  0  0  0  0  0
    5.1260   -9.6458  -36.7550 H   0  0  0  0  0  0  0  0  0  0  0  0
    4.1977  -12.2201  -28.1684 H   0  0  0  0  0  0  0  0  0  0  0  0
    1.2502  -15.3888  -30.3881 H   0  0  0  0  0  0  0  0  0  0  0  0
    2.2686  -10.5493  -36.4960 H   0  0  0  0  0  0  0  0  0  0  0  0
    3.0435  -10.0237  -37.9713 H   0  0  0  0  0  0  0  0  0  0  0  0
    2.8053   -8.8944  -36.6594 H   0  0  0  0  0  0  0  0  0  0  0  0
    2.8095  -13.7142  -26.8505 H   0  0  0  0  0  0  0  0  0  0  0  0
    1.3264  -15.2964  -27.9576 H   0  0  0  0  0  0  0  0  0  0  0  0
  1  4  1  0  0  0  0
  1  5  2  0  0  0  0
  1  8  1  0  0  0  0
  2  3  1  0  0  0  0
  2  6  1  0  0  0  0
  2  9  2  0  0  0  0
  3  7  2  0  0  0  0
  3 14  1  0  0  0  0
  4  6  1  0  0  0  0
  4 17  2  0  0  0  0
  5 12  1  0  0  0  0
  5 15  1  0  0  0  0
  6 13  1  0  0  0  0
  7 11  1  0  0  0  0
  8 10  1  0  0  0  0
  8 24  1  0  0  0  0
  9 11  1  0  0  0  0
  9 31  1  0  0  0  0
 10 12  2  0  0  0  0
 11 25  1  0  0  0  0
 12 32  1  0  0  0  0
 13 16  1  0  0  0  0
 13 33  1  0  0  0  0
 13 34  1  0  0  0  0
 14 19  1  0  0  0  0
 14 21  2  0  0  0  0
 15 20  1  0  0  0  0
 15 22  2  0  0  0  0
 16 18  2  0  0  0  0
 16 26  1  0  0  0  0
 18 23  1  0  0  0  0
 18 27  1  0  0  0  0
 24 35  1  0  0  0  0
 24 36  1  0  0  0  0
 24 37  1  0  0  0  0
 25 28  1  0  0  0  0
 25 38  1  0  0  0  0
 25 39  1  0  0  0  0
 26 29  2  0  0  0  0
 26 40  1  0  0  0  0
 27 30  2  0  0  0  0
 27 41  1  0  0  0  0
 28 42  1  0  0  0  0
 28 43  1  0  0  0  0
 28 44  1  0  0  0  0
 29 30  1  0  0  0  0
 29 45  1  0  0  0  0
 30 46  1  0  0  0  0
M  CHG  2  19  -1  20  -1
M  END
$$$$
