HTS1710-00847918-01
 OpenBabel03232612353D

 36 37  0  0  1  0  0  0  0  0999 V2000
   -0.3058   -8.4981  -34.8817 N   0  0  0  0  0  0  0  0  0  0  0  0
   -1.4243   -8.2259  -34.1315 N   0  0  0  0  0  0  0  0  0  0  0  0
    0.0755   -7.7600  -35.9876 C   0  0  0  0  0  0  0  0  0  0  0  0
   -2.2568   -7.2293  -34.3691 N   0  0  0  0  0  0  0  0  0  0  0  0
   -0.8458   -6.6250  -36.2780 C   0  0  0  0  0  0  0  0  0  0  0  0
    0.4656   -9.6674  -34.4152 C   0  0  0  0  0  0  0  0  0  0  0  0
    1.4338   -9.2614  -33.3008 C   0  0  0  0  0  0  0  0  0  0  0  0
   -1.9686   -6.4219  -35.4425 C   0  0  0  0  0  0  0  0  0  0  0  0
    2.3227  -10.2197  -32.8368 N   0  0  0  0  0  0  0  0  0  0  0  0
    4.6458   -9.5554  -32.4049 C   0  0  0  0  0  0  0  0  0  0  0  0
    3.3041   -9.9608  -31.7714 C   0  0  2  0  0  0  0  0  0  0  0  0
    1.0639   -8.0043  -36.6614 O   0  0  0  0  0  0  0  0  0  0  0  0
    3.0768  -10.2726  -28.5151 C   0  0  0  0  0  0  0  0  0  0  0  0
    1.4313   -8.1356  -32.8296 O   0  0  0  0  0  0  0  0  0  0  0  0
    4.9138  -10.0391  -33.4915 O   0  5  0  0  0  0  0  0  0  0  0  0
    3.0799   -9.0557  -28.4568 O   0  5  0  0  0  0  0  0  0  0  0  0
    3.4574  -11.2213  -30.8753 C   0  0  0  0  0  0  0  0  0  0  0  0
    4.0716  -10.9313  -29.4795 C   0  0  0  0  0  0  0  0  0  0  0  0
    5.3613   -8.7915  -31.7783 O   0  0  0  0  0  0  0  0  0  0  0  0
   -0.6101   -5.7597  -37.3646 C   0  0  0  0  0  0  0  0  0  0  0  0
    2.3733  -11.0111  -27.8465 O   0  0  0  0  0  0  0  0  0  0  0  0
   -2.8397   -5.3499  -35.7122 C   0  0  0  0  0  0  0  0  0  0  0  0
   -1.4860   -4.6937  -37.6220 C   0  0  0  0  0  0  0  0  0  0  0  0
   -2.5999   -4.4895  -36.7955 C   0  0  0  0  0  0  0  0  0  0  0  0
    1.0219  -10.0719  -35.2348 H   0  0  0  0  0  0  0  0  0  0  0  0
   -0.2141  -10.4002  -34.0330 H   0  0  0  0  0  0  0  0  0  0  0  0
    2.2957  -11.1173  -33.2402 H   0  0  0  0  0  0  0  0  0  0  0  0
    2.9665   -9.1576  -31.1503 H   0  0  0  0  0  0  0  0  0  0  0  0
    4.0893  -11.9201  -31.3825 H   0  0  0  0  0  0  0  0  0  0  0  0
    2.4723  -11.6039  -30.7072 H   0  0  0  0  0  0  0  0  0  0  0  0
    4.4002  -11.8556  -29.0523 H   0  0  0  0  0  0  0  0  0  0  0  0
    4.8825  -10.2477  -29.6210 H   0  0  0  0  0  0  0  0  0  0  0  0
    0.2095   -5.9102  -37.9734 H   0  0  0  0  0  0  0  0  0  0  0  0
   -3.6621   -5.1948  -35.1082 H   0  0  0  0  0  0  0  0  0  0  0  0
   -1.3103   -4.0612  -38.4183 H   0  0  0  0  0  0  0  0  0  0  0  0
   -3.2444   -3.7058  -36.9837 H   0  0  0  0  0  0  0  0  0  0  0  0
  1  2  1  0  0  0  0
  1  3  1  0  0  0  0
  1  6  1  0  0  0  0
  2  4  2  0  0  0  0
  3  5  1  0  0  0  0
  3 12  2  0  0  0  0
  4  8  1  0  0  0  0
  5  8  2  0  0  0  0
  5 20  1  0  0  0  0
  6  7  1  0  0  0  0
  6 25  1  0  0  0  0
  6 26  1  0  0  0  0
  7  9  1  0  0  0  0
  7 14  2  0  0  0  0
  8 22  1  0  0  0  0
  9 11  1  0  0  0  0
  9 27  1  0  0  0  0
 10 11  1  0  0  0  0
 10 15  1  0  0  0  0
 10 19  2  0  0  0  0
 11 17  1  0  0  0  0
 11 28  1  1  0  0  0
 13 18  1  0  0  0  0
 13 16  1  0  0  0  0
 13 21  2  0  0  0  0
 17 18  1  0  0  0  0
 17 29  1  0  0  0  0
 17 30  1  0  0  0  0
 18 31  1  0  0  0  0
 18 32  1  0  0  0  0
 20 23  2  0  0  0  0
 20 33  1  0  0  0  0
 22 24  2  0  0  0  0
 22 34  1  0  0  0  0
 23 24  1  0  0  0  0
 23 35  1  0  0  0  0
 24 36  1  0  0  0  0
M  CHG  2  15  -1  16  -1
M  END
$$$$
