HTS1710-00335609-01
 OpenBabel03232612353D

 38 39  0  0  1  0  0  0  0  0999 V2000
    0.7538   -9.6864  -35.0910 C   0  0  0  0  0  0  0  0  0  0  0  0
    1.5842  -10.5600  -36.0633 C   0  0  0  0  0  0  0  0  0  0  0  0
    1.0501  -12.0172  -36.0848 C   0  0  0  0  0  0  0  0  0  0  0  0
    3.1132  -10.4736  -35.7496 C   0  0  2  0  0  0  0  0  0  0  0  0
    3.3219  -10.1755  -34.3219 N   0  0  0  0  0  0  0  0  0  0  0  0
    4.5139  -10.4232  -33.6540 C   0  0  0  0  0  0  0  0  0  0  0  0
    5.4307  -10.9150  -34.2869 O   0  0  0  0  0  0  0  0  0  0  0  0
    4.6274  -10.0858  -32.2051 C   0  0  0  0  0  0  0  0  0  0  0  0
    5.1769   -8.9576  -31.6202 C   0  0  0  0  0  0  0  0  0  0  0  0
    5.7940   -7.7831  -32.3411 C   0  0  0  0  0  0  0  0  0  0  0  0
    5.1349   -8.9163  -30.2519 O   0  0  0  0  0  0  0  0  0  0  0  0
    4.5178  -10.1017  -29.9747 C   0  0  0  0  0  0  0  0  0  0  0  0
    4.2488  -10.5138  -28.6950 N   0  0  0  0  0  0  0  0  0  0  0  0
    3.6453  -11.6847  -28.5349 C   0  0  0  0  0  0  0  0  0  0  0  0
    3.2756  -12.5097  -29.6070 N   0  0  0  0  0  0  0  0  0  0  0  0
    2.6121  -13.7944  -29.3109 C   0  0  0  0  0  0  0  0  0  0  0  0
    3.5126  -12.1621  -30.9438 C   0  0  0  0  0  0  0  0  0  0  0  0
    3.1926  -12.8766  -31.8771 O   0  0  0  0  0  0  0  0  0  0  0  0
    4.1864  -10.8476  -31.0722 C   0  0  0  0  0  0  0  0  0  0  0  0
    3.8557   -9.4389  -36.6198 C   0  0  0  0  0  0  0  0  0  0  0  0
    4.8783   -8.9427  -36.1752 O   0  5  0  0  0  0  0  0  0  0  0  0
    3.3892   -9.2125  -37.7231 O   0  0  0  0  0  0  0  0  0  0  0  0
   -0.2847   -9.7700  -35.3350 H   0  0  0  0  0  0  0  0  0  0  0  0
    1.0599   -8.6650  -35.1793 H   0  0  0  0  0  0  0  0  0  0  0  0
    0.9124  -10.0208  -34.0871 H   0  0  0  0  0  0  0  0  0  0  0  0
    1.4654  -10.1718  -37.0532 H   0  0  0  0  0  0  0  0  0  0  0  0
    1.1494  -12.4479  -35.1104 H   0  0  0  0  0  0  0  0  0  0  0  0
    1.6137  -12.5933  -36.7885 H   0  0  0  0  0  0  0  0  0  0  0  0
    0.0189  -12.0150  -36.3704 H   0  0  0  0  0  0  0  0  0  0  0  0
    3.5284  -11.4304  -35.9885 H   0  0  0  0  0  0  0  0  0  0  0  0
    2.5768   -9.7796  -33.8146 H   0  0  0  0  0  0  0  0  0  0  0  0
    5.7575   -7.9534  -33.3969 H   0  0  0  0  0  0  0  0  0  0  0  0
    6.8125   -7.6706  -32.0330 H   0  0  0  0  0  0  0  0  0  0  0  0
    5.2494   -6.8931  -32.1044 H   0  0  0  0  0  0  0  0  0  0  0  0
    3.4381  -12.0036  -27.5756 H   0  0  0  0  0  0  0  0  0  0  0  0
    2.5073  -13.9059  -28.2519 H   0  0  0  0  0  0  0  0  0  0  0  0
    3.2029  -14.5984  -29.6974 H   0  0  0  0  0  0  0  0  0  0  0  0
    1.6451  -13.8102  -29.7687 H   0  0  0  0  0  0  0  0  0  0  0  0
  1  2  1  0  0  0  0
  1 23  1  0  0  0  0
  1 24  1  0  0  0  0
  1 25  1  0  0  0  0
  2  3  1  0  0  0  0
  2  4  1  0  0  0  0
  2 26  1  0  0  0  0
  3 27  1  0  0  0  0
  3 28  1  0  0  0  0
  3 29  1  0  0  0  0
  4  5  1  0  0  0  0
  4 20  1  0  0  0  0
  4 30  1  6  0  0  0
  5  6  1  0  0  0  0
  5 31  1  0  0  0  0
  6  7  2  0  0  0  0
  6  8  1  0  0  0  0
  8  9  2  0  0  0  0
  8 19  1  0  0  0  0
  9 10  1  0  0  0  0
  9 11  1  0  0  0  0
 10 32  1  0  0  0  0
 10 33  1  0  0  0  0
 10 34  1  0  0  0  0
 11 12  1  0  0  0  0
 12 13  1  0  0  0  0
 12 19  2  0  0  0  0
 13 14  2  0  0  0  0
 14 15  1  0  0  0  0
 14 35  1  0  0  0  0
 15 16  1  0  0  0  0
 15 17  1  0  0  0  0
 16 36  1  0  0  0  0
 16 37  1  0  0  0  0
 16 38  1  0  0  0  0
 17 18  2  0  0  0  0
 17 19  1  0  0  0  0
 20 21  1  0  0  0  0
 20 22  2  0  0  0  0
M  CHG  1  21  -1
M  END
$$$$
