HTS1710-00634940-01
 OpenBabel03232612353D

 42 43  0  0  1  0  0  0  0  0999 V2000
    3.4031  -10.2090  -32.3222 C   0  0  2  0  0  0  0  0  0  0  0  0
    3.3743  -11.4683  -31.4509 C   0  0  0  0  0  0  0  0  0  0  0  0
    4.6835  -10.0243  -33.0509 N   0  0  0  0  0  0  0  0  0  0  0  0
    3.2899   -8.9018  -31.5319 C   0  0  0  0  0  0  0  0  0  0  0  0
    2.5104  -12.5533  -31.7290 C   0  0  0  0  0  0  0  0  0  0  0  0
    4.2228  -11.5318  -30.3294 C   0  0  0  0  0  0  0  0  0  0  0  0
    5.2744   -8.8084  -32.7629 C   0  0  0  0  0  0  0  0  0  0  0  0
    5.1414  -10.9906  -34.0612 C   0  0  0  0  0  0  0  0  0  0  0  0
    4.3868   -8.1608  -31.7894 C   0  0  0  0  0  0  0  0  0  0  0  0
    2.2027   -8.7261  -30.5238 C   0  0  0  0  0  0  0  0  0  0  0  0
    2.5111  -13.6816  -30.8802 C   0  0  0  0  0  0  0  0  0  0  0  0
    1.6712  -12.4816  -32.8266 O   0  0  0  0  0  0  0  0  0  0  0  0
    4.2211  -12.6519  -29.4845 C   0  0  0  0  0  0  0  0  0  0  0  0
    6.3184   -8.3781  -33.2232 O   0  0  0  0  0  0  0  0  0  0  0  0
    4.2108  -11.0317  -35.2941 C   0  0  0  0  0  0  0  0  0  0  0  0
    4.7149   -6.9666  -31.2445 O   0  5  0  0  0  0  0  0  0  0  0  0
    1.2725   -7.5274  -30.7273 C   0  0  0  0  0  0  0  0  0  0  0  0
    2.1495   -9.4023  -29.5112 O   0  0  0  0  0  0  0  0  0  0  0  0
    3.3595  -13.7303  -29.7637 C   0  0  0  0  0  0  0  0  0  0  0  0
    0.6583  -13.4570  -33.1183 C   0  0  0  0  0  0  0  0  0  0  0  0
    5.0720  -12.6490  -28.3960 O   0  0  0  0  0  0  0  0  0  0  0  0
    4.1676   -9.6775  -36.0083 C   0  0  0  0  0  0  0  0  0  0  0  0
    5.0805  -13.6953  -27.4084 C   0  0  0  0  0  0  0  0  0  0  0  0
    5.1481   -8.9628  -35.9034 O   0  5  0  0  0  0  0  0  0  0  0  0
    3.1636   -9.4151  -36.6473 O   0  0  0  0  0  0  0  0  0  0  0  0
    2.5668  -10.3780  -32.9677 H   0  0  0  0  0  0  0  0  0  0  0  0
    4.8557  -10.7425  -30.1256 H   0  0  0  0  0  0  0  0  0  0  0  0
    5.1700  -11.9644  -33.6185 H   0  0  0  0  0  0  0  0  0  0  0  0
    6.1117  -10.6846  -34.3922 H   0  0  0  0  0  0  0  0  0  0  0  0
    1.8837  -14.4757  -31.0823 H   0  0  0  0  0  0  0  0  0  0  0  0
    3.2222  -11.2886  -34.9754 H   0  0  0  0  0  0  0  0  0  0  0  0
    4.5912  -11.7609  -35.9785 H   0  0  0  0  0  0  0  0  0  0  0  0
    1.4788   -7.0725  -31.6735 H   0  0  0  0  0  0  0  0  0  0  0  0
    1.4336   -6.8143  -29.9461 H   0  0  0  0  0  0  0  0  0  0  0  0
    0.2550   -7.8576  -30.7046 H   0  0  0  0  0  0  0  0  0  0  0  0
    3.3521  -14.5573  -29.1463 H   0  0  0  0  0  0  0  0  0  0  0  0
    0.1450  -13.1809  -34.0156 H   0  0  0  0  0  0  0  0  0  0  0  0
   -0.0387  -13.5006  -32.3077 H   0  0  0  0  0  0  0  0  0  0  0  0
    1.1140  -14.4163  -33.2488 H   0  0  0  0  0  0  0  0  0  0  0  0
    5.8185  -13.4779  -26.6648 H   0  0  0  0  0  0  0  0  0  0  0  0
    5.3120  -14.6281  -27.8788 H   0  0  0  0  0  0  0  0  0  0  0  0
    4.1170  -13.7580  -26.9469 H   0  0  0  0  0  0  0  0  0  0  0  0
  1  2  1  0  0  0  0
  1  3  1  0  0  0  0
  1  4  1  0  0  0  0
  1 26  1  6  0  0  0
  2  5  2  0  0  0  0
  2  6  1  0  0  0  0
  3  7  1  0  0  0  0
  3  8  1  0  0  0  0
  4  9  2  0  0  0  0
  4 10  1  0  0  0  0
  5 11  1  0  0  0  0
  5 12  1  0  0  0  0
  6 13  2  0  0  0  0
  6 27  1  0  0  0  0
  7 14  2  0  0  0  0
  7  9  1  0  0  0  0
  8 15  1  0  0  0  0
  8 28  1  0  0  0  0
  8 29  1  0  0  0  0
  9 16  1  0  0  0  0
 10 17  1  0  0  0  0
 10 18  2  0  0  0  0
 11 19  2  0  0  0  0
 11 30  1  0  0  0  0
 12 20  1  0  0  0  0
 13 21  1  0  0  0  0
 13 19  1  0  0  0  0
 15 22  1  0  0  0  0
 15 31  1  0  0  0  0
 15 32  1  0  0  0  0
 17 33  1  0  0  0  0
 17 34  1  0  0  0  0
 17 35  1  0  0  0  0
 19 36  1  0  0  0  0
 20 37  1  0  0  0  0
 20 38  1  0  0  0  0
 20 39  1  0  0  0  0
 21 23  1  0  0  0  0
 22 24  1  0  0  0  0
 22 25  2  0  0  0  0
 23 40  1  0  0  0  0
 23 41  1  0  0  0  0
 23 42  1  0  0  0  0
M  CHG  2  16  -1  24  -1
M  END
$$$$
