HTS1710-00228286-01
 OpenBabel03232612343D

 37 40  0  0  0  0  0  0  0  0999 V2000
    2.0949   -8.8542  -32.5723 C   0  0  0  0  0  0  0  0  0  0  0  0
    3.3868  -10.7412  -31.4107 C   0  0  0  0  0  0  0  0  0  0  0  0
    1.6166   -8.7306  -33.8750 C   0  0  0  0  0  0  0  0  0  0  0  0
    4.0823  -10.8340  -30.2022 C   0  0  0  0  0  0  0  0  0  0  0  0
    2.5061  -11.8312  -31.9248 C   0  0  0  0  0  0  0  0  0  0  0  0
    1.3233   -8.4040  -31.3753 C   0  0  0  0  0  0  0  0  0  0  0  0
    3.4666   -9.4973  -32.3113 C   0  0  0  0  0  0  0  0  0  0  0  0
    2.4300  -12.9482  -31.1505 O   0  0  0  0  0  0  0  0  0  0  0  0
    0.1161   -7.8296  -31.6337 O   0  0  0  0  0  0  0  0  0  0  0  0
    3.9179  -12.0987  -29.4625 C   0  0  0  0  0  0  0  0  0  0  0  0
    0.2963   -8.0897  -34.0192 C   0  0  0  0  0  0  0  0  0  0  0  0
   -0.4128   -7.6563  -32.8848 C   0  0  0  0  0  0  0  0  0  0  0  0
    3.0948  -13.1212  -29.9676 C   0  0  0  0  0  0  0  0  0  0  0  0
    4.5558   -8.4610  -31.9686 C   0  0  0  0  0  0  0  0  0  0  0  0
    1.7177   -8.5302  -30.2285 O   0  0  0  0  0  0  0  0  0  0  0  0
    1.8782  -11.7497  -32.9675 O   0  0  0  0  0  0  0  0  0  0  0  0
    4.2437   -7.5180  -31.2618 O   0  5  0  0  0  0  0  0  0  0  0  0
    2.2520   -9.1507  -34.9900 O   0  5  0  0  0  0  0  0  0  0  0  0
    4.8592   -9.8749  -29.6501 O   0  5  0  0  0  0  0  0  0  0  0  0
    5.6694   -8.6584  -32.4244 O   0  0  0  0  0  0  0  0  0  0  0  0
   -0.2866   -7.8946  -35.2923 C   0  0  0  0  0  0  0  0  0  0  0  0
    4.5839  -12.3171  -28.2339 C   0  0  0  0  0  0  0  0  0  0  0  0
    2.9336  -14.3307  -29.2720 C   0  0  0  0  0  0  0  0  0  0  0  0
   -1.6710   -7.0447  -33.0087 C   0  0  0  0  0  0  0  0  0  0  0  0
    4.4244  -13.5268  -27.5379 C   0  0  0  0  0  0  0  0  0  0  0  0
   -1.5441   -7.2817  -35.4178 C   0  0  0  0  0  0  0  0  0  0  0  0
   -2.2381   -6.8568  -34.2769 C   0  0  0  0  0  0  0  0  0  0  0  0
    3.5997  -14.5345  -28.0556 C   0  0  0  0  0  0  0  0  0  0  0  0
    3.8119   -9.9061  -33.2379 H   0  0  0  0  0  0  0  0  0  0  0  0
    0.2168   -8.2056  -36.1379 H   0  0  0  0  0  0  0  0  0  0  0  0
    5.1931  -11.5804  -27.8450 H   0  0  0  0  0  0  0  0  0  0  0  0
    2.3245  -15.0696  -29.6565 H   0  0  0  0  0  0  0  0  0  0  0  0
   -2.1785   -6.7336  -32.1656 H   0  0  0  0  0  0  0  0  0  0  0  0
    4.9161  -13.6738  -26.6425 H   0  0  0  0  0  0  0  0  0  0  0  0
   -1.9582   -7.1437  -36.3529 H   0  0  0  0  0  0  0  0  0  0  0  0
   -3.1625   -6.4076  -34.3699 H   0  0  0  0  0  0  0  0  0  0  0  0
    3.4832  -15.4228  -27.5435 H   0  0  0  0  0  0  0  0  0  0  0  0
  1  3  2  0  0  0  0
  1  6  1  0  0  0  0
  1  7  1  0  0  0  0
  2  7  1  0  0  0  0
  2  4  2  0  0  0  0
  2  5  1  0  0  0  0
  3 11  1  0  0  0  0
  3 18  1  0  0  0  0
  4 10  1  0  0  0  0
  4 19  1  0  0  0  0
  5  8  1  0  0  0  0
  5 16  2  0  0  0  0
  6  9  1  0  0  0  0
  6 15  2  0  0  0  0
  7 14  1  0  0  0  0
  7 29  1  0  0  0  0
  8 13  1  0  0  0  0
  9 12  1  0  0  0  0
 10 22  2  0  0  0  0
 10 13  1  0  0  0  0
 11 21  2  0  0  0  0
 11 12  1  0  0  0  0
 12 24  2  0  0  0  0
 13 23  2  0  0  0  0
 14 17  1  0  0  0  0
 14 20  2  0  0  0  0
 21 26  1  0  0  0  0
 21 30  1  0  0  0  0
 22 25  1  0  0  0  0
 22 31  1  0  0  0  0
 23 28  1  0  0  0  0
 23 32  1  0  0  0  0
 24 27  1  0  0  0  0
 24 33  1  0  0  0  0
 25 28  2  0  0  0  0
 25 34  1  0  0  0  0
 26 27  2  0  0  0  0
 26 35  1  0  0  0  0
 27 36  1  0  0  0  0
 28 37  1  0  0  0  0
M  CHG  3  17  -1  18  -1  19  -1
M  END
$$$$
