HTS1710-02553645-01
 OpenBabel03232612353D

 42 43  0  0  0  0  0  0  0  0999 V2000
    2.2260  -12.1629  -33.6015 N   0  0  0  0  0  0  0  0  0  0  0  0
    1.8305  -13.0430  -32.5773 C   0  0  0  0  0  0  0  0  0  0  0  0
    3.3961   -9.4627  -36.9509 C   0  0  0  0  0  0  0  0  0  0  0  0
    3.3377  -13.2489  -30.3865 C   0  0  0  0  0  0  0  0  0  0  0  0
    2.9633  -13.7857  -31.8153 C   0  0  0  0  0  0  0  0  0  0  0  0
    3.4014  -11.0244  -28.9845 C   0  0  0  0  0  0  0  0  0  0  0  0
    3.0344  -10.6612  -36.0509 C   0  0  0  0  0  0  0  0  0  0  0  0
    3.6679  -11.9567  -33.9354 C   0  0  0  0  0  0  0  0  0  0  0  0
    1.2423  -11.8611  -34.6810 C   0  0  0  0  0  0  0  0  0  0  0  0
    0.6553  -13.1846  -32.2790 O   0  0  0  0  0  0  0  0  0  0  0  0
    4.5698   -9.1455  -37.0423 O   0  5  0  0  0  0  0  0  0  0  0  0
    2.9647  -11.7224  -30.2840 C   0  0  0  0  0  0  0  0  0  0  0  0
    2.6042  -11.0101  -28.0624 O   0  5  0  0  0  0  0  0  0  0  0  0
    3.9683  -10.7311  -34.8295 C   0  0  0  0  0  0  0  0  0  0  0  0
    1.5761  -10.6253  -35.5460 C   0  0  0  0  0  0  0  0  0  0  0  0
    2.4683   -8.8795  -37.4856 O   0  0  0  0  0  0  0  0  0  0  0  0
    4.4970  -10.4913  -28.9768 O   0  0  0  0  0  0  0  0  0  0  0  0
    2.5629  -14.0685  -29.3105 C   0  0  0  0  0  0  0  0  0  0  0  0
    4.8349  -13.5117  -30.0482 C   0  0  0  0  0  0  0  0  0  0  0  0
    4.9227  -13.9290  -28.5658 C   0  0  0  0  0  0  0  0  0  0  0  0
    3.4928  -14.2479  -28.0940 C   0  0  0  0  0  0  0  0  0  0  0  0
    3.8448  -13.7352  -32.4196 H   0  0  0  0  0  0  0  0  0  0  0  0
    2.5839  -14.7723  -31.6492 H   0  0  0  0  0  0  0  0  0  0  0  0
    3.1529  -11.5279  -36.6672 H   0  0  0  0  0  0  0  0  0  0  0  0
    4.0182  -12.8308  -34.4435 H   0  0  0  0  0  0  0  0  0  0  0  0
    4.1648  -11.7746  -33.0055 H   0  0  0  0  0  0  0  0  0  0  0  0
    0.2886  -11.6979  -34.2242 H   0  0  0  0  0  0  0  0  0  0  0  0
    1.2599  -12.7014  -35.3432 H   0  0  0  0  0  0  0  0  0  0  0  0
    1.9012  -11.6360  -30.3643 H   0  0  0  0  0  0  0  0  0  0  0  0
    3.4957  -11.2346  -31.0745 H   0  0  0  0  0  0  0  0  0  0  0  0
    3.8432   -9.8415  -34.2484 H   0  0  0  0  0  0  0  0  0  0  0  0
    4.9723  -10.8235  -35.1879 H   0  0  0  0  0  0  0  0  0  0  0  0
    0.9173  -10.6034  -36.3888 H   0  0  0  0  0  0  0  0  0  0  0  0
    1.4531   -9.7510  -34.9415 H   0  0  0  0  0  0  0  0  0  0  0  0
    2.2929  -15.0252  -29.7065 H   0  0  0  0  0  0  0  0  0  0  0  0
    1.6679  -13.5569  -29.0242 H   0  0  0  0  0  0  0  0  0  0  0  0
    5.4052  -12.6208  -30.2090 H   0  0  0  0  0  0  0  0  0  0  0  0
    5.2276  -14.2845  -30.6756 H   0  0  0  0  0  0  0  0  0  0  0  0
    5.3304  -13.1290  -27.9838 H   0  0  0  0  0  0  0  0  0  0  0  0
    5.5587  -14.7816  -28.4495 H   0  0  0  0  0  0  0  0  0  0  0  0
    3.4402  -15.2553  -27.7374 H   0  0  0  0  0  0  0  0  0  0  0  0
    3.2023  -13.5994  -27.2940 H   0  0  0  0  0  0  0  0  0  0  0  0
  1  2  1  0  0  0  0
  1  8  1  0  0  0  0
  1  9  1  0  0  0  0
  2  5  1  0  0  0  0
  2 10  2  0  0  0  0
  3  7  1  0  0  0  0
  3 11  1  0  0  0  0
  3 16  2  0  0  0  0
  4  5  1  0  0  0  0
  4 12  1  0  0  0  0
  4 18  1  0  0  0  0
  4 19  1  0  0  0  0
  5 22  1  0  0  0  0
  5 23  1  0  0  0  0
  6 12  1  0  0  0  0
  6 13  1  0  0  0  0
  6 17  2  0  0  0  0
  7 14  1  0  0  0  0
  7 15  1  0  0  0  0
  7 24  1  0  0  0  0
  8 14  1  0  0  0  0
  8 25  1  0  0  0  0
  8 26  1  0  0  0  0
  9 15  1  0  0  0  0
  9 27  1  0  0  0  0
  9 28  1  0  0  0  0
 12 29  1  0  0  0  0
 12 30  1  0  0  0  0
 14 31  1  0  0  0  0
 14 32  1  0  0  0  0
 15 33  1  0  0  0  0
 15 34  1  0  0  0  0
 18 21  1  0  0  0  0
 18 35  1  0  0  0  0
 18 36  1  0  0  0  0
 19 20  1  0  0  0  0
 19 37  1  0  0  0  0
 19 38  1  0  0  0  0
 20 21  1  0  0  0  0
 20 39  1  0  0  0  0
 20 40  1  0  0  0  0
 21 41  1  0  0  0  0
 21 42  1  0  0  0  0
M  CHG  2  11  -1  13  -1
M  END
$$$$
