HTS1710-01235484-01
 OpenBabel03232612353D

 26 26  0  0  0  0  0  0  0  0999 V2000
    1.3476   -8.7911  -33.2236 C   0  0  0  0  0  0  0  0  0  0  0  0
    2.3937   -9.7450  -33.1803 C   0  0  0  0  0  0  0  0  0  0  0  0
    0.4893   -8.5855  -34.4492 C   0  0  0  0  0  0  0  0  0  0  0  0
    3.7455   -9.2597  -29.6134 C   0  0  0  0  0  0  0  0  0  0  0  0
    2.9173   -9.0936  -30.8707 C   0  0  0  0  0  0  0  0  0  0  0  0
    1.1126   -7.9889  -32.0915 C   0  0  0  0  0  0  0  0  0  0  0  0
    3.1618   -9.8930  -32.0076 C   0  0  0  0  0  0  0  0  0  0  0  0
    4.5857   -9.4746  -36.3858 C   0  0  0  0  0  0  0  0  0  0  0  0
    1.8848   -8.1357  -30.9305 C   0  0  0  0  0  0  0  0  0  0  0  0
    4.4809  -10.9446  -35.9387 C   0  0  0  0  0  0  0  0  0  0  0  0
    1.0414   -8.2401  -35.4800 O   0  5  0  0  0  0  0  0  0  0  0  0
    3.2677   -8.8567  -28.5663 O   0  5  0  0  0  0  0  0  0  0  0  0
    5.3504   -8.7403  -35.7843 O   0  5  0  0  0  0  0  0  0  0  0  0
    2.6756  -10.5341  -34.2789 N   0  0  0  0  0  0  0  0  0  0  0  0
   -0.7049   -8.7993  -34.3279 O   0  0  0  0  0  0  0  0  0  0  0  0
    4.8397   -9.7860  -29.7227 O   0  0  0  0  0  0  0  0  0  0  0  0
    4.0106  -11.1275  -34.4722 C   0  0  0  0  0  0  0  0  0  0  0  0
    3.8853   -9.1412  -37.3253 O   0  0  0  0  0  0  0  0  0  0  0  0
    0.3610   -7.2822  -32.1162 H   0  0  0  0  0  0  0  0  0  0  0  0
    3.9154  -10.5975  -31.9802 H   0  0  0  0  0  0  0  0  0  0  0  0
    1.6954   -7.5368  -30.1118 H   0  0  0  0  0  0  0  0  0  0  0  0
    5.4452  -11.3968  -36.0414 H   0  0  0  0  0  0  0  0  0  0  0  0
    3.7410  -11.4045  -36.5600 H   0  0  0  0  0  0  0  0  0  0  0  0
    1.9710  -10.7032  -34.9454 H   0  0  0  0  0  0  0  0  0  0  0  0
    4.7072  -10.6476  -33.8168 H   0  0  0  0  0  0  0  0  0  0  0  0
    3.9585  -12.1737  -34.2540 H   0  0  0  0  0  0  0  0  0  0  0  0
  1  2  2  0  0  0  0
  1  3  1  0  0  0  0
  1  6  1  0  0  0  0
  2  7  1  0  0  0  0
  2 14  1  0  0  0  0
  3 11  1  0  0  0  0
  3 15  2  0  0  0  0
  4  5  1  0  0  0  0
  4 12  1  0  0  0  0
  4 16  2  0  0  0  0
  5  9  1  0  0  0  0
  5  7  2  0  0  0  0
  6  9  2  0  0  0  0
  6 19  1  0  0  0  0
  7 20  1  0  0  0  0
  8 10  1  0  0  0  0
  8 13  1  0  0  0  0
  8 18  2  0  0  0  0
  9 21  1  0  0  0  0
 10 17  1  0  0  0  0
 10 22  1  0  0  0  0
 10 23  1  0  0  0  0
 14 17  1  0  0  0  0
 14 24  1  0  0  0  0
 17 25  1  0  0  0  0
 17 26  1  0  0  0  0
M  CHG  3  11  -1  12  -1  13  -1
M  END
$$$$
