HTS1710-01417868-01
 OpenBabel03232612353D

 38 39  0  0  0  0  0  0  0  0999 V2000
    2.8399  -10.7449  -31.5653 C   0  0  0  0  0  0  0  0  0  0  0  0
    3.8175  -10.5218  -30.5522 C   0  0  0  0  0  0  0  0  0  0  0  0
    2.2317   -9.6331  -32.3799 C   0  0  0  0  0  0  0  0  0  0  0  0
    1.4763   -9.9966  -33.4928 N   0  0  0  0  0  0  0  0  0  0  0  0
    0.8258   -9.1418  -34.3834 C   0  0  0  0  0  0  0  0  0  0  0  0
    4.2544   -9.1421  -30.1192 C   0  0  0  0  0  0  0  0  0  0  0  0
   -2.3509   -7.0020  -34.7333 C   0  0  0  0  0  0  0  0  0  0  0  0
    1.4866   -8.8440  -35.5942 C   0  0  0  0  0  0  0  0  0  0  0  0
   -1.0205   -7.6542  -35.0362 C   0  0  0  0  0  0  0  0  0  0  0  0
    2.4180  -11.9955  -31.8655 N   0  0  0  0  0  0  0  0  0  0  0  0
   -0.4180   -8.5289  -34.1063 C   0  0  0  0  0  0  0  0  0  0  0  0
    4.3839  -11.5627  -29.8947 N   0  0  0  0  0  0  0  0  0  0  0  0
    2.7214   -9.4284  -35.8338 O   0  0  0  0  0  0  0  0  0  0  0  0
    2.3876   -8.4639  -32.0721 O   0  0  0  0  0  0  0  0  0  0  0  0
    3.5019   -8.5143  -29.3933 O   0  5  0  0  0  0  0  0  0  0  0  0
   -2.9254   -6.4426  -35.6512 O   0  5  0  0  0  0  0  0  0  0  0  0
    0.8898   -7.9662  -36.5224 C   0  0  0  0  0  0  0  0  0  0  0  0
   -0.3551   -7.3845  -36.2468 C   0  0  0  0  0  0  0  0  0  0  0  0
    5.3461   -8.7568  -30.5013 O   0  0  0  0  0  0  0  0  0  0  0  0
   -2.7679   -7.0765  -33.5893 O   0  0  0  0  0  0  0  0  0  0  0  0
    2.9267  -10.6371  -36.5952 C   0  0  0  0  0  0  0  0  0  0  0  0
    3.9671  -12.8004  -30.2179 C   0  0  0  0  0  0  0  0  0  0  0  0
    2.9805  -13.0147  -31.1911 C   0  0  0  0  0  0  0  0  0  0  0  0
    1.6779  -11.5414  -36.4488 C   0  0  0  0  0  0  0  0  0  0  0  0
    4.1896  -11.3232  -36.0328 C   0  0  0  0  0  0  0  0  0  0  0  0
    1.3923  -10.9614  -33.6701 H   0  0  0  0  0  0  0  0  0  0  0  0
   -0.8924   -8.7239  -33.2108 H   0  0  0  0  0  0  0  0  0  0  0  0
    1.3721   -7.7511  -37.4092 H   0  0  0  0  0  0  0  0  0  0  0  0
   -0.7882   -6.7523  -36.9381 H   0  0  0  0  0  0  0  0  0  0  0  0
    3.0643  -10.4354  -37.6370 H   0  0  0  0  0  0  0  0  0  0  0  0
    4.3842  -13.6129  -29.7374 H   0  0  0  0  0  0  0  0  0  0  0  0
    2.6779  -13.9799  -31.3955 H   0  0  0  0  0  0  0  0  0  0  0  0
    1.5152  -11.7601  -35.4141 H   0  0  0  0  0  0  0  0  0  0  0  0
    1.8332  -12.4536  -36.9861 H   0  0  0  0  0  0  0  0  0  0  0  0
    0.8225  -11.0352  -36.8450 H   0  0  0  0  0  0  0  0  0  0  0  0
    4.0521  -11.5248  -34.9910 H   0  0  0  0  0  0  0  0  0  0  0  0
    5.0336  -10.6785  -36.1629 H   0  0  0  0  0  0  0  0  0  0  0  0
    4.3588  -12.2419  -36.5545 H   0  0  0  0  0  0  0  0  0  0  0  0
  1  2  2  0  0  0  0
  1  3  1  0  0  0  0
  1 10  1  0  0  0  0
  2  6  1  0  0  0  0
  2 12  1  0  0  0  0
  3  4  1  0  0  0  0
  3 14  2  0  0  0  0
  4  5  1  0  0  0  0
  4 26  1  0  0  0  0
  5  8  2  0  0  0  0
  5 11  1  0  0  0  0
  6 15  1  0  0  0  0
  6 19  2  0  0  0  0
  7  9  1  0  0  0  0
  7 16  1  0  0  0  0
  7 20  2  0  0  0  0
  8 13  1  0  0  0  0
  8 17  1  0  0  0  0
  9 11  2  0  0  0  0
  9 18  1  0  0  0  0
 10 23  2  0  0  0  0
 11 27  1  0  0  0  0
 12 22  2  0  0  0  0
 13 21  1  0  0  0  0
 17 18  2  0  0  0  0
 17 28  1  0  0  0  0
 18 29  1  0  0  0  0
 21 24  1  0  0  0  0
 21 25  1  0  0  0  0
 21 30  1  0  0  0  0
 22 23  1  0  0  0  0
 22 31  1  0  0  0  0
 23 32  1  0  0  0  0
 24 33  1  0  0  0  0
 24 34  1  0  0  0  0
 24 35  1  0  0  0  0
 25 36  1  0  0  0  0
 25 37  1  0  0  0  0
 25 38  1  0  0  0  0
M  CHG  2  15  -1  16  -1
M  END
$$$$
