HTS1710-00480281-01
 OpenBabel03232612343D

 29 30  0  0  0  0  0  0  0  0999 V2000
    1.8109   -9.0872  -33.8155 C   0  0  0  0  0  0  0  0  0  0  0  0
    1.3054   -8.9076  -35.1350 C   0  0  0  0  0  0  0  0  0  0  0  0
    1.0707   -8.5930  -32.7163 C   0  0  0  0  0  0  0  0  0  0  0  0
    3.0391   -9.7370  -33.5554 C   0  0  0  0  0  0  0  0  0  0  0  0
    0.0752   -8.2380  -35.3143 C   0  0  0  0  0  0  0  0  0  0  0  0
    2.2038   -9.4949  -36.6087 S   0  0  0  0  0  0  0  0  0  0  0  0
    1.5526   -8.7406  -31.4027 C   0  0  0  0  0  0  0  0  0  0  0  0
   -0.1517   -7.9338  -32.9195 C   0  0  0  0  0  0  0  0  0  0  0  0
    3.5233   -9.8823  -32.2435 C   0  0  0  0  0  0  0  0  0  0  0  0
   -0.6564   -7.7583  -34.2158 C   0  0  0  0  0  0  0  0  0  0  0  0
    1.6345   -8.7321  -37.7240 O   0  0  0  0  0  0  0  0  0  0  0  0
    1.8977  -10.9288  -36.6242 O   0  0  0  0  0  0  0  0  0  0  0  0
    3.5961   -9.1667  -36.2854 O   0  0  0  0  0  1  0  0  0  0  0  0
    2.7814   -9.3795  -31.1511 C   0  0  0  0  0  0  0  0  0  0  0  0
    4.7303  -10.5170  -32.0583 N   0  0  0  0  0  0  0  0  0  0  0  0
   -2.2109   -6.8711  -34.4718 S   0  0  0  0  0  0  0  0  0  0  0  0
    3.3968   -9.5317  -29.4451 S   0  0  0  0  0  0  0  0  0  0  0  0
   -2.0944   -6.3578  -35.8406 O   0  0  0  0  0  0  0  0  0  0  0  0
   -2.2072   -5.8545  -33.4148 O   0  0  0  0  0  0  0  0  0  0  0  0
   -3.2012   -7.9376  -34.2959 O   0  0  0  0  0  1  0  0  0  0  0  0
    2.9872   -8.2575  -28.8456 O   0  0  0  0  0  1  0  0  0  0  0  0
    4.8432   -9.6792  -29.6323 O   0  0  0  0  0  0  0  0  0  0  0  0
    2.7146  -10.7146  -28.9119 O   0  0  0  0  0  0  0  0  0  0  0  0
    3.5906  -10.1117  -34.3431 H   0  0  0  0  0  0  0  0  0  0  0  0
   -0.2923   -8.0987  -36.2685 H   0  0  0  0  0  0  0  0  0  0  0  0
    0.9977   -8.3755  -30.6129 H   0  0  0  0  0  0  0  0  0  0  0  0
   -0.6822   -7.5762  -32.1098 H   0  0  0  0  0  0  0  0  0  0  0  0
    5.2304  -10.8596  -32.8341 H   0  0  0  0  0  0  0  0  0  0  0  0
    5.0937  -10.6285  -31.1502 H   0  0  0  0  0  0  0  0  0  0  0  0
  1  2  2  0  0  0  0
  1  3  1  0  0  0  0
  1  4  1  0  0  0  0
  2  5  1  0  0  0  0
  2  6  1  0  0  0  0
  3  7  1  0  0  0  0
  3  8  2  0  0  0  0
  4  9  2  0  0  0  0
  4 24  1  0  0  0  0
  5 10  2  0  0  0  0
  5 25  1  0  0  0  0
  6 11  2  0  0  0  0
  6 12  2  0  0  0  0
  6 13  1  0  0  0  0
  7 14  2  0  0  0  0
  7 26  1  0  0  0  0
  8 10  1  0  0  0  0
  8 27  1  0  0  0  0
  9 15  1  0  0  0  0
  9 14  1  0  0  0  0
 10 16  1  0  0  0  0
 14 17  1  0  0  0  0
 15 28  1  0  0  0  0
 15 29  1  0  0  0  0
 16 18  2  0  0  0  0
 16 19  2  0  0  0  0
 16 20  1  0  0  0  0
 17 21  1  0  0  0  0
 17 22  2  0  0  0  0
 17 23  2  0  0  0  0
M  END
$$$$
