HTS1710-01189020-01
 OpenBabel03232612353D

 35 36  0  0  0  0  0  0  0  0999 V2000
    4.5726  -10.5898  -35.5384 S   0  0  0  0  0  0  0  0  0  0  0  0
    4.4777  -10.5242  -31.4282 C   0  0  0  0  0  0  0  0  0  0  0  0
    4.4267  -11.1036  -33.8164 C   0  0  0  0  0  0  0  0  0  0  0  0
    4.5585  -10.1539  -32.7922 C   0  0  0  0  0  0  0  0  0  0  0  0
    2.9833  -10.5649  -36.1442 N   0  0  0  0  0  0  0  0  0  0  0  0
    4.6424   -9.4358  -30.3683 C   0  0  0  0  0  0  0  0  0  0  0  0
   -1.4318   -7.2164  -34.7044 C   0  0  0  0  0  0  0  0  0  0  0  0
    5.0962   -9.2262  -35.6656 O   0  0  0  0  0  0  0  0  0  0  0  0
    5.1463  -11.7286  -36.2617 O   0  0  0  0  0  0  0  0  0  0  0  0
    4.2493  -11.8955  -31.1125 C   0  0  0  0  0  0  0  0  0  0  0  0
   -0.2601   -8.0978  -35.0747 C   0  0  0  0  0  0  0  0  0  0  0  0
    3.9167   -9.4973  -29.3903 O   0  5  0  0  0  0  0  0  0  0  0  0
   -1.3901   -6.0481  -35.0532 O   0  5  0  0  0  0  0  0  0  0  0  0
    4.2017  -12.4481  -33.4959 C   0  0  0  0  0  0  0  0  0  0  0  0
    4.1119  -12.8414  -32.1560 C   0  0  0  0  0  0  0  0  0  0  0  0
    1.9248   -9.7614  -35.7748 C   0  0  0  0  0  0  0  0  0  0  0  0
    0.2041   -9.0898  -34.1836 C   0  0  0  0  0  0  0  0  0  0  0  0
    0.3951   -7.9437  -36.3155 C   0  0  0  0  0  0  0  0  0  0  0  0
    5.4794   -8.5673  -30.5426 O   0  0  0  0  0  0  0  0  0  0  0  0
   -2.3456   -7.7261  -34.0787 O   0  0  0  0  0  0  0  0  0  0  0  0
    1.4805   -8.7653  -36.6590 C   0  0  0  0  0  0  0  0  0  0  0  0
    1.2880   -9.9118  -34.5287 C   0  0  0  0  0  0  0  0  0  0  0  0
    4.1634  -12.3012  -29.7911 O   0  0  0  0  0  0  0  0  0  0  0  0
    4.2251  -13.6728  -29.3627 C   0  0  0  0  0  0  0  0  0  0  0  0
    4.7178   -9.1644  -33.0383 H   0  0  0  0  0  0  0  0  0  0  0  0
    2.7922  -11.2150  -36.8584 H   0  0  0  0  0  0  0  0  0  0  0  0
    4.1021  -13.1484  -34.2474 H   0  0  0  0  0  0  0  0  0  0  0  0
    3.9434  -13.8333  -31.9261 H   0  0  0  0  0  0  0  0  0  0  0  0
   -0.2585   -9.2117  -33.2692 H   0  0  0  0  0  0  0  0  0  0  0  0
    0.0730   -7.2200  -36.9769 H   0  0  0  0  0  0  0  0  0  0  0  0
    1.9545   -8.6363  -37.5666 H   0  0  0  0  0  0  0  0  0  0  0  0
    1.6197  -10.6297  -33.8657 H   0  0  0  0  0  0  0  0  0  0  0  0
    4.1356  -13.7181  -28.2974 H   0  0  0  0  0  0  0  0  0  0  0  0
    5.1611  -14.0976  -29.6603 H   0  0  0  0  0  0  0  0  0  0  0  0
    3.4249  -14.2231  -29.8117 H   0  0  0  0  0  0  0  0  0  0  0  0
  1  3  1  0  0  0  0
  1  5  1  0  0  0  0
  1  8  2  0  0  0  0
  1  9  2  0  0  0  0
  2  4  2  0  0  0  0
  2  6  1  0  0  0  0
  2 10  1  0  0  0  0
  3  4  1  0  0  0  0
  3 14  2  0  0  0  0
  4 25  1  0  0  0  0
  5 16  1  0  0  0  0
  5 26  1  0  0  0  0
  6 12  1  0  0  0  0
  6 19  2  0  0  0  0
  7 11  1  0  0  0  0
  7 13  1  0  0  0  0
  7 20  2  0  0  0  0
 10 15  2  0  0  0  0
 10 23  1  0  0  0  0
 11 17  2  0  0  0  0
 11 18  1  0  0  0  0
 14 15  1  0  0  0  0
 14 27  1  0  0  0  0
 15 28  1  0  0  0  0
 16 21  1  0  0  0  0
 16 22  2  0  0  0  0
 17 22  1  0  0  0  0
 17 29  1  0  0  0  0
 18 21  2  0  0  0  0
 18 30  1  0  0  0  0
 21 31  1  0  0  0  0
 22 32  1  0  0  0  0
 23 24  1  0  0  0  0
 24 33  1  0  0  0  0
 24 34  1  0  0  0  0
 24 35  1  0  0  0  0
M  CHG  2  12  -1  13  -1
M  END
$$$$
