HTS1710-00107949-01
 OpenBabel03232612353D

 38 39  0  0  1  0  0  0  0  0999 V2000
    3.0981  -10.3223  -30.0564 C   0  0  1  0  0  0  0  0  0  0  0  0
    3.4190  -10.0644  -31.5704 C   0  0  1  0  0  0  0  0  0  0  0  0
    3.9454  -11.3843  -29.5535 O   0  0  0  0  0  0  0  0  0  0  0  0
    2.5005   -9.0779  -32.1010 O   0  0  0  0  0  0  0  0  0  0  0  0
    3.4757  -12.6593  -29.3963 C   0  0  0  0  0  0  0  0  0  0  0  0
    2.0156   -9.1672  -33.3774 C   0  0  0  0  0  0  0  0  0  0  0  0
    3.2796   -9.0623  -29.1821 C   0  0  0  0  0  0  0  0  0  0  0  0
    4.8709   -9.5921  -31.8037 C   0  0  0  0  0  0  0  0  0  0  0  0
    2.3900  -13.0425  -29.8030 O   0  0  0  0  0  0  0  0  0  0  0  0
    2.5728   -9.7737  -34.2793 O   0  0  0  0  0  0  0  0  0  0  0  0
    0.7151   -8.4251  -33.5762 C   0  0  0  0  0  0  0  0  0  0  0  0
    4.4328  -13.5614  -28.6535 C   0  0  0  0  0  0  0  0  0  0  0  0
    2.6675   -8.0636  -29.5226 O   0  5  0  0  0  0  0  0  0  0  0  0
    5.3494   -8.8486  -30.9630 O   0  5  0  0  0  0  0  0  0  0  0  0
    5.4814  -10.0591  -32.7513 O   0  0  0  0  0  0  0  0  0  0  0  0
    3.9393   -9.1623  -28.1610 O   0  0  0  0  0  0  0  0  0  0  0  0
    4.2652  -14.9609  -28.7075 C   0  0  0  0  0  0  0  0  0  0  0  0
    5.5014  -13.0333  -27.8931 C   0  0  0  0  0  0  0  0  0  0  0  0
   -0.0439   -8.0249  -32.4561 C   0  0  0  0  0  0  0  0  0  0  0  0
    0.2334   -8.1202  -34.8691 C   0  0  0  0  0  0  0  0  0  0  0  0
    5.1416  -15.8132  -28.0177 C   0  0  0  0  0  0  0  0  0  0  0  0
    6.3759  -13.8885  -27.2037 C   0  0  0  0  0  0  0  0  0  0  0  0
   -1.2584   -7.3401  -32.6244 C   0  0  0  0  0  0  0  0  0  0  0  0
   -0.9819   -7.4358  -35.0328 C   0  0  0  0  0  0  0  0  0  0  0  0
    6.1967  -15.2788  -27.2640 C   0  0  0  0  0  0  0  0  0  0  0  0
   -1.7289   -7.0464  -33.9122 C   0  0  0  0  0  0  0  0  0  0  0  0
    2.0673  -10.6033  -29.9975 H   0  0  0  0  0  0  0  0  0  0  0  0
    3.3037  -10.9987  -32.0789 H   0  0  0  0  0  0  0  0  0  0  0  0
    3.4909  -15.3621  -29.2593 H   0  0  0  0  0  0  0  0  0  0  0  0
    5.6397  -12.0118  -27.8444 H   0  0  0  0  0  0  0  0  0  0  0  0
    0.2963   -8.2371  -31.5053 H   0  0  0  0  0  0  0  0  0  0  0  0
    0.7785   -8.4024  -35.6987 H   0  0  0  0  0  0  0  0  0  0  0  0
    5.0093  -16.8356  -28.0653 H   0  0  0  0  0  0  0  0  0  0  0  0
    7.1527  -13.4935  -26.6510 H   0  0  0  0  0  0  0  0  0  0  0  0
   -1.8058   -7.0523  -31.7983 H   0  0  0  0  0  0  0  0  0  0  0  0
   -1.3261   -7.2189  -35.9812 H   0  0  0  0  0  0  0  0  0  0  0  0
    6.8392  -15.9061  -26.7553 H   0  0  0  0  0  0  0  0  0  0  0  0
   -2.6226   -6.5451  -34.0349 H   0  0  0  0  0  0  0  0  0  0  0  0
  1  2  1  0  0  0  0
  1  3  1  0  0  0  0
  1  7  1  0  0  0  0
  1 27  1  1  0  0  0
  2  4  1  0  0  0  0
  2  8  1  0  0  0  0
  2 28  1  6  0  0  0
  3  5  1  0  0  0  0
  4  6  1  0  0  0  0
  5  9  2  0  0  0  0
  5 12  1  0  0  0  0
  6 10  2  0  0  0  0
  6 11  1  0  0  0  0
  7 13  1  0  0  0  0
  7 16  2  0  0  0  0
  8 14  1  0  0  0  0
  8 15  2  0  0  0  0
 11 19  2  0  0  0  0
 11 20  1  0  0  0  0
 12 17  2  0  0  0  0
 12 18  1  0  0  0  0
 17 21  1  0  0  0  0
 17 29  1  0  0  0  0
 18 22  2  0  0  0  0
 18 30  1  0  0  0  0
 19 23  1  0  0  0  0
 19 31  1  0  0  0  0
 20 24  2  0  0  0  0
 20 32  1  0  0  0  0
 21 25  2  0  0  0  0
 21 33  1  0  0  0  0
 22 25  1  0  0  0  0
 22 34  1  0  0  0  0
 23 26  2  0  0  0  0
 23 35  1  0  0  0  0
 24 26  1  0  0  0  0
 24 36  1  0  0  0  0
 25 37  1  0  0  0  0
 26 38  1  0  0  0  0
M  CHG  2  13  -1  14  -1
M  END
$$$$
