HTS1710-00801512-01
 OpenBabel03232612343D

 55 56  0  0  1  0  0  0  0  0999 V2000
    3.8217  -12.1769  -31.5409 C   0  0  0  0  0  0  0  0  0  0  0  0
    3.7107  -13.1564  -30.3589 C   0  0  1  0  0  0  0  0  0  0  0  0
    0.6573   -9.2500  -34.5990 C   0  0  0  0  0  0  0  0  0  0  0  0
   -0.4597   -8.3001  -34.1329 C   0  0  1  0  0  0  0  0  0  0  0  0
    4.1578  -12.5364  -28.9967 C   0  0  1  0  0  0  0  0  0  0  0  0
   -0.2198   -7.7175  -32.7005 C   0  0  1  0  0  0  0  0  0  0  0  0
    3.4790  -11.1839  -28.6818 C   0  0  0  0  0  0  0  0  0  0  0  0
    1.1734   -7.0787  -32.5004 C   0  0  0  0  0  0  0  0  0  0  0  0
    2.9364  -12.2935  -32.6067 N   0  0  0  0  0  0  0  0  0  0  0  0
    0.6330  -10.5802  -34.1950 N   0  0  0  0  0  0  0  0  0  0  0  0
    4.7006  -11.3303  -31.5695 O   0  0  0  0  0  0  0  0  0  0  0  0
    1.5765   -8.8441  -35.2913 O   0  0  0  0  0  0  0  0  0  0  0  0
    2.5575  -11.1740  -27.8861 O   0  5  0  0  0  0  0  0  0  0  0  0
    1.2019   -5.8878  -32.2412 O   0  5  0  0  0  0  0  0  0  0  0  0
    2.1544   -7.7920  -32.6182 O   0  0  0  0  0  0  0  0  0  0  0  0
    3.9403  -10.1972  -29.2286 O   0  0  0  0  0  0  0  0  0  0  0  0
    1.6589  -11.5566  -34.5927 C   0  0  0  0  0  0  0  0  0  0  0  0
    2.9680  -11.4036  -33.7766 C   0  0  2  0  0  0  0  0  0  0  0  0
    2.3024  -13.8041  -30.2841 C   0  0  0  0  0  0  0  0  0  0  0  0
    4.0108  -13.5653  -27.8315 C   0  0  0  0  0  0  0  0  0  0  0  0
   -0.7529   -7.2021  -35.1915 C   0  0  0  0  0  0  0  0  0  0  0  0
   -1.3627   -6.7422  -32.2885 C   0  0  0  0  0  0  0  0  0  0  0  0
    4.2450  -11.6899  -34.6027 C   0  0  0  0  0  0  0  0  0  0  0  0
   -1.9235   -6.2896  -34.7586 C   0  0  0  0  0  0  0  0  0  0  0  0
   -1.6905   -5.6707  -33.3609 C   0  0  0  0  0  0  0  0  0  0  0  0
    2.6405  -14.2965  -27.7936 C   0  0  0  0  0  0  0  0  0  0  0  0
    2.2375  -14.8737  -29.1704 C   0  0  0  0  0  0  0  0  0  0  0  0
    4.4108  -13.9418  -30.5531 H   0  0  0  0  0  0  0  0  0  0  0  0
   -1.3460   -8.8931  -34.0440 H   0  0  0  0  0  0  0  0  0  0  0  0
    5.1982  -12.3067  -29.0955 H   0  0  0  0  0  0  0  0  0  0  0  0
   -0.2380   -8.5602  -32.0414 H   0  0  0  0  0  0  0  0  0  0  0  0
    2.2568  -13.0052  -32.5766 H   0  0  0  0  0  0  0  0  0  0  0  0
   -0.1041  -10.8823  -33.6165 H   0  0  0  0  0  0  0  0  0  0  0  0
    1.8822  -11.4173  -35.6298 H   0  0  0  0  0  0  0  0  0  0  0  0
    1.2690  -12.5350  -34.4037 H   0  0  0  0  0  0  0  0  0  0  0  0
    3.0150  -10.3789  -33.4719 H   0  0  0  0  0  0  0  0  0  0  0  0
    2.0798  -14.2648  -31.2238 H   0  0  0  0  0  0  0  0  0  0  0  0
    1.5890  -13.0387  -30.0606 H   0  0  0  0  0  0  0  0  0  0  0  0
    4.1382  -13.0439  -26.9059 H   0  0  0  0  0  0  0  0  0  0  0  0
    4.7552  -14.3173  -27.9910 H   0  0  0  0  0  0  0  0  0  0  0  0
   -1.0046   -7.6727  -36.1188 H   0  0  0  0  0  0  0  0  0  0  0  0
    0.1226   -6.5957  -35.2948 H   0  0  0  0  0  0  0  0  0  0  0  0
   -1.0704   -6.2409  -31.3895 H   0  0  0  0  0  0  0  0  0  0  0  0
   -2.2451   -7.3338  -32.1602 H   0  0  0  0  0  0  0  0  0  0  0  0
    4.2379  -12.7090  -34.9286 H   0  0  0  0  0  0  0  0  0  0  0  0
    5.1088  -11.5155  -33.9959 H   0  0  0  0  0  0  0  0  0  0  0  0
    4.2712  -11.0431  -35.4547 H   0  0  0  0  0  0  0  0  0  0  0  0
   -2.8224   -6.8694  -34.7340 H   0  0  0  0  0  0  0  0  0  0  0  0
   -1.9974   -5.4898  -35.4656 H   0  0  0  0  0  0  0  0  0  0  0  0
   -2.5756   -5.1473  -33.0648 H   0  0  0  0  0  0  0  0  0  0  0  0
   -0.8509   -5.0111  -33.4313 H   0  0  0  0  0  0  0  0  0  0  0  0
    2.6998  -15.0996  -27.0891 H   0  0  0  0  0  0  0  0  0  0  0  0
    1.8978  -13.5794  -27.5124 H   0  0  0  0  0  0  0  0  0  0  0  0
    1.2374  -15.2491  -29.1089 H   0  0  0  0  0  0  0  0  0  0  0  0
    2.9271  -15.6534  -29.4182 H   0  0  0  0  0  0  0  0  0  0  0  0
  1  2  1  0  0  0  0
  1  9  1  0  0  0  0
  1 11  2  0  0  0  0
  2  5  1  0  0  0  0
  2 19  1  0  0  0  0
  2 28  1  6  0  0  0
  3 10  1  0  0  0  0
  3  4  1  0  0  0  0
  3 12  2  0  0  0  0
  4  6  1  0  0  0  0
  4 21  1  0  0  0  0
  4 29  1  1  0  0  0
  5  7  1  0  0  0  0
  5 20  1  0  0  0  0
  5 30  1  6  0  0  0
  6  8  1  0  0  0  0
  6 22  1  0  0  0  0
  6 31  1  1  0  0  0
  7 13  1  0  0  0  0
  7 16  2  0  0  0  0
  8 14  1  0  0  0  0
  8 15  2  0  0  0  0
  9 18  1  0  0  0  0
  9 32  1  0  0  0  0
 10 17  1  0  0  0  0
 10 33  1  0  0  0  0
 17 18  1  0  0  0  0
 17 34  1  0  0  0  0
 17 35  1  0  0  0  0
 18 23  1  0  0  0  0
 18 36  1  1  0  0  0
 19 27  1  0  0  0  0
 19 37  1  0  0  0  0
 19 38  1  0  0  0  0
 20 26  1  0  0  0  0
 20 39  1  0  0  0  0
 20 40  1  0  0  0  0
 21 24  1  0  0  0  0
 21 41  1  0  0  0  0
 21 42  1  0  0  0  0
 22 25  1  0  0  0  0
 22 43  1  0  0  0  0
 22 44  1  0  0  0  0
 23 45  1  0  0  0  0
 23 46  1  0  0  0  0
 23 47  1  0  0  0  0
 24 25  1  0  0  0  0
 24 48  1  0  0  0  0
 24 49  1  0  0  0  0
 25 50  1  0  0  0  0
 25 51  1  0  0  0  0
 26 27  1  0  0  0  0
 26 52  1  0  0  0  0
 26 53  1  0  0  0  0
 27 54  1  0  0  0  0
 27 55  1  0  0  0  0
M  CHG  2  13  -1  14  -1
M  END
$$$$
