HTS1710-00419122-01
 OpenBabel03232612353D

 36 37  0  0  0  0  0  0  0  0999 V2000
    3.6602  -10.7618  -30.2968 C   0  0  0  0  0  0  0  0  0  0  0  0
    3.0112  -11.1192  -31.5256 C   0  0  0  0  0  0  0  0  0  0  0  0
    3.8838   -9.0575  -29.6924 S   0  0  0  0  0  0  0  0  0  0  0  0
    4.2409  -11.7816  -29.5051 C   0  0  0  0  0  0  0  0  0  0  0  0
    2.2409  -10.2233  -32.4652 C   0  0  0  0  0  0  0  0  0  0  0  0
    3.0623  -12.4752  -31.9299 C   0  0  0  0  0  0  0  0  0  0  0  0
    3.8987   -9.2167  -28.2353 O   0  0  0  0  0  0  0  0  0  0  0  0
    2.7235   -8.3243  -30.2097 O   0  0  0  0  0  0  0  0  0  0  0  0
    5.1589   -8.6742  -30.3057 O   0  0  0  0  0  1  0  0  0  0  0  0
    4.2432  -13.1190  -29.9196 C   0  0  0  0  0  0  0  0  0  0  0  0
    2.1905  -10.1153  -33.8226 C   0  0  0  0  0  0  0  0  0  0  0  0
    3.6676  -13.4625  -31.1432 C   0  0  0  0  0  0  0  0  0  0  0  0
    4.8224  -14.0858  -29.1332 N   0  0  0  0  0  0  0  0  0  0  0  0
    1.3711   -9.1685  -34.6605 C   0  0  0  0  0  0  0  0  0  0  0  0
    1.6790   -8.8807  -36.0278 C   0  0  0  0  0  0  0  0  0  0  0  0
    0.2565   -8.5177  -34.0776 C   0  0  0  0  0  0  0  0  0  0  0  0
    3.0763   -9.6520  -36.9104 S   0  0  0  0  0  0  0  0  0  0  0  0
    0.8789   -7.9589  -36.7413 C   0  0  0  0  0  0  0  0  0  0  0  0
   -0.5229   -7.6076  -34.8019 C   0  0  0  0  0  0  0  0  0  0  0  0
    3.0450   -9.0641  -38.2543 O   0  0  0  0  0  0  0  0  0  0  0  0
    2.7401  -11.0779  -36.8582 O   0  0  0  0  0  0  0  0  0  0  0  0
    4.2290   -9.2557  -36.0957 O   0  0  0  0  0  1  0  0  0  0  0  0
   -0.2112   -7.3228  -36.1337 C   0  0  0  0  0  0  0  0  0  0  0  0
   -0.9688   -6.4216  -36.8437 N   0  0  0  0  0  0  0  0  0  0  0  0
    4.6727  -11.5336  -28.6012 H   0  0  0  0  0  0  0  0  0  0  0  0
    1.6245   -9.5537  -31.9786 H   0  0  0  0  0  0  0  0  0  0  0  0
    2.6403  -12.7441  -32.8325 H   0  0  0  0  0  0  0  0  0  0  0  0
    2.7938  -10.7688  -34.3462 H   0  0  0  0  0  0  0  0  0  0  0  0
    3.6880  -14.4420  -31.4676 H   0  0  0  0  0  0  0  0  0  0  0  0
    5.2278  -13.8407  -28.2702 H   0  0  0  0  0  0  0  0  0  0  0  0
    4.8319  -15.0236  -29.4328 H   0  0  0  0  0  0  0  0  0  0  0  0
    0.0129   -8.7191  -33.0952 H   0  0  0  0  0  0  0  0  0  0  0  0
    1.1021   -7.7510  -37.7272 H   0  0  0  0  0  0  0  0  0  0  0  0
   -1.3288   -7.1466  -34.3514 H   0  0  0  0  0  0  0  0  0  0  0  0
   -0.7466   -6.2230  -37.7821 H   0  0  0  0  0  0  0  0  0  0  0  0
   -1.7336   -5.9748  -36.4138 H   0  0  0  0  0  0  0  0  0  0  0  0
  1  2  2  0  0  0  0
  1  3  1  0  0  0  0
  1  4  1  0  0  0  0
  2  5  1  0  0  0  0
  2  6  1  0  0  0  0
  3  7  2  0  0  0  0
  3  8  2  0  0  0  0
  3  9  1  0  0  0  0
  4 10  2  0  0  0  0
  4 25  1  0  0  0  0
  5 11  2  0  0  0  0
  5 26  1  0  0  0  0
  6 12  2  0  0  0  0
  6 27  1  0  0  0  0
 10 13  1  0  0  0  0
 10 12  1  0  0  0  0
 11 14  1  0  0  0  0
 11 28  1  0  0  0  0
 12 29  1  0  0  0  0
 13 30  1  0  0  0  0
 13 31  1  0  0  0  0
 14 15  2  0  0  0  0
 14 16  1  0  0  0  0
 15 17  1  0  0  0  0
 15 18  1  0  0  0  0
 16 19  2  0  0  0  0
 16 32  1  0  0  0  0
 17 20  2  0  0  0  0
 17 21  2  0  0  0  0
 17 22  1  0  0  0  0
 18 23  2  0  0  0  0
 18 33  1  0  0  0  0
 19 23  1  0  0  0  0
 19 34  1  0  0  0  0
 23 24  1  0  0  0  0
 24 35  1  0  0  0  0
 24 36  1  0  0  0  0
M  END
$$$$
