HTS1710-04394654-01
 OpenBabel03232612343D

 30 30  0  0  1  0  0  0  0  0999 V2000
    2.6607  -11.1528  -33.1004 N   0  0  0  0  0  0  0  0  0  0  0  0
    3.0804  -10.3563  -35.3811 C   0  0  0  0  0  0  0  0  0  0  0  0
    3.3781  -10.3893  -34.0264 C   0  0  0  0  0  0  0  0  0  0  0  0
    1.5925  -11.9667  -33.4796 C   0  0  0  0  0  0  0  0  0  0  0  0
    3.0914  -11.1236  -31.6709 C   0  0  2  0  0  0  0  0  0  0  0  0
    1.9707  -11.1609  -35.8368 C   0  0  0  0  0  0  0  0  0  0  0  0
    3.8738   -9.5290  -36.3283 C   0  0  0  0  0  0  0  0  0  0  0  0
    1.2836  -11.9162  -34.9159 C   0  0  0  0  0  0  0  0  0  0  0  0
    3.8365   -9.8002  -31.3775 C   0  0  0  0  0  0  0  0  0  0  0  0
    3.2865  -11.2572  -28.2783 C   0  0  0  0  0  0  0  0  0  0  0  0
    0.9603  -12.6660  -32.7040 O   0  0  0  0  0  0  0  0  0  0  0  0
    4.8453   -8.9370  -35.8903 O   0  5  0  0  0  0  0  0  0  0  0  0
    5.0531   -9.7876  -31.4624 O   0  5  0  0  0  0  0  0  0  0  0  0
    3.9892  -10.2754  -28.4390 O   0  5  0  0  0  0  0  0  0  0  0  0
    3.5091   -9.4848  -37.4905 O   0  0  0  0  0  0  0  0  0  0  0  0
    3.1472   -8.8456  -31.0646 O   0  0  0  0  0  0  0  0  0  0  0  0
    2.1677  -11.2558  -27.7940 O   0  0  0  0  0  0  0  0  0  0  0  0
    3.8993  -12.3961  -31.2741 C   0  0  0  0  0  0  0  0  0  0  0  0
    3.2995  -13.1271  -30.0437 C   0  0  0  0  0  0  0  0  0  0  0  0
    3.8679  -12.6144  -28.6966 C   0  0  0  0  0  0  0  0  0  0  0  0
    4.1692   -9.8213  -33.6848 H   0  0  0  0  0  0  0  0  0  0  0  0
    2.2238  -11.1474  -31.0453 H   0  0  0  0  0  0  0  0  0  0  0  0
    1.6994  -11.1689  -36.8325 H   0  0  0  0  0  0  0  0  0  0  0  0
    0.4952  -12.4880  -35.2572 H   0  0  0  0  0  0  0  0  0  0  0  0
    4.9033  -12.1061  -31.0442 H   0  0  0  0  0  0  0  0  0  0  0  0
    3.8626  -13.0732  -32.1017 H   0  0  0  0  0  0  0  0  0  0  0  0
    3.5156  -14.1715  -30.1293 H   0  0  0  0  0  0  0  0  0  0  0  0
    2.2469  -12.9352  -30.0400 H   0  0  0  0  0  0  0  0  0  0  0  0
    3.6410  -13.3317  -27.9357 H   0  0  0  0  0  0  0  0  0  0  0  0
    4.9226  -12.4858  -28.8224 H   0  0  0  0  0  0  0  0  0  0  0  0
  1  3  1  0  0  0  0
  1  4  1  0  0  0  0
  1  5  1  0  0  0  0
  2  3  2  0  0  0  0
  2  7  1  0  0  0  0
  2  6  1  0  0  0  0
  3 21  1  0  0  0  0
  4  8  1  0  0  0  0
  4 11  2  0  0  0  0
  5  9  1  0  0  0  0
  5 18  1  0  0  0  0
  5 22  1  1  0  0  0
  6  8  2  0  0  0  0
  6 23  1  0  0  0  0
  7 12  1  0  0  0  0
  7 15  2  0  0  0  0
  8 24  1  0  0  0  0
  9 13  1  0  0  0  0
  9 16  2  0  0  0  0
 10 20  1  0  0  0  0
 10 14  1  0  0  0  0
 10 17  2  0  0  0  0
 18 19  1  0  0  0  0
 18 25  1  0  0  0  0
 18 26  1  0  0  0  0
 19 20  1  0  0  0  0
 19 27  1  0  0  0  0
 19 28  1  0  0  0  0
 20 29  1  0  0  0  0
 20 30  1  0  0  0  0
M  CHG  3  12  -1  13  -1  14  -1
M  END
$$$$
