HTS1710-03125862-01
 OpenBabel03232612353D

 32 34  0  0  0  0  0  0  0  0999 V2000
    0.6884   -7.6585  -32.8502 N   0  0  0  0  0  0  0  0  0  0  0  0
   -0.2823   -8.1540  -33.7244 C   0  0  0  0  0  0  0  0  0  0  0  0
    0.3504   -6.3779  -32.4059 C   0  0  0  0  0  0  0  0  0  0  0  0
   -1.3238   -7.0987  -33.8413 C   0  0  0  0  0  0  0  0  0  0  0  0
   -0.9393   -6.0330  -33.0577 C   0  0  0  0  0  0  0  0  0  0  0  0
    1.8726   -8.3637  -32.4649 C   0  0  0  0  0  0  0  0  0  0  0  0
   -2.5096   -7.0768  -34.5842 C   0  0  0  0  0  0  0  0  0  0  0  0
    3.3403   -9.2466  -30.7123 C   0  0  0  0  0  0  0  0  0  0  0  0
    3.9183   -9.5668  -33.0765 C   0  0  0  0  0  0  0  0  0  0  0  0
    3.6505   -9.4473  -29.2451 C   0  0  0  0  0  0  0  0  0  0  0  0
    4.8520  -10.1031  -34.1387 C   0  0  0  0  0  0  0  0  0  0  0  0
   -3.3277   -5.9202  -34.5162 C   0  0  0  0  0  0  0  0  0  0  0  0
    2.1790   -8.5506  -31.1040 C   0  0  0  0  0  0  0  0  0  0  0  0
    2.7447   -8.8777  -33.4429 C   0  0  0  0  0  0  0  0  0  0  0  0
   -4.6200   -5.8499  -35.2991 C   0  0  0  0  0  0  0  0  0  0  0  0
    4.2056   -9.7480  -31.7070 C   0  0  0  0  0  0  0  0  0  0  0  0
   -1.7169   -4.8749  -32.9661 C   0  0  0  0  0  0  0  0  0  0  0  0
   -0.2722   -9.2263  -34.3033 O   0  0  0  0  0  0  0  0  0  0  0  0
    0.9705   -5.6843  -31.6185 O   0  0  0  0  0  0  0  0  0  0  0  0
   -2.9172   -4.8260  -33.7029 C   0  0  0  0  0  0  0  0  0  0  0  0
    4.4071  -10.3557  -28.9478 O   0  5  0  0  0  0  0  0  0  0  0  0
    5.7538  -10.8408  -33.7780 O   0  5  0  0  0  0  0  0  0  0  0  0
   -5.2061   -4.7811  -35.3260 O   0  5  0  0  0  0  0  0  0  0  0  0
    4.6457   -9.7650  -35.2922 O   0  0  0  0  0  0  0  0  0  0  0  0
    3.1252   -8.6868  -28.4501 O   0  0  0  0  0  0  0  0  0  0  0  0
   -4.9974   -6.8664  -35.8575 O   0  0  0  0  0  0  0  0  0  0  0  0
   -2.7825   -7.8831  -35.1677 H   0  0  0  0  0  0  0  0  0  0  0  0
    1.5447   -8.1728  -30.3830 H   0  0  0  0  0  0  0  0  0  0  0  0
    2.5218   -8.7482  -34.4422 H   0  0  0  0  0  0  0  0  0  0  0  0
    5.0608  -10.2544  -31.4292 H   0  0  0  0  0  0  0  0  0  0  0  0
   -1.4210   -4.0806  -32.3774 H   0  0  0  0  0  0  0  0  0  0  0  0
   -3.5092   -3.9823  -33.6520 H   0  0  0  0  0  0  0  0  0  0  0  0
  1  2  1  0  0  0  0
  1  3  1  0  0  0  0
  1  6  1  0  0  0  0
  2  4  1  0  0  0  0
  2 18  2  0  0  0  0
  3  5  1  0  0  0  0
  3 19  2  0  0  0  0
  4  5  2  0  0  0  0
  4  7  1  0  0  0  0
  5 17  1  0  0  0  0
  6 13  2  0  0  0  0
  6 14  1  0  0  0  0
  7 12  2  0  0  0  0
  7 27  1  0  0  0  0
  8 10  1  0  0  0  0
  8 13  1  0  0  0  0
  8 16  2  0  0  0  0
  9 11  1  0  0  0  0
  9 14  2  0  0  0  0
  9 16  1  0  0  0  0
 10 21  1  0  0  0  0
 10 25  2  0  0  0  0
 11 22  1  0  0  0  0
 11 24  2  0  0  0  0
 12 15  1  0  0  0  0
 12 20  1  0  0  0  0
 13 28  1  0  0  0  0
 14 29  1  0  0  0  0
 15 23  1  0  0  0  0
 15 26  2  0  0  0  0
 16 30  1  0  0  0  0
 17 20  2  0  0  0  0
 17 31  1  0  0  0  0
 20 32  1  0  0  0  0
M  CHG  3  21  -1  22  -1  23  -1
M  END
$$$$
