HTS1710-04762233-01
 OpenBabel03232612353D

 42 43  0  0  1  0  0  0  0  0999 V2000
    2.3727  -10.3234  -36.2297 C   0  0  0  0  0  0  0  0  0  0  0  0
    3.2228  -11.0213  -35.2446 N   0  0  0  0  0  0  0  0  0  0  0  0
    4.6797  -10.7877  -35.3796 C   0  0  0  0  0  0  0  0  0  0  0  0
    5.1491   -9.6227  -34.5481 C   0  0  0  0  0  0  0  0  0  0  0  0
    4.8550   -9.4552  -33.2215 C   0  0  0  0  0  0  0  0  0  0  0  0
    5.4641   -8.2222  -32.8657 C   0  0  0  0  0  0  0  0  0  0  0  0
    5.4266   -7.5862  -31.5270 C   0  0  0  0  0  0  0  0  0  0  0  0
    5.1579   -6.3997  -31.4539 O   0  5  0  0  0  0  0  0  0  0  0  0
    5.6705   -8.2987  -30.5687 O   0  0  0  0  0  0  0  0  0  0  0  0
    6.0588   -7.7989  -34.0376 C   0  0  0  0  0  0  0  0  0  0  0  0
    6.8379   -6.5193  -34.2165 C   0  0  0  0  0  0  0  0  0  0  0  0
    5.9016   -8.6321  -35.1156 O   0  0  0  0  0  0  0  0  0  0  0  0
    2.6499  -11.8562  -34.2756 C   0  0  0  0  0  0  0  0  0  0  0  0
    1.4419  -12.0167  -34.1946 O   0  0  0  0  0  0  0  0  0  0  0  0
    3.6184  -12.5604  -33.3059 C   0  0  0  0  0  0  0  0  0  0  0  0
    3.1140  -12.5202  -31.9547 O   0  0  0  0  0  0  0  0  0  0  0  0
    3.6283  -13.5289  -31.0592 C   0  0  0  0  0  0  0  0  0  0  0  0
    2.7984  -13.5490  -29.7497 C   0  0  1  0  0  0  0  0  0  0  0  0
    2.9291  -14.8604  -28.9473 C   0  0  0  0  0  0  0  0  0  0  0  0
    2.8616  -14.4144  -27.4741 C   0  0  0  0  0  0  0  0  0  0  0  0
    2.7558  -12.8801  -27.5411 C   0  0  0  0  0  0  0  0  0  0  0  0
    3.3036  -12.5681  -28.8288 O   0  0  0  0  0  0  0  0  0  0  0  0
    2.9880   -9.7382  -36.8807 H   0  0  0  0  0  0  0  0  0  0  0  0
    1.6854   -9.6830  -35.7174 H   0  0  0  0  0  0  0  0  0  0  0  0
    1.8287  -11.0433  -36.8047 H   0  0  0  0  0  0  0  0  0  0  0  0
    4.9032  -10.5898  -36.4072 H   0  0  0  0  0  0  0  0  0  0  0  0
    5.1862  -11.6640  -35.0325 H   0  0  0  0  0  0  0  0  0  0  0  0
    4.3103  -10.0865  -32.6134 H   0  0  0  0  0  0  0  0  0  0  0  0
    6.8681   -5.9874  -33.2886 H   0  0  0  0  0  0  0  0  0  0  0  0
    6.3629   -5.9135  -34.9597 H   0  0  0  0  0  0  0  0  0  0  0  0
    7.8353   -6.7497  -34.5281 H   0  0  0  0  0  0  0  0  0  0  0  0
    4.5679  -12.0682  -33.3402 H   0  0  0  0  0  0  0  0  0  0  0  0
    3.7167  -13.5834  -33.6038 H   0  0  0  0  0  0  0  0  0  0  0  0
    4.6498  -13.3097  -30.8281 H   0  0  0  0  0  0  0  0  0  0  0  0
    3.5604  -14.4860  -31.5325 H   0  0  0  0  0  0  0  0  0  0  0  0
    1.7924  -13.3890  -30.0771 H   0  0  0  0  0  0  0  0  0  0  0  0
    3.8623  -15.3407  -29.1556 H   0  0  0  0  0  0  0  0  0  0  0  0
    2.1663  -15.5687  -29.1951 H   0  0  0  0  0  0  0  0  0  0  0  0
    3.7455  -14.7101  -26.9485 H   0  0  0  0  0  0  0  0  0  0  0  0
    2.0391  -14.8569  -26.9521 H   0  0  0  0  0  0  0  0  0  0  0  0
    3.3264  -12.4220  -26.7604 H   0  0  0  0  0  0  0  0  0  0  0  0
    1.7551  -12.5233  -27.4138 H   0  0  0  0  0  0  0  0  0  0  0  0
  1  2  1  0  0  0  0
  1 23  1  0  0  0  0
  1 24  1  0  0  0  0
  1 25  1  0  0  0  0
  2  3  1  0  0  0  0
  2 13  1  0  0  0  0
  3  4  1  0  0  0  0
  3 26  1  0  0  0  0
  3 27  1  0  0  0  0
  4  5  2  0  0  0  0
  4 12  1  0  0  0  0
  5  6  1  0  0  0  0
  5 28  1  0  0  0  0
  6  7  1  0  0  0  0
  6 10  2  0  0  0  0
  7  8  1  0  0  0  0
  7  9  2  0  0  0  0
 10 11  1  0  0  0  0
 10 12  1  0  0  0  0
 11 29  1  0  0  0  0
 11 30  1  0  0  0  0
 11 31  1  0  0  0  0
 13 14  2  0  0  0  0
 13 15  1  0  0  0  0
 15 16  1  0  0  0  0
 15 32  1  0  0  0  0
 15 33  1  0  0  0  0
 16 17  1  0  0  0  0
 17 18  1  0  0  0  0
 17 34  1  0  0  0  0
 17 35  1  0  0  0  0
 18 19  1  0  0  0  0
 18 22  1  0  0  0  0
 18 36  1  6  0  0  0
 19 20  1  0  0  0  0
 19 37  1  0  0  0  0
 19 38  1  0  0  0  0
 20 21  1  0  0  0  0
 20 39  1  0  0  0  0
 20 40  1  0  0  0  0
 21 22  1  0  0  0  0
 21 41  1  0  0  0  0
 21 42  1  0  0  0  0
M  CHG  1   8  -1
M  END
$$$$
