HTS1710-02798465-01
 OpenBabel03232612363D

 36 36  0  0  1  0  0  0  0  0999 V2000
    3.6223  -12.3836  -32.3768 S   0  0  0  0  0  0  0  0  0  0  0  0
    4.4103  -11.0779  -33.3643 C   0  0  0  0  0  0  0  0  0  0  0  0
    4.0229  -12.0565  -30.7516 N   0  0  0  0  0  0  0  0  0  0  0  0
    2.9924  -12.1974  -29.6970 C   0  0  2  0  0  0  0  0  0  0  0  0
    4.9319   -9.9480  -32.7013 C   0  0  0  0  0  0  0  0  0  0  0  0
    3.1384  -11.1163  -28.6058 C   0  0  0  0  0  0  0  0  0  0  0  0
    5.5386   -8.8944  -33.4191 C   0  0  0  0  0  0  0  0  0  0  0  0
    6.0965   -7.6858  -32.6966 C   0  0  0  0  0  0  0  0  0  0  0  0
    2.1669  -12.2054  -32.4114 O   0  0  0  0  0  0  0  0  0  0  0  0
    4.2616  -13.6706  -32.6673 O   0  0  0  0  0  0  0  0  0  0  0  0
    4.4924  -11.1484  -34.7753 C   0  0  0  0  0  0  0  0  0  0  0  0
    3.9495  -10.2233  -28.7873 O   0  5  0  0  0  0  0  0  0  0  0  0
    6.9299   -7.0140  -33.2790 O   0  5  0  0  0  0  0  0  0  0  0  0
    5.6139   -8.9874  -34.8235 C   0  0  0  0  0  0  0  0  0  0  0  0
    5.0939  -10.1039  -35.4921 C   0  0  0  0  0  0  0  0  0  0  0  0
    3.0036  -13.6528  -29.1240 C   0  0  2  0  0  0  0  0  0  0  0  0
    2.4036  -11.2115  -27.6393 O   0  0  0  0  0  0  0  0  0  0  0  0
    5.6775   -7.4567  -31.5752 O   0  0  0  0  0  0  0  0  0  0  0  0
    3.8188  -12.4902  -35.6893 Cl  0  0  0  0  0  0  0  0  0  0  0  0
    4.4398  -14.2526  -29.0355 C   0  0  0  0  0  0  0  0  0  0  0  0
    2.0708  -14.6190  -29.9055 C   0  0  0  0  0  0  0  0  0  0  0  0
    5.2208  -13.8256  -27.7687 C   0  0  0  0  0  0  0  0  0  0  0  0
    4.3512  -11.0913  -30.7169 H   0  0  0  0  0  0  0  0  0  0  0  0
    2.0291  -12.0348  -30.1336 H   0  0  0  0  0  0  0  0  0  0  0  0
    4.8692   -9.8903  -31.6728 H   0  0  0  0  0  0  0  0  0  0  0  0
    6.0556   -8.2271  -35.3638 H   0  0  0  0  0  0  0  0  0  0  0  0
    5.1541  -10.1579  -36.5209 H   0  0  0  0  0  0  0  0  0  0  0  0
    2.6196  -13.5597  -28.1296 H   0  0  0  0  0  0  0  0  0  0  0  0
    4.9916  -13.9336  -29.8950 H   0  0  0  0  0  0  0  0  0  0  0  0
    4.3301  -15.3159  -28.9892 H   0  0  0  0  0  0  0  0  0  0  0  0
    2.4317  -14.7313  -30.9065 H   0  0  0  0  0  0  0  0  0  0  0  0
    1.0791  -14.2179  -29.9269 H   0  0  0  0  0  0  0  0  0  0  0  0
    2.0594  -15.5731  -29.4213 H   0  0  0  0  0  0  0  0  0  0  0  0
    5.3544  -12.7640  -27.7729 H   0  0  0  0  0  0  0  0  0  0  0  0
    6.1771  -14.3054  -27.7607 H   0  0  0  0  0  0  0  0  0  0  0  0
    4.6706  -14.1124  -26.8969 H   0  0  0  0  0  0  0  0  0  0  0  0
  1  2  1  0  0  0  0
  1  3  1  0  0  0  0
  1  9  2  0  0  0  0
  1 10  2  0  0  0  0
  2  5  2  0  0  0  0
  2 11  1  0  0  0  0
  3  4  1  0  0  0  0
  3 23  1  0  0  0  0
  4  6  1  0  0  0  0
  4 16  1  0  0  0  0
  4 24  1  6  0  0  0
  5  7  1  0  0  0  0
  5 25  1  0  0  0  0
  6 12  1  0  0  0  0
  6 17  2  0  0  0  0
  7  8  1  0  0  0  0
  7 14  2  0  0  0  0
  8 13  1  0  0  0  0
  8 18  2  0  0  0  0
 11 15  2  0  0  0  0
 11 19  1  0  0  0  0
 14 15  1  0  0  0  0
 14 26  1  0  0  0  0
 15 27  1  0  0  0  0
 16 20  1  0  0  0  0
 16 21  1  0  0  0  0
 16 28  1  1  0  0  0
 20 22  1  0  0  0  0
 20 29  1  0  0  0  0
 20 30  1  0  0  0  0
 21 31  1  0  0  0  0
 21 32  1  0  0  0  0
 21 33  1  0  0  0  0
 22 34  1  0  0  0  0
 22 35  1  0  0  0  0
 22 36  1  0  0  0  0
M  CHG  2  12  -1  13  -1
M  END
$$$$
