HTS1710-01152660-01
 OpenBabel03232612353D

 47 49  0  0  1  0  0  0  0  0999 V2000
    3.4384   -7.6475  -31.6148 C   0  0  0  0  0  0  0  0  0  0  0  0
    3.8356   -9.4628  -33.3437 C   0  0  0  0  0  0  0  0  0  0  0  0
    2.0783   -7.4988  -31.3860 C   0  0  0  0  0  0  0  0  0  0  0  0
    4.8280  -10.1335  -34.0475 C   0  0  0  0  0  0  0  0  0  0  0  0
    4.0249   -9.0246  -31.8964 C   0  0  2  0  0  0  0  0  0  0  0  0
    4.6303  -10.5573  -35.4432 C   0  0  0  0  0  0  0  0  0  0  0  0
    1.4844   -6.1828  -31.0987 C   0  0  0  0  0  0  0  0  0  0  0  0
    2.6064   -9.1416  -33.8877 O   0  0  0  0  0  0  0  0  0  0  0  0
    4.3295   -6.5921  -31.5949 O   0  0  0  0  0  0  0  0  0  0  0  0
    2.4724   -5.1060  -31.0939 C   0  0  0  0  0  0  0  0  0  0  0  0
    3.3149  -10.1919  -35.9634 C   0  0  0  0  0  0  0  0  0  0  0  0
    3.8075   -5.3433  -31.3377 C   0  0  0  0  0  0  0  0  0  0  0  0
    2.3876   -9.5231  -35.1945 C   0  0  0  0  0  0  0  0  0  0  0  0
    3.5881  -10.1078  -30.9012 C   0  0  0  0  0  0  0  0  0  0  0  0
    0.2978   -5.9939  -30.8873 O   0  0  0  0  0  0  0  0  0  0  0  0
    5.4622  -11.1520  -36.1076 O   0  0  0  0  0  0  0  0  0  0  0  0
    1.1850   -8.5144  -31.4078 O   0  0  0  0  0  0  0  0  0  0  0  0
    6.0362  -10.4734  -33.5426 O   0  0  0  0  0  0  0  0  0  0  0  0
    3.4842   -9.7796  -29.5360 C   0  0  0  0  0  0  0  0  0  0  0  0
    3.2828  -11.4237  -31.3109 C   0  0  0  0  0  0  0  0  0  0  0  0
    2.7710  -12.0509  -29.0118 C   0  0  0  0  0  0  0  0  0  0  0  0
    2.8783  -12.3837  -30.3718 C   0  0  0  0  0  0  0  0  0  0  0  0
    3.0794  -10.7396  -28.5945 C   0  0  0  0  0  0  0  0  0  0  0  0
    4.7906   -4.2025  -31.3220 C   0  0  0  0  0  0  0  0  0  0  0  0
    1.0458   -9.1700  -35.7812 C   0  0  0  0  0  0  0  0  0  0  0  0
    2.3625  -13.0310  -28.1284 O   0  0  0  0  0  0  0  0  0  0  0  0
    0.5221   -7.9875  -35.1842 O   0  0  0  0  0  0  0  0  0  0  0  0
    6.0734   -4.6447  -30.8919 O   0  0  0  0  0  0  0  0  0  0  0  0
    2.3283  -14.4277  -28.4689 C   0  0  0  0  0  0  0  0  0  0  0  0
    5.0771   -8.9064  -31.7425 H   0  0  0  0  0  0  0  0  0  0  0  0
    2.1613   -4.1408  -30.9026 H   0  0  0  0  0  0  0  0  0  0  0  0
    3.0733  -10.4420  -36.9351 H   0  0  0  0  0  0  0  0  0  0  0  0
    0.2787   -8.3449  -31.2405 H   0  0  0  0  0  0  0  0  0  0  0  0
    6.6469  -10.9501  -34.0697 H   0  0  0  0  0  0  0  0  0  0  0  0
    3.7082   -8.8219  -29.2235 H   0  0  0  0  0  0  0  0  0  0  0  0
    3.3577  -11.6810  -32.3075 H   0  0  0  0  0  0  0  0  0  0  0  0
    2.6575  -13.3426  -30.6829 H   0  0  0  0  0  0  0  0  0  0  0  0
    3.0076  -10.4854  -27.5969 H   0  0  0  0  0  0  0  0  0  0  0  0
    4.4383   -3.4454  -30.6529 H   0  0  0  0  0  0  0  0  0  0  0  0
    4.8779   -3.8122  -32.3144 H   0  0  0  0  0  0  0  0  0  0  0  0
    0.3659   -9.9785  -35.6109 H   0  0  0  0  0  0  0  0  0  0  0  0
    1.1675   -8.9969  -36.8302 H   0  0  0  0  0  0  0  0  0  0  0  0
   -0.3479   -7.7910  -35.5653 H   0  0  0  0  0  0  0  0  0  0  0  0
    6.6935   -3.8989  -30.9045 H   0  0  0  0  0  0  0  0  0  0  0  0
    1.9796  -14.9912  -27.6288 H   0  0  0  0  0  0  0  0  0  0  0  0
    3.3121  -14.7543  -28.7340 H   0  0  0  0  0  0  0  0  0  0  0  0
    1.6676  -14.5767  -29.2973 H   0  0  0  0  0  0  0  0  0  0  0  0
  1  3  2  0  0  0  0
  1  5  1  0  0  0  0
  1  9  1  0  0  0  0
  2  5  1  0  0  0  0
  2  4  2  0  0  0  0
  2  8  1  0  0  0  0
  3  7  1  0  0  0  0
  3 17  1  0  0  0  0
  4  6  1  0  0  0  0
  4 18  1  0  0  0  0
  5 14  1  0  0  0  0
  5 30  1  1  0  0  0
  6 16  2  0  0  0  0
  6 11  1  0  0  0  0
  7 15  2  0  0  0  0
  7 10  1  0  0  0  0
  8 13  1  0  0  0  0
  9 12  1  0  0  0  0
 10 12  2  0  0  0  0
 10 31  1  0  0  0  0
 11 13  2  0  0  0  0
 11 32  1  0  0  0  0
 12 24  1  0  0  0  0
 13 25  1  0  0  0  0
 14 19  2  0  0  0  0
 14 20  1  0  0  0  0
 17 33  1  0  0  0  0
 18 34  1  0  0  0  0
 19 23  1  0  0  0  0
 19 35  1  0  0  0  0
 20 22  2  0  0  0  0
 20 36  1  0  0  0  0
 21 22  1  0  0  0  0
 21 26  1  0  0  0  0
 21 23  2  0  0  0  0
 22 37  1  0  0  0  0
 23 38  1  0  0  0  0
 24 28  1  0  0  0  0
 24 39  1  0  0  0  0
 24 40  1  0  0  0  0
 25 27  1  0  0  0  0
 25 41  1  0  0  0  0
 25 42  1  0  0  0  0
 26 29  1  0  0  0  0
 27 43  1  0  0  0  0
 28 44  1  0  0  0  0
 29 45  1  0  0  0  0
 29 46  1  0  0  0  0
 29 47  1  0  0  0  0
M  END
$$$$
