HTS1710-04762166-01
 OpenBabel03232612343D

 45 46  0  0  1  0  0  0  0  0999 V2000
    2.0357   -9.9305  -36.1235 C   0  0  0  0  0  0  0  0  0  0  0  0
    3.0850  -10.8293  -35.5972 N   0  0  0  0  0  0  0  0  0  0  0  0
    4.4707  -10.4508  -35.9436 C   0  0  0  0  0  0  0  0  0  0  0  0
    5.0314   -9.4247  -34.9955 C   0  0  0  0  0  0  0  0  0  0  0  0
    4.8783   -9.4696  -33.6353 C   0  0  0  0  0  0  0  0  0  0  0  0
    5.5656   -8.3260  -33.1522 C   0  0  0  0  0  0  0  0  0  0  0  0
    5.6950   -7.9224  -31.7311 C   0  0  0  0  0  0  0  0  0  0  0  0
    6.0237   -6.7769  -31.4786 O   0  5  0  0  0  0  0  0  0  0  0  0
    5.4621   -8.7744  -30.8909 O   0  0  0  0  0  0  0  0  0  0  0  0
    6.0549   -7.7268  -34.2970 C   0  0  0  0  0  0  0  0  0  0  0  0
    6.8751   -6.4628  -34.3452 C   0  0  0  0  0  0  0  0  0  0  0  0
    5.7535   -8.3666  -35.4730 O   0  0  0  0  0  0  0  0  0  0  0  0
    2.8122  -11.9429  -34.7924 C   0  0  0  0  0  0  0  0  0  0  0  0
    1.6740  -12.2492  -34.4773 O   0  0  0  0  0  0  0  0  0  0  0  0
    4.0304  -12.7472  -34.2909 C   0  0  0  0  0  0  0  0  0  0  0  0
    3.6938  -13.6603  -33.0824 C   0  0  0  0  0  0  0  0  0  0  0  0
    3.9545  -12.9558  -31.8530 O   0  0  0  0  0  0  0  0  0  0  0  0
    4.3752  -13.7762  -30.7443 C   0  0  0  0  0  0  0  0  0  0  0  0
    4.5334  -12.8636  -29.5009 C   0  0  1  0  0  0  0  0  0  0  0  0
    3.1901  -12.3308  -28.9500 C   0  0  0  0  0  0  0  0  0  0  0  0
    2.8540  -13.2495  -27.7588 C   0  0  0  0  0  0  0  0  0  0  0  0
    3.9681  -14.3093  -27.7604 C   0  0  0  0  0  0  0  0  0  0  0  0
    5.0605  -13.6378  -28.4068 O   0  0  0  0  0  0  0  0  0  0  0  0
    2.4887   -9.1571  -36.7080 H   0  0  0  0  0  0  0  0  0  0  0  0
    1.4987   -9.4931  -35.3078 H   0  0  0  0  0  0  0  0  0  0  0  0
    1.3602  -10.4909  -36.7355 H   0  0  0  0  0  0  0  0  0  0  0  0
    4.4805  -10.0469  -36.9344 H   0  0  0  0  0  0  0  0  0  0  0  0
    5.0786  -11.3287  -35.8762 H   0  0  0  0  0  0  0  0  0  0  0  0
    4.3735  -10.1799  -33.0824 H   0  0  0  0  0  0  0  0  0  0  0  0
    7.0195   -6.0932  -33.3516 H   0  0  0  0  0  0  0  0  0  0  0  0
    6.3622   -5.7268  -34.9285 H   0  0  0  0  0  0  0  0  0  0  0  0
    7.8258   -6.6713  -34.7898 H   0  0  0  0  0  0  0  0  0  0  0  0
    4.7960  -12.0599  -33.9970 H   0  0  0  0  0  0  0  0  0  0  0  0
    4.3501  -13.3798  -35.0926 H   0  0  0  0  0  0  0  0  0  0  0  0
    4.2998  -14.5412  -33.1227 H   0  0  0  0  0  0  0  0  0  0  0  0
    2.6598  -13.9329  -33.1218 H   0  0  0  0  0  0  0  0  0  0  0  0
    5.3108  -14.2425  -30.9730 H   0  0  0  0  0  0  0  0  0  0  0  0
    3.6508  -14.5400  -30.5531 H   0  0  0  0  0  0  0  0  0  0  0  0
    5.1575  -12.0570  -29.8248 H   0  0  0  0  0  0  0  0  0  0  0  0
    2.4270  -12.3903  -29.6977 H   0  0  0  0  0  0  0  0  0  0  0  0
    3.2546  -11.3031  -28.6588 H   0  0  0  0  0  0  0  0  0  0  0  0
    1.8965  -13.7078  -27.8936 H   0  0  0  0  0  0  0  0  0  0  0  0
    2.8050  -12.7136  -26.8340 H   0  0  0  0  0  0  0  0  0  0  0  0
    3.6711  -15.1770  -28.3117 H   0  0  0  0  0  0  0  0  0  0  0  0
    4.2134  -14.6610  -26.7800 H   0  0  0  0  0  0  0  0  0  0  0  0
  1  2  1  0  0  0  0
  1 24  1  0  0  0  0
  1 25  1  0  0  0  0
  1 26  1  0  0  0  0
  2  3  1  0  0  0  0
  2 13  1  0  0  0  0
  3  4  1  0  0  0  0
  3 27  1  0  0  0  0
  3 28  1  0  0  0  0
  4  5  2  0  0  0  0
  4 12  1  0  0  0  0
  5  6  1  0  0  0  0
  5 29  1  0  0  0  0
  6  7  1  0  0  0  0
  6 10  2  0  0  0  0
  7  8  1  0  0  0  0
  7  9  2  0  0  0  0
 10 11  1  0  0  0  0
 10 12  1  0  0  0  0
 11 30  1  0  0  0  0
 11 31  1  0  0  0  0
 11 32  1  0  0  0  0
 13 14  2  0  0  0  0
 13 15  1  0  0  0  0
 15 16  1  0  0  0  0
 15 33  1  0  0  0  0
 15 34  1  0  0  0  0
 16 17  1  0  0  0  0
 16 35  1  0  0  0  0
 16 36  1  0  0  0  0
 17 18  1  0  0  0  0
 18 19  1  0  0  0  0
 18 37  1  0  0  0  0
 18 38  1  0  0  0  0
 19 20  1  0  0  0  0
 19 23  1  0  0  0  0
 19 39  1  6  0  0  0
 20 21  1  0  0  0  0
 20 40  1  0  0  0  0
 20 41  1  0  0  0  0
 21 22  1  0  0  0  0
 21 42  1  0  0  0  0
 21 43  1  0  0  0  0
 22 23  1  0  0  0  0
 22 44  1  0  0  0  0
 22 45  1  0  0  0  0
M  CHG  1   8  -1
M  END
$$$$
