HTS1710-01227825-01
 OpenBabel03232612353D

 43 46  0  0  1  0  0  0  0  0999 V2000
    1.2485   -8.6685  -33.7361 C   0  0  0  0  0  0  0  0  0  0  0  0
    1.3961   -8.9656  -35.1593 C   0  0  0  0  0  0  0  0  0  0  0  0
    2.9906  -10.2157  -32.4362 C   0  0  1  0  0  0  0  0  0  0  0  0
    4.0166   -9.8211  -31.3906 C   0  0  0  0  0  0  0  0  0  0  0  0
    0.4314   -8.2739  -35.7675 N   0  0  0  0  0  0  0  0  0  0  0  0
    4.0704  -10.5976  -30.3639 N   0  0  0  0  0  0  0  0  0  0  0  0
   -0.2855   -7.5462  -34.8659 N   0  0  0  0  0  0  0  0  0  0  0  0
    3.1445  -11.5904  -30.5128 N   0  0  0  0  0  0  0  0  0  0  0  0
    0.1589   -7.7071  -33.5832 C   0  0  0  0  0  0  0  0  0  0  0  0
    2.4405  -11.4350  -31.7017 C   0  0  0  0  0  0  0  0  0  0  0  0
    1.8973   -9.1777  -32.6330 C   0  0  0  0  0  0  0  0  0  0  0  0
    2.3782   -9.7625  -35.9509 C   0  0  0  0  0  0  0  0  0  0  0  0
    4.8815   -8.5953  -31.4482 C   0  0  0  0  0  0  0  0  0  0  0  0
   -1.3411   -6.7075  -35.3339 C   0  0  0  0  0  0  0  0  0  0  0  0
    2.9675  -12.6252  -29.5452 C   0  0  0  0  0  0  0  0  0  0  0  0
   -0.2908   -7.1981  -32.5698 O   0  0  0  0  0  0  0  0  0  0  0  0
    1.5127  -12.1303  -32.0810 O   0  0  0  0  0  0  0  0  0  0  0  0
    4.6762   -7.7914  -32.3434 O   0  5  0  0  0  0  0  0  0  0  0  0
    3.5511   -9.4360  -35.8628 O   0  5  0  0  0  0  0  0  0  0  0  0
    5.7461   -8.4811  -30.5976 O   0  0  0  0  0  0  0  0  0  0  0  0
    1.9961  -10.7067  -36.6104 O   0  0  0  0  0  0  0  0  0  0  0  0
   -1.0686   -5.6356  -36.2085 C   0  0  0  0  0  0  0  0  0  0  0  0
   -2.6715   -6.9406  -34.9281 C   0  0  0  0  0  0  0  0  0  0  0  0
    2.7943  -13.9607  -29.9650 C   0  0  0  0  0  0  0  0  0  0  0  0
    2.9458  -12.3321  -28.1655 C   0  0  0  0  0  0  0  0  0  0  0  0
   -3.7093   -6.1121  -35.3864 C   0  0  0  0  0  0  0  0  0  0  0  0
    2.6177  -14.9854  -29.0214 C   0  0  0  0  0  0  0  0  0  0  0  0
    2.7695  -13.3589  -27.2238 C   0  0  0  0  0  0  0  0  0  0  0  0
   -2.1079   -4.8105  -36.6665 C   0  0  0  0  0  0  0  0  0  0  0  0
    2.6073  -14.6861  -27.6508 C   0  0  0  0  0  0  0  0  0  0  0  0
   -3.4288   -5.0468  -36.2549 C   0  0  0  0  0  0  0  0  0  0  0  0
    3.3740  -10.3524  -33.4258 H   0  0  0  0  0  0  0  0  0  0  0  0
    1.5696   -8.7641  -31.7461 H   0  0  0  0  0  0  0  0  0  0  0  0
   -0.0993   -5.4566  -36.5138 H   0  0  0  0  0  0  0  0  0  0  0  0
   -2.8839   -7.7243  -34.2910 H   0  0  0  0  0  0  0  0  0  0  0  0
    2.7974  -14.1860  -30.9721 H   0  0  0  0  0  0  0  0  0  0  0  0
    3.0601  -11.3574  -27.8463 H   0  0  0  0  0  0  0  0  0  0  0  0
   -4.6801   -6.2874  -35.0834 H   0  0  0  0  0  0  0  0  0  0  0  0
    2.4953  -15.9604  -29.3366 H   0  0  0  0  0  0  0  0  0  0  0  0
    2.7592  -13.1373  -26.2160 H   0  0  0  0  0  0  0  0  0  0  0  0
   -1.9002   -4.0284  -37.3071 H   0  0  0  0  0  0  0  0  0  0  0  0
    2.4807  -15.4403  -26.9578 H   0  0  0  0  0  0  0  0  0  0  0  0
   -4.1918   -4.4383  -36.5904 H   0  0  0  0  0  0  0  0  0  0  0  0
  1  2  1  0  0  0  0
  1  9  1  0  0  0  0
  1 11  2  0  0  0  0
  2  5  2  0  0  0  0
  2 12  1  0  0  0  0
  3 11  1  0  0  0  0
  3  4  1  0  0  0  0
  3 10  1  0  0  0  0
  3 32  1  6  0  0  0
  4  6  2  0  0  0  0
  4 13  1  0  0  0  0
  5  7  1  0  0  0  0
  6  8  1  0  0  0  0
  7  9  1  0  0  0  0
  7 14  1  0  0  0  0
  8 10  1  0  0  0  0
  8 15  1  0  0  0  0
  9 16  2  0  0  0  0
 10 17  2  0  0  0  0
 11 33  1  0  0  0  0
 12 19  1  0  0  0  0
 12 21  2  0  0  0  0
 13 18  1  0  0  0  0
 13 20  2  0  0  0  0
 14 22  2  0  0  0  0
 14 23  1  0  0  0  0
 15 24  2  0  0  0  0
 15 25  1  0  0  0  0
 22 29  1  0  0  0  0
 22 34  1  0  0  0  0
 23 26  2  0  0  0  0
 23 35  1  0  0  0  0
 24 27  1  0  0  0  0
 24 36  1  0  0  0  0
 25 28  2  0  0  0  0
 25 37  1  0  0  0  0
 26 31  1  0  0  0  0
 26 38  1  0  0  0  0
 27 30  2  0  0  0  0
 27 39  1  0  0  0  0
 28 30  1  0  0  0  0
 28 40  1  0  0  0  0
 29 31  2  0  0  0  0
 29 41  1  0  0  0  0
 30 42  1  0  0  0  0
 31 43  1  0  0  0  0
M  CHG  2  18  -1  19  -1
M  END
$$$$
