HTS1710-02802978-01
 OpenBabel03232612353D

 40 42  0  0  1  0  0  0  0  0999 V2000
    3.6085  -12.1971  -31.1572 C   0  0  0  0  0  0  0  0  0  0  0  0
    3.6729  -11.1710  -30.1453 C   0  0  0  0  0  0  0  0  0  0  0  0
    3.0795  -13.2974  -30.6377 N   0  0  0  0  0  0  0  0  0  0  0  0
    4.0672  -12.1737  -32.5732 C   0  0  0  0  0  0  0  0  0  0  0  0
    2.2487   -9.8922  -35.9350 C   0  0  0  0  0  0  0  0  0  0  0  0
    2.7959  -12.9968  -29.3344 N   0  0  0  0  0  0  0  0  0  0  0  0
    3.1385  -11.7033  -29.0062 C   0  0  0  0  0  0  0  0  0  0  0  0
    4.2231   -9.7861  -30.1823 C   0  0  0  0  0  0  0  0  0  0  0  0
    3.8503  -11.0043  -33.2978 N   0  0  0  0  0  0  0  0  0  0  0  0
    1.2446   -8.2414  -37.1432 N   0  0  0  0  0  0  0  0  0  0  0  0
    2.1713   -9.3033  -37.1996 C   0  0  0  0  0  0  0  0  0  0  0  0
    4.2572  -10.8551  -34.7053 C   0  0  2  0  0  0  0  0  0  0  0  0
    1.3409   -9.1526  -35.0930 C   0  0  0  0  0  0  0  0  0  0  0  0
    4.8409   -9.4489  -34.9170 C   0  0  0  0  0  0  0  0  0  0  0  0
    3.0491  -11.1375  -35.6471 C   0  0  0  0  0  0  0  0  0  0  0  0
    0.7549   -8.1955  -35.8593 C   0  0  0  0  0  0  0  0  0  0  0  0
    4.5898  -13.1158  -33.1406 O   0  0  0  0  0  0  0  0  0  0  0  0
    3.5725   -8.9221  -29.6195 O   0  5  0  0  0  0  0  0  0  0  0  0
    4.9075   -9.0266  -36.0591 O   0  5  0  0  0  0  0  0  0  0  0  0
    5.2766   -9.5738  -30.7501 O   0  0  0  0  0  0  0  0  0  0  0  0
    5.1985   -8.8437  -33.9205 O   0  0  0  0  0  0  0  0  0  0  0  0
    2.2069  -14.0015  -28.4453 C   0  0  0  0  0  0  0  0  0  0  0  0
    0.9907   -9.3308  -33.7488 C   0  0  0  0  0  0  0  0  0  0  0  0
   -0.2412   -7.3451  -35.3676 C   0  0  0  0  0  0  0  0  0  0  0  0
   -0.0064   -8.4895  -33.2123 C   0  0  0  0  0  0  0  0  0  0  0  0
   -0.6219   -7.5034  -34.0184 C   0  0  0  0  0  0  0  0  0  0  0  0
    3.0173  -11.2361  -28.0941 H   0  0  0  0  0  0  0  0  0  0  0  0
    3.4073  -10.2470  -32.8512 H   0  0  0  0  0  0  0  0  0  0  0  0
    0.9949   -7.6444  -37.8851 H   0  0  0  0  0  0  0  0  0  0  0  0
    2.7027   -9.5958  -38.0345 H   0  0  0  0  0  0  0  0  0  0  0  0
    5.0165  -11.5693  -34.9465 H   0  0  0  0  0  0  0  0  0  0  0  0
    3.4171  -11.5320  -36.5712 H   0  0  0  0  0  0  0  0  0  0  0  0
    2.4049  -11.8359  -35.1550 H   0  0  0  0  0  0  0  0  0  0  0  0
    2.0536  -14.9113  -28.9872 H   0  0  0  0  0  0  0  0  0  0  0  0
    1.2685  -13.6442  -28.0755 H   0  0  0  0  0  0  0  0  0  0  0  0
    2.8684  -14.1826  -27.6239 H   0  0  0  0  0  0  0  0  0  0  0  0
    1.4470  -10.0534  -33.1702 H   0  0  0  0  0  0  0  0  0  0  0  0
   -0.6802   -6.6299  -35.9684 H   0  0  0  0  0  0  0  0  0  0  0  0
   -0.2886   -8.5941  -32.2251 H   0  0  0  0  0  0  0  0  0  0  0  0
   -1.3537   -6.8964  -33.6172 H   0  0  0  0  0  0  0  0  0  0  0  0
  1  2  1  0  0  0  0
  1  3  2  0  0  0  0
  1  4  1  0  0  0  0
  2  7  2  0  0  0  0
  2  8  1  0  0  0  0
  3  6  1  0  0  0  0
  4  9  1  0  0  0  0
  4 17  2  0  0  0  0
  5 11  2  0  0  0  0
  5 13  1  0  0  0  0
  5 15  1  0  0  0  0
  6  7  1  0  0  0  0
  6 22  1  0  0  0  0
  7 27  1  0  0  0  0
  8 18  1  0  0  0  0
  8 20  2  0  0  0  0
  9 12  1  0  0  0  0
  9 28  1  0  0  0  0
 10 11  1  0  0  0  0
 10 16  1  0  0  0  0
 10 29  1  0  0  0  0
 11 30  1  0  0  0  0
 12 14  1  0  0  0  0
 12 15  1  0  0  0  0
 12 31  1  6  0  0  0
 13 16  2  0  0  0  0
 13 23  1  0  0  0  0
 14 19  1  0  0  0  0
 14 21  2  0  0  0  0
 15 32  1  0  0  0  0
 15 33  1  0  0  0  0
 16 24  1  0  0  0  0
 22 34  1  0  0  0  0
 22 35  1  0  0  0  0
 22 36  1  0  0  0  0
 23 25  2  0  0  0  0
 23 37  1  0  0  0  0
 24 26  2  0  0  0  0
 24 38  1  0  0  0  0
 25 26  1  0  0  0  0
 25 39  1  0  0  0  0
 26 40  1  0  0  0  0
M  CHG  2  18  -1  19  -1
M  END
$$$$
