HTS1710-02150865-01
 OpenBabel03232612353D

 33 33  0  0  0  0  0  0  0  0999 V2000
    3.2643  -10.1588  -36.2569 S   0  0  0  0  0  0  0  0  0  0  0  0
    3.6158   -9.2856  -29.4366 S   0  0  0  0  0  0  0  0  0  0  0  0
    1.6528  -14.1623  -30.9091 S   0  0  0  0  0  0  0  0  0  0  0  0
    1.7141  -13.5683  -32.5444 C   0  0  0  0  0  0  0  0  0  0  0  0
    3.3637  -13.8372  -30.9042 C   0  0  0  0  0  0  0  0  0  0  0  0
    3.8709  -13.3332  -32.0150 N   0  0  0  0  0  0  0  0  0  0  0  0
    2.8998  -13.1915  -32.9899 N   0  0  0  0  0  0  0  0  0  0  0  0
    4.7701   -8.6784  -30.0778 O   0  0  0  0  0  1  0  0  0  0  0  0
    3.3967   -9.1462  -37.2909 O   0  0  0  0  0  1  0  0  0  0  0  0
    2.4848   -9.5145  -30.3195 O   0  0  0  0  0  0  0  0  0  0  0  0
    3.4256  -11.5258  -36.7231 O   0  0  0  0  0  0  0  0  0  0  0  0
    3.2647   -8.7147  -28.1481 O   0  0  0  0  0  0  0  0  0  0  0  0
    3.9552   -9.8516  -35.0157 O   0  0  0  0  0  0  0  0  0  0  0  0
    4.4699  -14.0981  -29.5581 S   0  0  0  0  0  0  0  0  0  0  0  0
    0.3796  -13.5421  -33.6918 S   0  0  0  0  0  0  0  0  0  0  0  0
    4.1768  -10.9759  -29.0501 C   0  0  0  0  0  0  0  0  0  0  0  0
    1.5084  -10.0605  -35.8097 C   0  0  0  0  0  0  0  0  0  0  0  0
    1.1390  -10.9845  -34.6239 C   0  0  0  0  0  0  0  0  0  0  0  0
    3.0584  -11.9100  -28.5193 C   0  0  0  0  0  0  0  0  0  0  0  0
    3.5669  -13.3243  -28.1485 C   0  0  0  0  0  0  0  0  0  0  0  0
    1.0204  -12.4670  -35.0518 C   0  0  0  0  0  0  0  0  0  0  0  0
    4.9432  -10.9134  -28.3061 H   0  0  0  0  0  0  0  0  0  0  0  0
    4.5243  -11.4024  -29.9677 H   0  0  0  0  0  0  0  0  0  0  0  0
    0.9227  -10.3439  -36.6593 H   0  0  0  0  0  0  0  0  0  0  0  0
    1.3085   -9.0536  -35.5081 H   0  0  0  0  0  0  0  0  0  0  0  0
    0.2009  -10.6668  -34.2189 H   0  0  0  0  0  0  0  0  0  0  0  0
    1.9212  -10.9142  -33.8971 H   0  0  0  0  0  0  0  0  0  0  0  0
    2.3085  -12.0063  -29.2764 H   0  0  0  0  0  0  0  0  0  0  0  0
    2.6732  -11.4670  -27.6247 H   0  0  0  0  0  0  0  0  0  0  0  0
    2.7305  -13.9394  -27.8898 H   0  0  0  0  0  0  0  0  0  0  0  0
    4.2403  -13.2366  -27.3216 H   0  0  0  0  0  0  0  0  0  0  0  0
    0.3525  -12.5320  -35.8852 H   0  0  0  0  0  0  0  0  0  0  0  0
    2.0002  -12.8127  -35.3075 H   0  0  0  0  0  0  0  0  0  0  0  0
  1  9  1  0  0  0  0
  1 11  2  0  0  0  0
  1 13  2  0  0  0  0
  1 17  1  0  0  0  0
  2 16  1  0  0  0  0
  2  8  1  0  0  0  0
  2 10  2  0  0  0  0
  2 12  2  0  0  0  0
  3  4  1  0  0  0  0
  3  5  1  0  0  0  0
  4 15  1  0  0  0  0
  4  7  2  0  0  0  0
  5 14  1  0  0  0  0
  5  6  2  0  0  0  0
  6  7  1  0  0  0  0
 14 20  1  0  0  0  0
 15 21  1  0  0  0  0
 16 19  1  0  0  0  0
 16 22  1  0  0  0  0
 16 23  1  0  0  0  0
 17 18  1  0  0  0  0
 17 24  1  0  0  0  0
 17 25  1  0  0  0  0
 18 21  1  0  0  0  0
 18 26  1  0  0  0  0
 18 27  1  0  0  0  0
 19 20  1  0  0  0  0
 19 28  1  0  0  0  0
 19 29  1  0  0  0  0
 20 30  1  0  0  0  0
 20 31  1  0  0  0  0
 21 32  1  0  0  0  0
 21 33  1  0  0  0  0
M  END
$$$$
