HTS1710-04762208-01
 OpenBabel03232612353D

 44 45  0  0  1  0  0  0  0  0999 V2000
    3.1338  -12.4433  -27.8428 C   0  0  0  0  0  0  0  0  0  0  0  0
    3.1832  -13.4465  -29.0142 C   0  0  1  0  0  0  0  0  0  0  0  0
    2.1192  -14.5632  -28.9369 C   0  0  0  0  0  0  0  0  0  0  0  0
    1.6624  -14.7601  -30.3950 C   0  0  0  0  0  0  0  0  0  0  0  0
    2.5289  -13.7715  -31.2003 C   0  0  1  0  0  0  0  0  0  0  0  0
    1.8000  -13.1185  -32.4039 C   0  0  0  0  0  0  0  0  0  0  0  0
    2.7792  -12.4079  -33.3757 C   0  0  0  0  0  0  0  0  0  0  0  0
    2.0768  -11.5046  -34.4154 C   0  0  0  0  0  0  0  0  0  0  0  0
    0.8596  -11.4410  -34.4843 O   0  0  0  0  0  0  0  0  0  0  0  0
    2.9045  -10.7955  -35.2939 N   0  0  0  0  0  0  0  0  0  0  0  0
    2.3994   -9.8081  -36.2719 C   0  0  0  0  0  0  0  0  0  0  0  0
    4.3759  -10.9170  -35.2162 C   0  0  0  0  0  0  0  0  0  0  0  0
    4.9930   -9.7336  -34.5198 C   0  0  0  0  0  0  0  0  0  0  0  0
    4.8727   -9.4751  -33.1794 C   0  0  0  0  0  0  0  0  0  0  0  0
    5.5793   -8.2614  -32.9771 C   0  0  0  0  0  0  0  0  0  0  0  0
    5.7424   -7.5490  -31.6865 C   0  0  0  0  0  0  0  0  0  0  0  0
    5.8837   -8.2358  -30.6895 O   0  5  0  0  0  0  0  0  0  0  0  0
    5.7251   -6.3307  -31.6868 O   0  0  0  0  0  0  0  0  0  0  0  0
    6.0463   -7.9380  -34.2359 C   0  0  0  0  0  0  0  0  0  0  0  0
    6.8692   -6.7236  -34.5828 C   0  0  0  0  0  0  0  0  0  0  0  0
    5.7119   -8.8165  -35.2349 O   0  0  0  0  0  0  0  0  0  0  0  0
    2.8548  -12.7637  -30.2319 O   0  0  0  0  0  0  0  0  0  0  0  0
    3.3779  -12.9473  -26.9311 H   0  0  0  0  0  0  0  0  0  0  0  0
    2.1498  -12.0293  -27.7690 H   0  0  0  0  0  0  0  0  0  0  0  0
    3.8392  -11.6577  -28.0160 H   0  0  0  0  0  0  0  0  0  0  0  0
    4.1674  -13.8641  -28.9728 H   0  0  0  0  0  0  0  0  0  0  0  0
    1.2982  -14.2617  -28.3205 H   0  0  0  0  0  0  0  0  0  0  0  0
    2.5041  -15.4635  -28.5054 H   0  0  0  0  0  0  0  0  0  0  0  0
    0.6233  -14.5279  -30.5016 H   0  0  0  0  0  0  0  0  0  0  0  0
    1.7775  -15.7706  -30.7273 H   0  0  0  0  0  0  0  0  0  0  0  0
    3.3664  -14.2730  -31.6386 H   0  0  0  0  0  0  0  0  0  0  0  0
    1.1016  -12.3979  -32.0325 H   0  0  0  0  0  0  0  0  0  0  0  0
    1.3085  -13.8974  -32.9486 H   0  0  0  0  0  0  0  0  0  0  0  0
    3.3370  -13.1556  -33.8998 H   0  0  0  0  0  0  0  0  0  0  0  0
    3.4040  -11.7739  -32.7820 H   0  0  0  0  0  0  0  0  0  0  0  0
    1.3298   -9.7986  -36.2491 H   0  0  0  0  0  0  0  0  0  0  0  0
    2.7329  -10.0750  -37.2529 H   0  0  0  0  0  0  0  0  0  0  0  0
    2.7702   -8.8361  -36.0214 H   0  0  0  0  0  0  0  0  0  0  0  0
    4.7719  -10.9818  -36.2081 H   0  0  0  0  0  0  0  0  0  0  0  0
    4.6101  -11.7964  -34.6534 H   0  0  0  0  0  0  0  0  0  0  0  0
    4.3768  -10.0396  -32.4720 H   0  0  0  0  0  0  0  0  0  0  0  0
    7.0420   -6.1455  -33.6991 H   0  0  0  0  0  0  0  0  0  0  0  0
    6.3432   -6.1294  -35.3005 H   0  0  0  0  0  0  0  0  0  0  0  0
    7.8066   -7.0338  -34.9950 H   0  0  0  0  0  0  0  0  0  0  0  0
  1  2  1  0  0  0  0
  1 23  1  0  0  0  0
  1 24  1  0  0  0  0
  1 25  1  0  0  0  0
  2  3  1  0  0  0  0
  2 22  1  0  0  0  0
  2 26  1  6  0  0  0
  3  4  1  0  0  0  0
  3 27  1  0  0  0  0
  3 28  1  0  0  0  0
  4  5  1  0  0  0  0
  4 29  1  0  0  0  0
  4 30  1  0  0  0  0
  5  6  1  0  0  0  0
  5 22  1  0  0  0  0
  5 31  1  6  0  0  0
  6  7  1  0  0  0  0
  6 32  1  0  0  0  0
  6 33  1  0  0  0  0
  7  8  1  0  0  0  0
  7 34  1  0  0  0  0
  7 35  1  0  0  0  0
  8  9  2  0  0  0  0
  8 10  1  0  0  0  0
 10 11  1  0  0  0  0
 10 12  1  0  0  0  0
 11 36  1  0  0  0  0
 11 37  1  0  0  0  0
 11 38  1  0  0  0  0
 12 13  1  0  0  0  0
 12 39  1  0  0  0  0
 12 40  1  0  0  0  0
 13 14  2  0  0  0  0
 13 21  1  0  0  0  0
 14 15  1  0  0  0  0
 14 41  1  0  0  0  0
 15 16  1  0  0  0  0
 15 19  2  0  0  0  0
 16 17  1  0  0  0  0
 16 18  2  0  0  0  0
 19 20  1  0  0  0  0
 19 21  1  0  0  0  0
 20 42  1  0  0  0  0
 20 43  1  0  0  0  0
 20 44  1  0  0  0  0
M  CHG  1  17  -1
M  END
$$$$
