HTS1710-00112274-01
 OpenBabel03232612353D

 33 33  0  0  1  0  0  0  0  0999 V2000
    3.9556  -10.2165  -31.3549 C   0  0  1  0  0  0  0  0  0  0  0  0
    1.9065   -9.0302  -32.5451 C   0  0  2  0  0  0  0  0  0  0  0  0
    3.7723  -10.2681  -34.0364 C   0  0  2  0  0  0  0  0  0  0  0  0
    2.3556   -7.5841  -32.1516 C   0  0  0  0  0  0  0  0  0  0  0  0
    4.5958   -9.2632  -30.2898 C   0  0  0  0  0  0  0  0  0  0  0  0
    4.5644   -9.8865  -35.3299 C   0  0  0  0  0  0  0  0  0  0  0  0
    2.3906  -10.0483  -31.4650 C   0  0  0  0  0  0  0  0  0  0  0  0
    2.4163   -9.4639  -33.9756 C   0  0  0  0  0  0  0  0  0  0  0  0
    4.6414   -9.9847  -32.7567 C   0  0  0  0  0  0  0  0  0  0  0  0
    4.0055   -9.0854  -29.2373 O   0  5  0  0  0  0  0  0  0  0  0  0
    5.7816   -9.9660  -35.2913 O   0  5  0  0  0  0  0  0  0  0  0  0
    3.5465   -7.3504  -32.0357 O   0  5  0  0  0  0  0  0  0  0  0  0
    1.4798   -6.7436  -32.0278 O   0  0  0  0  0  0  0  0  0  0  0  0
    3.9309   -9.5567  -36.3195 O   0  0  0  0  0  0  0  0  0  0  0  0
    5.6549   -8.7279  -30.5771 O   0  0  0  0  0  0  0  0  0  0  0  0
    3.4793  -11.7947  -34.1749 C   0  0  0  0  0  0  0  0  0  0  0  0
    0.3458   -9.0529  -32.5744 C   0  0  0  0  0  0  0  0  0  0  0  0
    4.2660  -11.6531  -30.8336 C   0  0  0  0  0  0  0  0  0  0  0  0
    1.9704  -11.0041  -31.6990 H   0  0  0  0  0  0  0  0  0  0  0  0
    2.0666   -9.6585  -30.5227 H   0  0  0  0  0  0  0  0  0  0  0  0
    1.6577  -10.0756  -34.4174 H   0  0  0  0  0  0  0  0  0  0  0  0
    2.6122   -8.5474  -34.4917 H   0  0  0  0  0  0  0  0  0  0  0  0
    4.9516   -8.9616  -32.7982 H   0  0  0  0  0  0  0  0  0  0  0  0
    5.4353  -10.7010  -32.7977 H   0  0  0  0  0  0  0  0  0  0  0  0
    4.4032  -12.3329  -34.2156 H   0  0  0  0  0  0  0  0  0  0  0  0
    2.9239  -11.9713  -35.0723 H   0  0  0  0  0  0  0  0  0  0  0  0
    2.9099  -12.1266  -33.3319 H   0  0  0  0  0  0  0  0  0  0  0  0
   -0.0332   -8.7628  -31.6167 H   0  0  0  0  0  0  0  0  0  0  0  0
    0.0078  -10.0411  -32.8073 H   0  0  0  0  0  0  0  0  0  0  0  0
   -0.0070   -8.3705  -33.3192 H   0  0  0  0  0  0  0  0  0  0  0  0
    3.7956  -11.7971  -29.8833 H   0  0  0  0  0  0  0  0  0  0  0  0
    5.3240  -11.7740  -30.7298 H   0  0  0  0  0  0  0  0  0  0  0  0
    3.8912  -12.3739  -31.5299 H   0  0  0  0  0  0  0  0  0  0  0  0
  1  5  1  1  0  0  0
  1  7  1  0  0  0  0
  1  9  1  0  0  0  0
  1 18  1  0  0  0  0
  2  7  1  0  0  0  0
  2  4  1  1  0  0  0
  2 17  1  0  0  0  0
  2  8  1  0  0  0  0
  3  9  1  0  0  0  0
  3  6  1  6  0  0  0
  3  8  1  0  0  0  0
  3 16  1  0  0  0  0
  4 12  1  0  0  0  0
  4 13  2  0  0  0  0
  5 10  1  0  0  0  0
  5 15  2  0  0  0  0
  6 11  1  0  0  0  0
  6 14  2  0  0  0  0
  7 19  1  0  0  0  0
  7 20  1  0  0  0  0
  8 21  1  0  0  0  0
  8 22  1  0  0  0  0
  9 23  1  0  0  0  0
  9 24  1  0  0  0  0
 16 25  1  0  0  0  0
 16 26  1  0  0  0  0
 16 27  1  0  0  0  0
 17 28  1  0  0  0  0
 17 29  1  0  0  0  0
 17 30  1  0  0  0  0
 18 31  1  0  0  0  0
 18 32  1  0  0  0  0
 18 33  1  0  0  0  0
M  CHG  3  10  -1  11  -1  12  -1
M  END
$$$$
