HTS1710-01494655-01
 OpenBabel03232612353D

 51 52  0  0  1  0  0  0  0  0999 V2000
    3.6089   -8.6798  -31.2298 C   0  0  0  0  0  0  0  0  0  0  0  0
    2.5542  -10.7195  -31.7097 N   0  0  0  0  0  0  0  0  0  0  0  0
    3.6808   -9.5002  -30.1623 C   0  0  0  0  0  0  0  0  0  0  0  0
    3.0603  -10.8059  -30.4261 C   0  0  0  0  0  0  0  0  0  0  0  0
    2.8178   -9.3956  -32.3268 C   0  0  1  0  0  0  0  0  0  0  0  0
    3.9792   -7.2421  -31.3913 C   0  0  0  0  0  0  0  0  0  0  0  0
    1.5396   -8.6566  -32.7112 C   0  0  0  0  0  0  0  0  0  0  0  0
    2.9976  -11.7680  -29.6804 O   0  0  0  0  0  0  0  0  0  0  0  0
    4.5467   -9.8988  -36.1924 C   0  0  0  0  0  0  0  0  0  0  0  0
   -0.7993   -7.2119  -33.4090 C   0  0  0  0  0  0  0  0  0  0  0  0
   -1.9485   -6.4865  -33.7533 N   0  0  0  0  0  0  0  0  0  0  0  0
    4.2353   -9.2312  -28.9582 O   0  5  0  0  0  0  0  0  0  0  0  0
    3.2504   -6.3468  -30.9977 O   0  0  0  0  0  0  0  0  0  0  0  0
    5.1846   -9.5890  -35.2012 O   0  5  0  0  0  0  0  0  0  0  0  0
    1.2727   -8.3410  -34.0553 C   0  0  0  0  0  0  0  0  0  0  0  0
    0.6316   -8.2548  -31.7191 C   0  0  0  0  0  0  0  0  0  0  0  0
    0.1160   -7.6258  -34.4003 C   0  0  0  0  0  0  0  0  0  0  0  0
   -0.5269   -7.5402  -32.0627 C   0  0  0  0  0  0  0  0  0  0  0  0
    1.9416  -11.8178  -32.4785 C   0  0  0  0  0  0  0  0  0  0  0  0
    4.2371   -9.1454  -37.0992 O   0  0  0  0  0  0  0  0  0  0  0  0
    4.0730  -11.3536  -36.2970 C   0  0  0  0  0  0  0  0  0  0  0  0
    5.3870   -6.9484  -31.9144 C   0  0  0  0  0  0  0  0  0  0  0  0
   -2.4666   -5.3881  -32.9150 C   0  0  0  0  0  0  0  0  0  0  0  0
   -2.7501   -6.7945  -34.9524 C   0  0  0  0  0  0  0  0  0  0  0  0
    2.9634  -12.9190  -32.8493 C   0  0  0  0  0  0  0  0  0  0  0  0
    3.1471  -11.7448  -35.1195 C   0  0  0  0  0  0  0  0  0  0  0  0
    3.9104  -12.4769  -33.9885 C   0  0  0  0  0  0  0  0  0  0  0  0
    3.3438   -9.4592  -33.2564 H   0  0  0  0  0  0  0  0  0  0  0  0
    1.9315   -8.6373  -34.7923 H   0  0  0  0  0  0  0  0  0  0  0  0
    0.8169   -8.4862  -30.7306 H   0  0  0  0  0  0  0  0  0  0  0  0
   -0.0675   -7.3998  -35.3903 H   0  0  0  0  0  0  0  0  0  0  0  0
   -1.1867   -7.2516  -31.3235 H   0  0  0  0  0  0  0  0  0  0  0  0
    1.5263  -11.4169  -33.3794 H   0  0  0  0  0  0  0  0  0  0  0  0
    1.1879  -12.2652  -31.8647 H   0  0  0  0  0  0  0  0  0  0  0  0
    4.9280  -11.9970  -36.2934 H   0  0  0  0  0  0  0  0  0  0  0  0
    3.5166  -11.4569  -37.2051 H   0  0  0  0  0  0  0  0  0  0  0  0
    5.8567   -7.8639  -32.2077 H   0  0  0  0  0  0  0  0  0  0  0  0
    5.9641   -6.4825  -31.1431 H   0  0  0  0  0  0  0  0  0  0  0  0
    5.3245   -6.2933  -32.7581 H   0  0  0  0  0  0  0  0  0  0  0  0
   -1.8187   -5.2438  -32.0757 H   0  0  0  0  0  0  0  0  0  0  0  0
   -3.4484   -5.6359  -32.5690 H   0  0  0  0  0  0  0  0  0  0  0  0
   -2.5085   -4.4881  -33.4922 H   0  0  0  0  0  0  0  0  0  0  0  0
   -2.2939   -7.5998  -35.4894 H   0  0  0  0  0  0  0  0  0  0  0  0
   -2.7991   -5.9296  -35.5805 H   0  0  0  0  0  0  0  0  0  0  0  0
   -3.7390   -7.0775  -34.6574 H   0  0  0  0  0  0  0  0  0  0  0  0
    2.4304  -13.7920  -33.1634 H   0  0  0  0  0  0  0  0  0  0  0  0
    3.5607  -13.1177  -31.9840 H   0  0  0  0  0  0  0  0  0  0  0  0
    2.3765  -12.3894  -35.4875 H   0  0  0  0  0  0  0  0  0  0  0  0
    2.7410  -10.8436  -34.7096 H   0  0  0  0  0  0  0  0  0  0  0  0
    4.6508  -11.8171  -33.5870 H   0  0  0  0  0  0  0  0  0  0  0  0
    4.3613  -13.3533  -34.4049 H   0  0  0  0  0  0  0  0  0  0  0  0
  1  3  2  0  0  0  0
  1  5  1  0  0  0  0
  1  6  1  0  0  0  0
  2  5  1  0  0  0  0
  2 19  1  0  0  0  0
  2  4  1  0  0  0  0
  3  4  1  0  0  0  0
  3 12  1  0  0  0  0
  4  8  2  0  0  0  0
  5  7  1  0  0  0  0
  5 28  1  6  0  0  0
  6 13  2  0  0  0  0
  6 22  1  0  0  0  0
  7 15  2  0  0  0  0
  7 16  1  0  0  0  0
  9 21  1  0  0  0  0
  9 14  1  0  0  0  0
  9 20  2  0  0  0  0
 10 18  1  0  0  0  0
 10 11  1  0  0  0  0
 10 17  2  0  0  0  0
 11 23  1  0  0  0  0
 11 24  1  0  0  0  0
 15 17  1  0  0  0  0
 15 29  1  0  0  0  0
 16 18  2  0  0  0  0
 16 30  1  0  0  0  0
 17 31  1  0  0  0  0
 18 32  1  0  0  0  0
 19 25  1  0  0  0  0
 19 33  1  0  0  0  0
 19 34  1  0  0  0  0
 21 26  1  0  0  0  0
 21 35  1  0  0  0  0
 21 36  1  0  0  0  0
 22 37  1  0  0  0  0
 22 38  1  0  0  0  0
 22 39  1  0  0  0  0
 23 40  1  0  0  0  0
 23 41  1  0  0  0  0
 23 42  1  0  0  0  0
 24 43  1  0  0  0  0
 24 44  1  0  0  0  0
 24 45  1  0  0  0  0
 25 27  1  0  0  0  0
 25 46  1  0  0  0  0
 25 47  1  0  0  0  0
 26 27  1  0  0  0  0
 26 48  1  0  0  0  0
 26 49  1  0  0  0  0
 27 50  1  0  0  0  0
 27 51  1  0  0  0  0
M  CHG  2  12  -1  14  -1
M  END
$$$$
