HTS1710-01226709-01
 OpenBabel03232612363D

 37 38  0  0  0  0  0  0  0  0999 V2000
    3.3059   -9.8191  -36.9898 S   0  0  0  0  0  0  0  0  0  0  0  0
    3.8084   -9.1775  -29.9867 S   0  0  0  0  0  0  0  0  0  0  0  0
    2.0745   -9.4699  -35.6955 C   0  0  0  0  0  0  0  0  0  0  0  0
    2.1161  -10.1028  -34.4251 C   0  0  0  0  0  0  0  0  0  0  0  0
    3.5281  -10.9523  -30.2925 C   0  0  0  0  0  0  0  0  0  0  0  0
    3.1733  -11.0986  -34.0444 C   0  0  0  0  0  0  0  0  0  0  0  0
    3.6488  -11.5354  -31.5867 C   0  0  0  0  0  0  0  0  0  0  0  0
    4.0626  -10.7556  -32.8392 C   0  0  0  0  0  0  0  0  0  0  0  0
    1.0404   -8.5462  -35.9665 C   0  0  0  0  0  0  0  0  0  0  0  0
    3.1426  -11.7718  -29.2077 C   0  0  0  0  0  0  0  0  0  0  0  0
    1.1340   -9.7965  -33.4634 C   0  0  0  0  0  0  0  0  0  0  0  0
    3.0088   -8.8462  -38.0466 O   0  0  0  0  0  0  0  0  0  0  0  0
    4.5881   -9.6207  -36.3090 O   0  0  0  0  0  0  0  0  0  0  0  0
    3.6328   -9.0492  -28.5375 O   0  0  0  0  0  0  0  0  0  0  0  0
    2.7903   -8.4965  -30.7922 O   0  0  0  0  0  0  0  0  0  0  0  0
    3.2943  -12.1545  -34.6428 O   0  0  0  0  0  0  0  0  0  0  0  0
    3.0061  -11.2121  -37.3369 O   0  0  0  0  0  1  0  0  0  0  0  0
    5.1862   -8.9939  -30.4542 O   0  0  0  0  0  1  0  0  0  0  0  0
    3.3739  -12.9072  -31.7515 C   0  0  0  0  0  0  0  0  0  0  0  0
    0.0701   -8.2485  -34.9958 C   0  0  0  0  0  0  0  0  0  0  0  0
    2.8765  -13.1379  -29.3924 C   0  0  0  0  0  0  0  0  0  0  0  0
    0.1177   -8.8751  -33.7442 C   0  0  0  0  0  0  0  0  0  0  0  0
   -0.9274   -7.3431  -35.2726 N   0  0  0  0  0  0  0  0  0  0  0  0
    2.4954  -13.9180  -28.3258 N   0  0  0  0  0  0  0  0  0  0  0  0
    2.9914  -13.7044  -30.6663 C   0  0  0  0  0  0  0  0  0  0  0  0
    5.0774  -10.9966  -33.0777 H   0  0  0  0  0  0  0  0  0  0  0  0
    3.9540   -9.7115  -32.6321 H   0  0  0  0  0  0  0  0  0  0  0  0
    0.9974   -8.0848  -36.8886 H   0  0  0  0  0  0  0  0  0  0  0  0
    3.0554  -11.3598  -28.2655 H   0  0  0  0  0  0  0  0  0  0  0  0
    1.1638  -10.2569  -32.5403 H   0  0  0  0  0  0  0  0  0  0  0  0
    3.4560  -13.3318  -32.6885 H   0  0  0  0  0  0  0  0  0  0  0  0
   -0.5950   -8.6582  -33.0301 H   0  0  0  0  0  0  0  0  0  0  0  0
   -0.9617   -6.9020  -36.1521 H   0  0  0  0  0  0  0  0  0  0  0  0
   -1.6072   -7.1359  -34.5913 H   0  0  0  0  0  0  0  0  0  0  0  0
    2.3094  -14.8757  -28.4580 H   0  0  0  0  0  0  0  0  0  0  0  0
    2.4086  -13.5187  -27.4301 H   0  0  0  0  0  0  0  0  0  0  0  0
    2.7946  -14.7077  -30.8057 H   0  0  0  0  0  0  0  0  0  0  0  0
  1  3  1  0  0  0  0
  1 12  2  0  0  0  0
  1 13  2  0  0  0  0
  1 17  1  0  0  0  0
  2  5  1  0  0  0  0
  2 14  2  0  0  0  0
  2 15  2  0  0  0  0
  2 18  1  0  0  0  0
  3  4  2  0  0  0  0
  3  9  1  0  0  0  0
  4  6  1  0  0  0  0
  4 11  1  0  0  0  0
  5  7  2  0  0  0  0
  5 10  1  0  0  0  0
  6  8  1  0  0  0  0
  6 16  2  0  0  0  0
  7  8  1  0  0  0  0
  7 19  1  0  0  0  0
  8 26  1  0  0  0  0
  8 27  1  0  0  0  0
  9 20  2  0  0  0  0
  9 28  1  0  0  0  0
 10 21  2  0  0  0  0
 10 29  1  0  0  0  0
 11 22  2  0  0  0  0
 11 30  1  0  0  0  0
 19 25  2  0  0  0  0
 19 31  1  0  0  0  0
 20 22  1  0  0  0  0
 20 23  1  0  0  0  0
 21 25  1  0  0  0  0
 21 24  1  0  0  0  0
 22 32  1  0  0  0  0
 23 33  1  0  0  0  0
 23 34  1  0  0  0  0
 24 35  1  0  0  0  0
 24 36  1  0  0  0  0
 25 37  1  0  0  0  0
M  END
$$$$
