HTS1710-01236952-01
 OpenBabel03232612353D

 43 42  0  0  0  0  0  0  0  0999 V2000
    4.2638   -8.8554  -31.8880 C   0  0  0  0  0  0  0  0  0  0  0  0
    4.0804   -8.8208  -30.3516 C   0  0  0  0  0  0  0  0  0  0  0  0
    5.6100   -8.2379  -32.3197 C   0  0  0  0  0  0  0  0  0  0  0  0
    4.7890   -9.5434  -29.6706 O   0  5  0  0  0  0  0  0  0  0  0  0
    6.3315   -7.8046  -31.4369 O   0  5  0  0  0  0  0  0  0  0  0  0
    5.8648   -8.2046  -33.5120 O   0  0  0  0  0  0  0  0  0  0  0  0
    3.1998   -8.0956  -29.9181 O   0  0  0  0  0  0  0  0  0  0  0  0
    4.1032  -10.2850  -32.4914 C   0  0  0  0  0  0  0  0  0  0  0  0
    8.2494  -16.1056  -26.5848 O   0  0  0  0  0  0  0  0  0  0  0  0
    6.9089  -16.3046  -27.0264 C   0  0  0  0  0  0  0  0  0  0  0  0
    2.7034  -10.9244  -32.2745 C   0  0  0  0  0  0  0  0  0  0  0  0
    6.1689  -14.9554  -27.1800 C   0  0  0  0  0  0  0  0  0  0  0  0
    2.6536  -12.4347  -32.6202 C   0  0  0  0  0  0  0  0  0  0  0  0
    4.7191  -15.1148  -27.7049 C   0  0  0  0  0  0  0  0  0  0  0  0
    2.7362  -13.3600  -30.2253 C   0  0  0  0  0  0  0  0  0  0  0  0
    2.3726  -14.0726  -27.7829 C   0  0  0  0  0  0  0  0  0  0  0  0
    1.9163  -13.2515  -31.5326 C   0  0  0  0  0  0  0  0  0  0  0  0
    2.1672  -14.4392  -29.2719 C   0  0  0  0  0  0  0  0  0  0  0  0
    3.8656  -13.8504  -27.4417 C   0  0  0  0  0  0  0  0  0  0  0  0
    3.4720   -8.2550  -32.2845 H   0  0  0  0  0  0  0  0  0  0  0  0
    4.8348  -10.9221  -32.0401 H   0  0  0  0  0  0  0  0  0  0  0  0
    4.2302  -10.1841  -33.5491 H   0  0  0  0  0  0  0  0  0  0  0  0
    8.7128  -16.9574  -26.5639 H   0  0  0  0  0  0  0  0  0  0  0  0
    6.3909  -16.9082  -26.3106 H   0  0  0  0  0  0  0  0  0  0  0  0
    6.9329  -16.7903  -27.9795 H   0  0  0  0  0  0  0  0  0  0  0  0
    1.9971  -10.4118  -32.8937 H   0  0  0  0  0  0  0  0  0  0  0  0
    2.4727  -10.8319  -31.2337 H   0  0  0  0  0  0  0  0  0  0  0  0
    6.7148  -14.3436  -27.8674 H   0  0  0  0  0  0  0  0  0  0  0  0
    6.1100  -14.5107  -26.2086 H   0  0  0  0  0  0  0  0  0  0  0  0
    3.6545  -12.8022  -32.7098 H   0  0  0  0  0  0  0  0  0  0  0  0
    2.1176  -12.5469  -33.5395 H   0  0  0  0  0  0  0  0  0  0  0  0
    4.2630  -15.9482  -27.2126 H   0  0  0  0  0  0  0  0  0  0  0  0
    4.7652  -15.2685  -28.7628 H   0  0  0  0  0  0  0  0  0  0  0  0
    2.7175  -12.4137  -29.7263 H   0  0  0  0  0  0  0  0  0  0  0  0
    3.7355  -13.6413  -30.4842 H   0  0  0  0  0  0  0  0  0  0  0  0
    1.9941  -14.8683  -27.1758 H   0  0  0  0  0  0  0  0  0  0  0  0
    1.8503  -13.1585  -27.5922 H   0  0  0  0  0  0  0  0  0  0  0  0
    0.9840  -12.7734  -31.3157 H   0  0  0  0  0  0  0  0  0  0  0  0
    1.7684  -14.2418  -31.9101 H   0  0  0  0  0  0  0  0  0  0  0  0
    1.1191  -14.5458  -29.4589 H   0  0  0  0  0  0  0  0  0  0  0  0
    2.6919  -15.3524  -29.4601 H   0  0  0  0  0  0  0  0  0  0  0  0
    4.2413  -13.0494  -28.0436 H   0  0  0  0  0  0  0  0  0  0  0  0
    3.9338  -13.6187  -26.3993 H   0  0  0  0  0  0  0  0  0  0  0  0
  1  2  1  0  0  0  0
  1  3  1  0  0  0  0
  1  8  1  0  0  0  0
  1 20  1  0  0  0  0
  2  4  1  0  0  0  0
  2  7  2  0  0  0  0
  3  5  1  0  0  0  0
  3  6  2  0  0  0  0
  8 11  1  0  0  0  0
  8 21  1  0  0  0  0
  8 22  1  0  0  0  0
  9 10  1  0  0  0  0
  9 23  1  0  0  0  0
 10 12  1  0  0  0  0
 10 24  1  0  0  0  0
 10 25  1  0  0  0  0
 11 13  1  0  0  0  0
 11 26  1  0  0  0  0
 11 27  1  0  0  0  0
 12 14  1  0  0  0  0
 12 28  1  0  0  0  0
 12 29  1  0  0  0  0
 13 17  1  0  0  0  0
 13 30  1  0  0  0  0
 13 31  1  0  0  0  0
 14 19  1  0  0  0  0
 14 32  1  0  0  0  0
 14 33  1  0  0  0  0
 15 17  1  0  0  0  0
 15 18  1  0  0  0  0
 15 34  1  0  0  0  0
 15 35  1  0  0  0  0
 16 18  1  0  0  0  0
 16 19  1  0  0  0  0
 16 36  1  0  0  0  0
 16 37  1  0  0  0  0
 17 38  1  0  0  0  0
 17 39  1  0  0  0  0
 18 40  1  0  0  0  0
 18 41  1  0  0  0  0
 19 42  1  0  0  0  0
 19 43  1  0  0  0  0
M  CHG  2   4  -1   5  -1
M  END
$$$$
