HTS1710-05324334-01
 OpenBabel03232612353D

 49 51  0  0  1  0  0  0  0  0999 V2000
    6.1581   -7.7687  -32.6865 C   0  0  0  0  0  0  0  0  0  0  0  0
    6.2401   -7.6478  -31.1481 C   0  0  0  0  0  0  0  0  0  0  0  0
    5.3780   -8.6331  -30.5467 O   0  0  0  0  0  0  0  0  0  0  0  0
    4.0195   -8.4598  -30.5397 C   0  0  0  0  0  0  0  0  0  0  0  0
    3.3926   -7.3331  -31.0001 O   0  0  0  0  0  0  0  0  0  0  0  0
    2.0858   -7.6861  -30.7532 C   0  0  0  0  0  0  0  0  0  0  0  0
    0.9974   -6.7180  -31.1313 C   0  0  0  0  0  0  0  0  0  0  0  0
    1.8696   -8.8679  -30.2046 N   0  0  0  0  0  0  0  0  0  0  0  0
    3.1234   -9.3710  -30.0476 C   0  0  0  0  0  0  0  0  0  0  0  0
    3.4749  -10.7238  -29.5156 C   0  0  0  0  0  0  0  0  0  0  0  0
    4.2859  -10.8701  -28.6153 O   0  0  0  0  0  0  0  0  0  0  0  0
    2.8661  -11.8222  -30.1431 N   0  0  0  0  0  0  0  0  0  0  0  0
    3.1538  -13.2118  -29.6836 C   0  0  0  0  0  0  0  0  0  0  0  0
    2.1026  -14.2421  -30.1531 C   0  0  0  0  0  0  0  0  0  0  0  0
    1.9028  -14.1854  -31.6792 C   0  0  0  0  0  0  0  0  0  0  0  0
    1.5492  -12.7477  -32.1231 C   0  0  1  0  0  0  0  0  0  0  0  0
    2.6044  -11.7312  -31.6034 C   0  0  0  0  0  0  0  0  0  0  0  0
    1.3675  -12.6665  -33.6502 C   0  0  0  0  0  0  0  0  0  0  0  0
    0.5566  -13.3536  -34.2504 O   0  0  0  0  0  0  0  0  0  0  0  0
    2.1698  -11.7827  -34.3578 N   0  0  0  0  0  0  0  0  0  0  0  0
    2.0740  -11.6314  -35.8133 C   0  0  0  0  0  0  0  0  0  0  0  0
    1.0919  -10.5167  -36.1473 C   0  0  0  0  0  0  0  0  0  0  0  0
    1.1230   -9.2218  -35.3802 C   0  0  0  0  0  0  0  0  0  0  0  0
    1.5756   -9.2577  -36.8163 C   0  0  0  0  0  0  0  0  0  0  0  0
    6.7974   -7.0380  -33.1363 H   0  0  0  0  0  0  0  0  0  0  0  0
    5.1496   -7.6040  -33.0040 H   0  0  0  0  0  0  0  0  0  0  0  0
    6.4704   -8.7477  -32.9845 H   0  0  0  0  0  0  0  0  0  0  0  0
    5.9274   -6.6691  -30.8492 H   0  0  0  0  0  0  0  0  0  0  0  0
    7.2483   -7.8108  -30.8288 H   0  0  0  0  0  0  0  0  0  0  0  0
    1.4342   -5.8380  -31.5553 H   0  0  0  0  0  0  0  0  0  0  0  0
    0.4368   -6.4532  -30.2591 H   0  0  0  0  0  0  0  0  0  0  0  0
    0.3473   -7.1744  -31.8482 H   0  0  0  0  0  0  0  0  0  0  0  0
    3.1799  -13.2170  -28.6140 H   0  0  0  0  0  0  0  0  0  0  0  0
    4.0913  -13.4989  -30.1119 H   0  0  0  0  0  0  0  0  0  0  0  0
    1.1703  -14.0321  -29.6719 H   0  0  0  0  0  0  0  0  0  0  0  0
    2.4512  -15.2202  -29.8952 H   0  0  0  0  0  0  0  0  0  0  0  0
    1.1072  -14.8455  -31.9554 H   0  0  0  0  0  0  0  0  0  0  0  0
    2.8112  -14.4836  -32.1595 H   0  0  0  0  0  0  0  0  0  0  0  0
    0.6107  -12.4821  -31.6832 H   0  0  0  0  0  0  0  0  0  0  0  0
    2.2556  -10.7435  -31.8215 H   0  0  0  0  0  0  0  0  0  0  0  0
    3.5252  -11.9624  -32.0970 H   0  0  0  0  0  0  0  0  0  0  0  0
    2.8262  -11.2383  -33.8657 H   0  0  0  0  0  0  0  0  0  0  0  0
    1.7317  -12.5487  -36.2449 H   0  0  0  0  0  0  0  0  0  0  0  0
    3.0374  -11.3868  -36.2094 H   0  0  0  0  0  0  0  0  0  0  0  0
    0.3424  -11.2491  -36.3633 H   0  0  0  0  0  0  0  0  0  0  0  0
    1.8385   -9.0808  -34.5971 H   0  0  0  0  0  0  0  0  0  0  0  0
    0.4055   -8.6526  -34.8270 H   0  0  0  0  0  0  0  0  0  0  0  0
    2.6126   -9.1424  -37.0535 H   0  0  0  0  0  0  0  0  0  0  0  0
    1.3127   -8.7247  -37.7060 H   0  0  0  0  0  0  0  0  0  0  0  0
  1  2  1  0  0  0  0
  1 25  1  0  0  0  0
  1 26  1  0  0  0  0
  1 27  1  0  0  0  0
  2  3  1  0  0  0  0
  2 28  1  0  0  0  0
  2 29  1  0  0  0  0
  3  4  1  0  0  0  0
  4  5  1  0  0  0  0
  4  9  2  0  0  0  0
  5  6  1  0  0  0  0
  6  7  1  0  0  0  0
  6  8  2  0  0  0  0
  7 30  1  0  0  0  0
  7 31  1  0  0  0  0
  7 32  1  0  0  0  0
  8  9  1  0  0  0  0
  9 10  1  0  0  0  0
 10 11  2  0  0  0  0
 10 12  1  0  0  0  0
 12 13  1  0  0  0  0
 12 17  1  0  0  0  0
 13 14  1  0  0  0  0
 13 33  1  0  0  0  0
 13 34  1  0  0  0  0
 14 15  1  0  0  0  0
 14 35  1  0  0  0  0
 14 36  1  0  0  0  0
 15 16  1  0  0  0  0
 15 37  1  0  0  0  0
 15 38  1  0  0  0  0
 16 17  1  0  0  0  0
 16 18  1  0  0  0  0
 16 39  1  1  0  0  0
 17 40  1  0  0  0  0
 17 41  1  0  0  0  0
 18 19  2  0  0  0  0
 18 20  1  0  0  0  0
 20 21  1  0  0  0  0
 20 42  1  0  0  0  0
 21 22  1  0  0  0  0
 21 43  1  0  0  0  0
 21 44  1  0  0  0  0
 22 23  1  0  0  0  0
 22 24  1  0  0  0  0
 22 45  1  0  0  0  0
 23 24  1  0  0  0  0
 23 46  1  0  0  0  0
 23 47  1  0  0  0  0
 24 48  1  0  0  0  0
 24 49  1  0  0  0  0
M  END
$$$$
