HTS1710-05420874-01
 OpenBabel03232612343D

 38 38  0  0  1  0  0  0  0  0999 V2000
    0.8218  -13.0169  -34.1299 C   0  0  0  0  0  0  0  0  0  0  0  0
    1.3325  -11.7459  -33.4134 C   0  0  0  0  0  0  0  0  0  0  0  0
    0.9166  -10.4316  -34.1215 C   0  0  0  0  0  0  0  0  0  0  0  0
    1.4182  -10.3346  -35.5877 C   0  0  0  0  0  0  0  0  0  0  0  0
    2.9636  -10.2026  -35.6980 C   0  0  2  0  0  0  0  0  0  0  0  0
    3.5054   -9.5084  -34.5188 N   0  0  0  0  0  0  0  0  0  0  0  0
    4.6832   -9.8862  -33.8842 C   0  0  0  0  0  0  0  0  0  0  0  0
    5.3105  -10.8414  -34.3090 O   0  0  0  0  0  0  0  0  0  0  0  0
    5.1141   -9.0981  -32.7053 C   0  0  0  0  0  0  0  0  0  0  0  0
    5.7065   -7.8788  -32.7778 N   0  0  0  0  0  0  0  0  0  0  0  0
    5.9069   -7.5609  -31.5093 C   0  0  0  0  0  0  0  0  0  0  0  0
    5.4908   -8.4742  -30.5625 O   0  0  0  0  0  0  0  0  0  0  0  0
    4.9891   -9.4406  -31.3874 C   0  0  0  0  0  0  0  0  0  0  0  0
    4.3594  -10.6840  -30.8096 C   0  0  0  0  0  0  0  0  0  0  0  0
    4.5395  -10.6820  -29.3800 O   0  0  0  0  0  0  0  0  0  0  0  0
    4.3285  -11.9586  -28.7371 C   0  0  0  0  0  0  0  0  0  0  0  0
    3.0628  -11.9791  -27.8636 C   0  0  0  0  0  0  0  0  0  0  0  0
    2.1859  -11.1853  -28.1564 O   0  5  0  0  0  0  0  0  0  0  0  0
    3.0298  -12.7460  -26.9165 O   0  0  0  0  0  0  0  0  0  0  0  0
    3.3878   -9.4305  -36.9580 C   0  0  0  0  0  0  0  0  0  0  0  0
    4.5655   -9.1352  -37.0751 O   0  5  0  0  0  0  0  0  0  0  0  0
    2.5123   -9.1628  -37.7623 O   0  0  0  0  0  0  0  0  0  0  0  0
    1.1430  -13.8837  -33.5909 H   0  0  0  0  0  0  0  0  0  0  0  0
    1.2161  -13.0488  -35.1241 H   0  0  0  0  0  0  0  0  0  0  0  0
   -0.2473  -12.9982  -34.1707 H   0  0  0  0  0  0  0  0  0  0  0  0
    2.4009  -11.7857  -33.3724 H   0  0  0  0  0  0  0  0  0  0  0  0
    0.8908  -11.7334  -32.4389 H   0  0  0  0  0  0  0  0  0  0  0  0
    1.3191   -9.6075  -33.5703 H   0  0  0  0  0  0  0  0  0  0  0  0
   -0.1528  -10.4145  -34.1522 H   0  0  0  0  0  0  0  0  0  0  0  0
    0.9700   -9.4771  -36.0445 H   0  0  0  0  0  0  0  0  0  0  0  0
    1.1402  -11.2430  -36.0800 H   0  0  0  0  0  0  0  0  0  0  0  0
    3.3546  -11.1969  -35.7568 H   0  0  0  0  0  0  0  0  0  0  0  0
    3.0086   -8.7374  -34.1613 H   0  0  0  0  0  0  0  0  0  0  0  0
    6.3541   -6.6706  -31.2403 H   0  0  0  0  0  0  0  0  0  0  0  0
    4.8270  -11.5505  -31.2286 H   0  0  0  0  0  0  0  0  0  0  0  0
    3.3149  -10.7007  -31.0417 H   0  0  0  0  0  0  0  0  0  0  0  0
    5.1748  -12.1752  -28.1192 H   0  0  0  0  0  0  0  0  0  0  0  0
    4.2032  -12.6919  -29.5063 H   0  0  0  0  0  0  0  0  0  0  0  0
  1  2  1  0  0  0  0
  1 23  1  0  0  0  0
  1 24  1  0  0  0  0
  1 25  1  0  0  0  0
  2  3  1  0  0  0  0
  2 26  1  0  0  0  0
  2 27  1  0  0  0  0
  3  4  1  0  0  0  0
  3 28  1  0  0  0  0
  3 29  1  0  0  0  0
  4  5  1  0  0  0  0
  4 30  1  0  0  0  0
  4 31  1  0  0  0  0
  5  6  1  0  0  0  0
  5 20  1  0  0  0  0
  5 32  1  6  0  0  0
  6  7  1  0  0  0  0
  6 33  1  0  0  0  0
  7  8  2  0  0  0  0
  7  9  1  0  0  0  0
  9 10  1  0  0  0  0
  9 13  2  0  0  0  0
 10 11  2  0  0  0  0
 11 12  1  0  0  0  0
 11 34  1  0  0  0  0
 12 13  1  0  0  0  0
 13 14  1  0  0  0  0
 14 15  1  0  0  0  0
 14 35  1  0  0  0  0
 14 36  1  0  0  0  0
 15 16  1  0  0  0  0
 16 17  1  0  0  0  0
 16 37  1  0  0  0  0
 16 38  1  0  0  0  0
 17 18  1  0  0  0  0
 17 19  2  0  0  0  0
 20 21  1  0  0  0  0
 20 22  2  0  0  0  0
M  CHG  2  18  -1  21  -1
M  END
$$$$
