HTS1710-01932997-01
 OpenBabel03232612353D

 46 48  0  0  1  0  0  0  0  0999 V2000
    4.3925   -9.5806  -30.3823 C   0  0  0  0  0  0  0  0  0  0  0  0
    4.7000  -10.4781  -31.3910 C   0  0  0  0  0  0  0  0  0  0  0  0
    5.3903   -8.4938  -32.7760 C   0  0  0  0  0  0  0  0  0  0  0  0
    5.0598   -7.7198  -31.6974 C   0  0  0  0  0  0  0  0  0  0  0  0
    4.4965   -8.2197  -30.5527 O   0  0  0  0  0  0  0  0  0  0  0  0
    5.1079   -9.9953  -32.7537 C   0  0  2  0  0  0  0  0  0  0  0  0
    3.9341  -10.0568  -29.0697 C   0  0  0  0  0  0  0  0  0  0  0  0
    4.6237  -11.8508  -31.2549 O   0  0  0  0  0  0  0  0  0  0  0  0
    3.8631  -11.5133  -28.9744 C   0  0  0  0  0  0  0  0  0  0  0  0
    5.9840   -8.0111  -34.0882 C   0  0  0  0  0  0  0  0  0  0  0  0
    4.1984  -12.3261  -30.0347 C   0  0  0  0  0  0  0  0  0  0  0  0
    4.0381  -10.3500  -33.7897 C   0  0  0  0  0  0  0  0  0  0  0  0
    5.2845   -6.3629  -31.6647 N   0  0  0  0  0  0  0  0  0  0  0  0
    3.6424   -9.3161  -28.1460 O   0  0  0  0  0  0  0  0  0  0  0  0
    5.7444   -8.5569  -35.1536 O   0  0  0  0  0  0  0  0  0  0  0  0
    6.7679   -6.8939  -33.9862 O   0  0  0  0  0  0  0  0  0  0  0  0
    4.1201  -13.8250  -29.8904 C   0  0  0  0  0  0  0  0  0  0  0  0
    4.8604  -14.2779  -28.7600 O   0  0  0  0  0  0  0  0  0  0  0  0
    5.7414   -4.2046  -33.8484 O   0  0  0  0  0  0  0  0  0  0  0  0
    4.3244  -11.2651  -34.8233 C   0  0  0  0  0  0  0  0  0  0  0  0
    2.7530   -9.7807  -33.7115 C   0  0  0  0  0  0  0  0  0  0  0  0
    6.9063   -5.9869  -35.1018 C   0  0  0  0  0  0  0  0  0  0  0  0
    6.9503   -4.5287  -34.5675 C   0  0  0  0  0  0  0  0  0  0  0  0
    5.7525   -2.9490  -33.1454 C   0  0  0  0  0  0  0  0  0  0  0  0
    3.3373  -11.6096  -35.7589 C   0  0  0  0  0  0  0  0  0  0  0  0
    1.7662  -10.1244  -34.6499 C   0  0  0  0  0  0  0  0  0  0  0  0
    2.0573  -11.0405  -35.6731 C   0  0  0  0  0  0  0  0  0  0  0  0
    6.0205  -10.4945  -33.0044 H   0  0  0  0  0  0  0  0  0  0  0  0
    3.5534  -11.9443  -28.0893 H   0  0  0  0  0  0  0  0  0  0  0  0
    4.7936   -5.7980  -31.0252 H   0  0  0  0  0  0  0  0  0  0  0  0
    5.9363   -5.9569  -32.2808 H   0  0  0  0  0  0  0  0  0  0  0  0
    4.5182  -14.2810  -30.7727 H   0  0  0  0  0  0  0  0  0  0  0  0
    3.0944  -14.0968  -29.7522 H   0  0  0  0  0  0  0  0  0  0  0  0
    4.7139  -15.2289  -28.6375 H   0  0  0  0  0  0  0  0  0  0  0  0
    5.2651  -11.6837  -34.8921 H   0  0  0  0  0  0  0  0  0  0  0  0
    2.5348   -9.1074  -32.9605 H   0  0  0  0  0  0  0  0  0  0  0  0
    6.0726   -6.1016  -35.7627 H   0  0  0  0  0  0  0  0  0  0  0  0
    7.8091   -6.2039  -35.6335 H   0  0  0  0  0  0  0  0  0  0  0  0
    7.7877   -4.4220  -33.9100 H   0  0  0  0  0  0  0  0  0  0  0  0
    7.0404   -3.8630  -35.4004 H   0  0  0  0  0  0  0  0  0  0  0  0
    4.8144   -2.8091  -32.6502 H   0  0  0  0  0  0  0  0  0  0  0  0
    5.9109   -2.1519  -33.8414 H   0  0  0  0  0  0  0  0  0  0  0  0
    6.5407   -2.9524  -32.4217 H   0  0  0  0  0  0  0  0  0  0  0  0
    3.5527  -12.2825  -36.5112 H   0  0  0  0  0  0  0  0  0  0  0  0
    0.8262   -9.7030  -34.5873 H   0  0  0  0  0  0  0  0  0  0  0  0
    1.3313  -11.2950  -36.3609 H   0  0  0  0  0  0  0  0  0  0  0  0
  1  2  2  0  0  0  0
  1  5  1  0  0  0  0
  1  7  1  0  0  0  0
  2  6  1  0  0  0  0
  2  8  1  0  0  0  0
  3  4  2  0  0  0  0
  3  6  1  0  0  0  0
  3 10  1  0  0  0  0
  4  5  1  0  0  0  0
  4 13  1  0  0  0  0
  6 12  1  0  0  0  0
  6 28  1  6  0  0  0
  7  9  1  0  0  0  0
  7 14  2  0  0  0  0
  8 11  1  0  0  0  0
  9 11  2  0  0  0  0
  9 29  1  0  0  0  0
 10 15  2  0  0  0  0
 10 16  1  0  0  0  0
 11 17  1  0  0  0  0
 12 20  2  0  0  0  0
 12 21  1  0  0  0  0
 13 30  1  0  0  0  0
 13 31  1  0  0  0  0
 16 22  1  0  0  0  0
 17 18  1  0  0  0  0
 17 32  1  0  0  0  0
 17 33  1  0  0  0  0
 18 34  1  0  0  0  0
 19 23  1  0  0  0  0
 19 24  1  0  0  0  0
 20 25  1  0  0  0  0
 20 35  1  0  0  0  0
 21 26  2  0  0  0  0
 21 36  1  0  0  0  0
 22 23  1  0  0  0  0
 22 37  1  0  0  0  0
 22 38  1  0  0  0  0
 23 39  1  0  0  0  0
 23 40  1  0  0  0  0
 24 41  1  0  0  0  0
 24 42  1  0  0  0  0
 24 43  1  0  0  0  0
 25 27  2  0  0  0  0
 25 44  1  0  0  0  0
 26 27  1  0  0  0  0
 26 45  1  0  0  0  0
 27 46  1  0  0  0  0
M  END
$$$$
