HTS1710-00603390-01
 OpenBabel03232612343D

 47 48  0  0  1  0  0  0  0  0999 V2000
    3.9316  -13.0702  -29.5626 C   0  0  1  0  0  0  0  0  0  0  0  0
    2.6316  -13.7556  -29.6462 N   0  0  0  0  0  0  0  0  0  0  0  0
    3.6927  -11.5544  -29.4863 C   0  0  0  0  0  0  0  0  0  0  0  0
    4.6291  -13.6132  -28.2970 C   0  0  0  0  0  0  0  0  0  0  0  0
    2.3471  -14.4918  -28.4029 C   0  0  0  0  0  0  0  0  0  0  0  0
    1.7591  -13.6308  -30.7236 C   0  0  0  0  0  0  0  0  0  0  0  0
    4.2697  -10.7503  -30.4608 N   0  0  0  0  0  0  0  0  0  0  0  0
    3.0447  -11.0557  -28.5818 O   0  0  0  0  0  0  0  0  0  0  0  0
    3.5041  -14.2013  -27.4290 C   0  0  0  0  0  0  0  0  0  0  0  0
    2.3193  -12.8869  -31.7232 O   0  0  0  0  0  0  0  0  0  0  0  0
    0.6526  -14.1452  -30.7709 O   0  0  0  0  0  0  0  0  0  0  0  0
    4.1121   -9.2880  -30.4922 C   0  0  2  0  0  0  0  0  0  0  0  0
    3.0160  -13.5550  -32.7894 C   0  0  0  0  0  0  0  0  0  0  0  0
    2.6556   -8.9331  -30.8978 C   0  0  0  0  0  0  0  0  0  0  0  0
    5.1490   -8.6170  -31.4187 C   0  0  0  0  0  0  0  0  0  0  0  0
    2.8709  -12.7256  -34.0552 C   0  0  0  0  0  0  0  0  0  0  0  0
    2.1291   -7.6054  -30.2762 C   0  0  0  0  0  0  0  0  0  0  0  0
    5.4465   -9.2233  -32.4328 O   0  5  0  0  0  0  0  0  0  0  0  0
    5.5837   -7.5222  -31.1016 O   0  0  0  0  0  0  0  0  0  0  0  0
    1.5915  -12.3450  -34.5006 C   0  0  0  0  0  0  0  0  0  0  0  0
    4.0054  -12.3377  -34.7921 C   0  0  0  0  0  0  0  0  0  0  0  0
    2.5085   -6.3384  -31.0660 C   0  0  0  0  0  0  0  0  0  0  0  0
    1.4472  -11.5823  -35.6699 C   0  0  0  0  0  0  0  0  0  0  0  0
    3.8600  -11.5744  -35.9620 C   0  0  0  0  0  0  0  0  0  0  0  0
    3.3081   -5.5875  -30.5341 O   0  5  0  0  0  0  0  0  0  0  0  0
    1.9991   -6.1599  -32.1591 O   0  0  0  0  0  0  0  0  0  0  0  0
    2.5814  -11.1958  -36.4015 C   0  0  0  0  0  0  0  0  0  0  0  0
    4.5492  -13.2483  -30.4179 H   0  0  0  0  0  0  0  0  0  0  0  0
    5.1286  -12.8227  -27.7769 H   0  0  0  0  0  0  0  0  0  0  0  0
    5.3710  -14.3463  -28.5360 H   0  0  0  0  0  0  0  0  0  0  0  0
    2.2906  -15.5414  -28.6027 H   0  0  0  0  0  0  0  0  0  0  0  0
    1.4114  -14.1849  -27.9845 H   0  0  0  0  0  0  0  0  0  0  0  0
    4.8096  -11.1790  -31.1637 H   0  0  0  0  0  0  0  0  0  0  0  0
    3.1985  -13.4966  -26.6840 H   0  0  0  0  0  0  0  0  0  0  0  0
    3.8198  -15.0828  -26.9113 H   0  0  0  0  0  0  0  0  0  0  0  0
    4.2978   -8.9018  -29.5118 H   0  0  0  0  0  0  0  0  0  0  0  0
    2.5938  -14.5260  -32.9439 H   0  0  0  0  0  0  0  0  0  0  0  0
    4.0507  -13.6641  -32.5393 H   0  0  0  0  0  0  0  0  0  0  0  0
    2.0149   -9.7296  -30.5817 H   0  0  0  0  0  0  0  0  0  0  0  0
    2.6544   -8.7991  -31.9595 H   0  0  0  0  0  0  0  0  0  0  0  0
    2.5301   -7.5164  -29.2882 H   0  0  0  0  0  0  0  0  0  0  0  0
    1.0609   -7.6647  -30.2892 H   0  0  0  0  0  0  0  0  0  0  0  0
    0.7559  -12.6279  -33.9653 H   0  0  0  0  0  0  0  0  0  0  0  0
    4.9465  -12.6149  -34.4720 H   0  0  0  0  0  0  0  0  0  0  0  0
    0.5068  -11.3055  -35.9921 H   0  0  0  0  0  0  0  0  0  0  0  0
    4.6944  -11.2914  -36.4995 H   0  0  0  0  0  0  0  0  0  0  0  0
    2.4755  -10.6342  -37.2609 H   0  0  0  0  0  0  0  0  0  0  0  0
  1  2  1  0  0  0  0
  1  3  1  0  0  0  0
  1  4  1  0  0  0  0
  1 28  1  6  0  0  0
  2  5  1  0  0  0  0
  2  6  1  0  0  0  0
  3  7  1  0  0  0  0
  3  8  2  0  0  0  0
  4  9  1  0  0  0  0
  4 29  1  0  0  0  0
  4 30  1  0  0  0  0
  5  9  1  0  0  0  0
  5 31  1  0  0  0  0
  5 32  1  0  0  0  0
  6 10  1  0  0  0  0
  6 11  2  0  0  0  0
  7 12  1  0  0  0  0
  7 33  1  0  0  0  0
  9 34  1  0  0  0  0
  9 35  1  0  0  0  0
 10 13  1  0  0  0  0
 12 14  1  0  0  0  0
 12 15  1  0  0  0  0
 12 36  1  1  0  0  0
 13 16  1  0  0  0  0
 13 37  1  0  0  0  0
 13 38  1  0  0  0  0
 14 17  1  0  0  0  0
 14 39  1  0  0  0  0
 14 40  1  0  0  0  0
 15 18  1  0  0  0  0
 15 19  2  0  0  0  0
 16 20  2  0  0  0  0
 16 21  1  0  0  0  0
 17 22  1  0  0  0  0
 17 41  1  0  0  0  0
 17 42  1  0  0  0  0
 20 23  1  0  0  0  0
 20 43  1  0  0  0  0
 21 24  2  0  0  0  0
 21 44  1  0  0  0  0
 22 25  1  0  0  0  0
 22 26  2  0  0  0  0
 23 27  2  0  0  0  0
 23 45  1  0  0  0  0
 24 27  1  0  0  0  0
 24 46  1  0  0  0  0
 27 47  1  0  0  0  0
M  CHG  2  18  -1  25  -1
M  END
$$$$
