HTS1710-04387468-01
 OpenBabel03232612353D

 34 34  0  0  0  0  0  0  0  0999 V2000
    1.1292  -11.0786  -34.1027 S   0  0  0  0  0  0  0  0  0  0  0  0
    3.5949  -10.6861  -30.8276 C   0  0  0  0  0  0  0  0  0  0  0  0
    2.1888  -11.4550  -32.6930 C   0  0  0  0  0  0  0  0  0  0  0  0
    2.7635  -10.4173  -31.9409 C   0  0  0  0  0  0  0  0  0  0  0  0
    4.1813   -9.5065  -30.0533 C   0  0  0  0  0  0  0  0  0  0  0  0
    0.6776  -12.3400  -34.7002 O   0  0  0  0  0  0  0  0  0  0  0  0
    0.2207   -9.9768  -33.7698 O   0  0  0  0  0  0  0  0  0  0  0  0
    3.8418  -12.0465  -30.4819 C   0  0  0  0  0  0  0  0  0  0  0  0
    4.8345   -9.4796  -36.1624 C   0  0  0  0  0  0  0  0  0  0  0  0
    2.2136  -10.4462  -35.2477 N   0  0  0  0  0  0  0  0  0  0  0  0
    4.6150  -10.9085  -35.6529 C   0  0  0  0  0  0  0  0  0  0  0  0
    3.9871   -9.4785  -28.8498 O   0  5  0  0  0  0  0  0  0  0  0  0
    2.4467  -12.7883  -32.3483 C   0  0  0  0  0  0  0  0  0  0  0  0
    4.2340   -9.1467  -37.1696 O   0  5  0  0  0  0  0  0  0  0  0  0
    3.2645  -13.0822  -31.2511 C   0  0  0  0  0  0  0  0  0  0  0  0
    3.1607  -11.3882  -35.8641 C   0  0  0  0  0  0  0  0  0  0  0  0
    4.8085   -8.6567  -30.6605 O   0  0  0  0  0  0  0  0  0  0  0  0
    5.5839   -8.7674  -35.5169 O   0  0  0  0  0  0  0  0  0  0  0  0
    4.6445  -12.3513  -29.3970 O   0  0  0  0  0  0  0  0  0  0  0  0
    4.3104  -13.3203  -28.3877 C   0  0  0  0  0  0  0  0  0  0  0  0
    2.9876  -12.8803  -27.7331 C   0  0  0  0  0  0  0  0  0  0  0  0
    2.5755   -9.4377  -32.2057 H   0  0  0  0  0  0  0  0  0  0  0  0
    2.7599   -9.7195  -34.7851 H   0  0  0  0  0  0  0  0  0  0  0  0
    4.8395  -10.9395  -34.6071 H   0  0  0  0  0  0  0  0  0  0  0  0
    5.2585  -11.5576  -36.2092 H   0  0  0  0  0  0  0  0  0  0  0  0
    2.0336  -13.5538  -32.9036 H   0  0  0  0  0  0  0  0  0  0  0  0
    3.4481  -14.0665  -31.0009 H   0  0  0  0  0  0  0  0  0  0  0  0
    3.0394  -12.3527  -35.4170 H   0  0  0  0  0  0  0  0  0  0  0  0
    2.9625  -11.4413  -36.9142 H   0  0  0  0  0  0  0  0  0  0  0  0
    5.0854  -13.3608  -27.6511 H   0  0  0  0  0  0  0  0  0  0  0  0
    4.2073  -14.2926  -28.8223 H   0  0  0  0  0  0  0  0  0  0  0  0
    3.1082  -11.9075  -27.3042 H   0  0  0  0  0  0  0  0  0  0  0  0
    2.7198  -13.5774  -26.9668 H   0  0  0  0  0  0  0  0  0  0  0  0
    2.2159  -12.8504  -28.4736 H   0  0  0  0  0  0  0  0  0  0  0  0
  1  3  1  0  0  0  0
  1  6  2  0  0  0  0
  1  7  2  0  0  0  0
  1 10  1  0  0  0  0
  2  4  2  0  0  0  0
  2  5  1  0  0  0  0
  2  8  1  0  0  0  0
  3  4  1  0  0  0  0
  3 13  2  0  0  0  0
  4 22  1  0  0  0  0
  5 12  1  0  0  0  0
  5 17  2  0  0  0  0
  8 19  1  0  0  0  0
  8 15  2  0  0  0  0
  9 11  1  0  0  0  0
  9 14  1  0  0  0  0
  9 18  2  0  0  0  0
 10 16  1  0  0  0  0
 10 23  1  0  0  0  0
 11 16  1  0  0  0  0
 11 24  1  0  0  0  0
 11 25  1  0  0  0  0
 13 15  1  0  0  0  0
 13 26  1  0  0  0  0
 15 27  1  0  0  0  0
 16 28  1  0  0  0  0
 16 29  1  0  0  0  0
 19 20  1  0  0  0  0
 20 21  1  0  0  0  0
 20 30  1  0  0  0  0
 20 31  1  0  0  0  0
 21 32  1  0  0  0  0
 21 33  1  0  0  0  0
 21 34  1  0  0  0  0
M  CHG  2  12  -1  14  -1
M  END
$$$$
