HTS1710-01469506-01
 OpenBabel03232612343D

 26 27  0  0  0  0  0  0  0  0999 V2000
    2.8702   -9.8682  -31.3404 C   0  0  0  0  0  0  0  0  0  0  0  0
    1.8949  -11.5113  -32.8309 N   0  0  0  0  0  0  0  0  0  0  0  0
    2.3193  -10.2511  -32.5948 C   0  0  0  0  0  0  0  0  0  0  0  0
    2.9537  -10.8499  -30.3202 C   0  0  0  0  0  0  0  0  0  0  0  0
    1.9634  -12.4493  -31.8703 C   0  0  0  0  0  0  0  0  0  0  0  0
    2.2133   -9.3068  -33.7730 C   0  0  0  0  0  0  0  0  0  0  0  0
    2.4881  -12.1583  -30.5888 C   0  0  0  0  0  0  0  0  0  0  0  0
    3.5539  -10.5271  -28.9800 C   0  0  0  0  0  0  0  0  0  0  0  0
    3.4101   -8.4454  -31.0918 C   0  0  0  0  0  0  0  0  0  0  0  0
    4.9031   -8.2735  -31.4260 C   0  0  0  0  0  0  0  0  0  0  0  0
    2.8191  -10.0284  -28.1460 O   0  5  0  0  0  0  0  0  0  0  0  0
    2.9876   -9.4600  -34.7015 O   0  5  0  0  0  0  0  0  0  0  0  0
    5.7239   -8.5487  -30.5665 O   0  5  0  0  0  0  0  0  0  0  0  0
    1.3689   -8.4285  -33.7047 O   0  0  0  0  0  0  0  0  0  0  0  0
    4.7305  -10.8048  -28.8210 O   0  0  0  0  0  0  0  0  0  0  0  0
    5.1692   -7.8666  -32.5450 O   0  0  0  0  0  0  0  0  0  0  0  0
    2.5484  -13.1747  -29.6092 C   0  0  0  0  0  0  0  0  0  0  0  0
    1.5093  -13.7544  -32.1409 C   0  0  0  0  0  0  0  0  0  0  0  0
    2.0907  -14.4687  -29.8978 C   0  0  0  0  0  0  0  0  0  0  0  0
    1.5711  -14.7583  -31.1648 C   0  0  0  0  0  0  0  0  0  0  0  0
    3.2673   -8.2074  -30.0584 H   0  0  0  0  0  0  0  0  0  0  0  0
    2.8700   -7.7916  -31.7443 H   0  0  0  0  0  0  0  0  0  0  0  0
    2.9321  -12.9635  -28.6747 H   0  0  0  0  0  0  0  0  0  0  0  0
    1.1249  -13.9752  -33.0728 H   0  0  0  0  0  0  0  0  0  0  0  0
    2.1369  -15.2060  -29.1772 H   0  0  0  0  0  0  0  0  0  0  0  0
    1.2340  -15.7097  -31.3800 H   0  0  0  0  0  0  0  0  0  0  0  0
  1  3  2  0  0  0  0
  1  4  1  0  0  0  0
  1  9  1  0  0  0  0
  2  3  1  0  0  0  0
  2  5  2  0  0  0  0
  3  6  1  0  0  0  0
  4  7  2  0  0  0  0
  4  8  1  0  0  0  0
  5  7  1  0  0  0  0
  5 18  1  0  0  0  0
  6 12  1  0  0  0  0
  6 14  2  0  0  0  0
  7 17  1  0  0  0  0
  8 11  1  0  0  0  0
  8 15  2  0  0  0  0
  9 10  1  0  0  0  0
  9 21  1  0  0  0  0
  9 22  1  0  0  0  0
 10 13  1  0  0  0  0
 10 16  2  0  0  0  0
 17 19  2  0  0  0  0
 17 23  1  0  0  0  0
 18 20  2  0  0  0  0
 18 24  1  0  0  0  0
 19 20  1  0  0  0  0
 19 25  1  0  0  0  0
 20 26  1  0  0  0  0
M  CHG  3  11  -1  12  -1  13  -1
M  END
$$$$
