HTS1710-05252304-01
 OpenBabel03232612363D

 38 39  0  0  1  0  0  0  0  0999 V2000
    1.5139  -13.7631  -31.5635 C   0  0  0  0  0  0  0  0  0  0  0  0
    2.2475  -12.5823  -31.1928 O   0  0  0  0  0  0  0  0  0  0  0  0
    3.5725  -12.4760  -31.5113 C   0  0  0  0  0  0  0  0  0  0  0  0
    4.1939  -13.3938  -32.0221 O   0  0  0  0  0  0  0  0  0  0  0  0
    4.1887  -11.1578  -31.1836 C   0  0  0  0  0  0  0  0  0  0  0  0
    4.4027  -10.5920  -29.9405 C   0  0  0  0  0  0  0  0  0  0  0  0
    4.0472  -11.1948  -28.6032 C   0  0  0  0  0  0  0  0  0  0  0  0
    4.9815   -9.3581  -29.9493 O   0  0  0  0  0  0  0  0  0  0  0  0
    5.1209   -9.1577  -31.2915 C   0  0  0  0  0  0  0  0  0  0  0  0
    5.7328   -7.8623  -31.7574 C   0  0  0  0  0  0  0  0  0  0  0  0
    4.6843  -10.1806  -32.1117 C   0  0  0  0  0  0  0  0  0  0  0  0
    4.7707  -10.2322  -33.9169 S   0  0  0  0  0  0  0  0  0  0  0  0
    4.8091  -11.6548  -34.2686 O   0  0  0  0  0  0  0  0  0  0  0  0
    5.7778   -9.3003  -34.4309 O   0  0  0  0  0  0  0  0  0  0  0  0
    3.2408   -9.6620  -34.4137 N   0  0  0  0  0  0  0  0  0  0  0  0
    2.1577   -9.7390  -33.4291 C   0  0  0  0  0  0  0  0  0  0  0  0
    0.8699   -9.4244  -34.1999 C   0  0  0  0  0  0  0  0  0  0  0  0
    1.1600   -9.8614  -35.6470 C   0  0  0  0  0  0  0  0  0  0  0  0
    2.6880  -10.1191  -35.7085 C   0  0  1  0  0  0  0  0  0  0  0  0
    3.3462   -9.4417  -36.9214 C   0  0  0  0  0  0  0  0  0  0  0  0
    2.6141   -9.1260  -37.8417 O   0  5  0  0  0  0  0  0  0  0  0  0
    4.5549   -9.2787  -36.8927 O   0  0  0  0  0  0  0  0  0  0  0  0
    0.4998  -13.6708  -31.2351 H   0  0  0  0  0  0  0  0  0  0  0  0
    1.9611  -14.6197  -31.1039 H   0  0  0  0  0  0  0  0  0  0  0  0
    1.5353  -13.8771  -32.6272 H   0  0  0  0  0  0  0  0  0  0  0  0
    3.6042  -12.1573  -28.7523 H   0  0  0  0  0  0  0  0  0  0  0  0
    3.3526  -10.5569  -28.0977 H   0  0  0  0  0  0  0  0  0  0  0  0
    4.9328  -11.2975  -28.0115 H   0  0  0  0  0  0  0  0  0  0  0  0
    5.9767   -7.2576  -30.9090 H   0  0  0  0  0  0  0  0  0  0  0  0
    5.0344   -7.3409  -32.3781 H   0  0  0  0  0  0  0  0  0  0  0  0
    6.6218   -8.0684  -32.3160 H   0  0  0  0  0  0  0  0  0  0  0  0
    2.3104   -9.0216  -32.6500 H   0  0  0  0  0  0  0  0  0  0  0  0
    2.1142  -10.7025  -32.9657 H   0  0  0  0  0  0  0  0  0  0  0  0
    0.6525   -8.3776  -34.1589 H   0  0  0  0  0  0  0  0  0  0  0  0
    0.0202   -9.9285  -33.7888 H   0  0  0  0  0  0  0  0  0  0  0  0
    0.8841   -9.0878  -36.3328 H   0  0  0  0  0  0  0  0  0  0  0  0
    0.6011  -10.7332  -35.9161 H   0  0  0  0  0  0  0  0  0  0  0  0
    2.8965  -11.1589  -35.8509 H   0  0  0  0  0  0  0  0  0  0  0  0
  1  2  1  0  0  0  0
  1 23  1  0  0  0  0
  1 24  1  0  0  0  0
  1 25  1  0  0  0  0
  2  3  1  0  0  0  0
  3  4  2  0  0  0  0
  3  5  1  0  0  0  0
  5  6  2  0  0  0  0
  5 11  1  0  0  0  0
  6  7  1  0  0  0  0
  6  8  1  0  0  0  0
  7 26  1  0  0  0  0
  7 27  1  0  0  0  0
  7 28  1  0  0  0  0
  8  9  1  0  0  0  0
  9 10  1  0  0  0  0
  9 11  2  0  0  0  0
 10 29  1  0  0  0  0
 10 30  1  0  0  0  0
 10 31  1  0  0  0  0
 11 12  1  0  0  0  0
 12 13  2  0  0  0  0
 12 14  2  0  0  0  0
 12 15  1  0  0  0  0
 15 16  1  0  0  0  0
 15 19  1  0  0  0  0
 16 17  1  0  0  0  0
 16 32  1  0  0  0  0
 16 33  1  0  0  0  0
 17 18  1  0  0  0  0
 17 34  1  0  0  0  0
 17 35  1  0  0  0  0
 18 19  1  0  0  0  0
 18 36  1  0  0  0  0
 18 37  1  0  0  0  0
 19 20  1  0  0  0  0
 19 38  1  6  0  0  0
 20 21  1  0  0  0  0
 20 22  2  0  0  0  0
M  CHG  1  21  -1
M  END
$$$$
