HTS1710-05467323-01
 OpenBabel03232612363D

 38 39  0  0  1  0  0  0  0  0999 V2000
    5.3941  -11.2724  -36.0859 C   0  0  0  0  0  0  0  0  0  0  0  0
    4.8797  -10.8586  -34.8076 O   0  0  0  0  0  0  0  0  0  0  0  0
    5.2099   -9.6289  -34.3106 C   0  0  0  0  0  0  0  0  0  0  0  0
    5.7153   -8.7492  -34.9892 O   0  0  0  0  0  0  0  0  0  0  0  0
    4.9059   -9.4378  -32.8721 C   0  0  0  0  0  0  0  0  0  0  0  0
    4.0646  -10.2699  -32.0891 C   0  0  0  0  0  0  0  0  0  0  0  0
    4.0707   -9.7269  -30.8306 C   0  0  0  0  0  0  0  0  0  0  0  0
    4.8436   -8.6019  -30.7089 O   0  0  0  0  0  0  0  0  0  0  0  0
    5.3293   -8.4731  -31.9828 C   0  0  0  0  0  0  0  0  0  0  0  0
    6.2589   -7.3256  -32.2907 C   0  0  0  0  0  0  0  0  0  0  0  0
    3.1880  -10.3814  -29.4221 S   0  0  0  0  0  0  0  0  0  0  0  0
    2.0793   -9.4650  -29.1353 O   0  0  0  0  0  0  0  0  0  0  0  0
    4.1860  -10.7495  -28.4141 O   0  0  0  0  0  0  0  0  0  0  0  0
    2.5394  -11.8497  -29.9872 N   0  0  0  0  0  0  0  0  0  0  0  0
    2.9382  -13.1212  -29.3567 C   0  0  2  0  0  0  0  0  0  0  0  0
    2.6223  -13.1110  -27.8452 C   0  0  0  0  0  0  0  0  0  0  0  0
    3.7386  -13.9218  -27.1491 C   0  0  0  0  0  0  0  0  0  0  0  0
    4.7586  -14.3205  -28.2426 C   0  0  1  0  0  0  0  0  0  0  0  0
    4.4533  -13.3946  -29.4457 C   0  0  0  0  0  0  0  0  0  0  0  0
    6.2156  -14.3090  -27.7356 C   0  0  0  0  0  0  0  0  0  0  0  0
    6.9059  -13.3315  -27.9714 O   0  5  0  0  0  0  0  0  0  0  0  0
    6.5902  -15.3007  -27.1341 O   0  0  0  0  0  0  0  0  0  0  0  0
    5.0353  -12.2543  -36.3137 H   0  0  0  0  0  0  0  0  0  0  0  0
    6.4635  -11.2820  -36.0538 H   0  0  0  0  0  0  0  0  0  0  0  0
    5.0661  -10.5886  -36.8407 H   0  0  0  0  0  0  0  0  0  0  0  0
    3.5538  -11.1102  -32.4024 H   0  0  0  0  0  0  0  0  0  0  0  0
    6.4083   -6.7408  -31.4072 H   0  0  0  0  0  0  0  0  0  0  0  0
    5.8284   -6.7132  -33.0552 H   0  0  0  0  0  0  0  0  0  0  0  0
    7.1992   -7.7089  -32.6280 H   0  0  0  0  0  0  0  0  0  0  0  0
    2.7859  -11.9202  -30.9744 H   0  0  0  0  0  0  0  0  0  0  0  0
    2.3897  -13.8692  -29.8901 H   0  0  0  0  0  0  0  0  0  0  0  0
    1.6704  -13.5651  -27.6649 H   0  0  0  0  0  0  0  0  0  0  0  0
    2.5833  -12.1103  -27.4683 H   0  0  0  0  0  0  0  0  0  0  0  0
    3.3267  -14.7982  -26.6940 H   0  0  0  0  0  0  0  0  0  0  0  0
    4.2087  -13.3430  -26.3817 H   0  0  0  0  0  0  0  0  0  0  0  0
    4.6544  -15.3407  -28.5480 H   0  0  0  0  0  0  0  0  0  0  0  0
    4.6950  -13.8817  -30.3672 H   0  0  0  0  0  0  0  0  0  0  0  0
    5.0290  -12.4931  -29.4183 H   0  0  0  0  0  0  0  0  0  0  0  0
  1  2  1  0  0  0  0
  1 23  1  0  0  0  0
  1 24  1  0  0  0  0
  1 25  1  0  0  0  0
  2  3  1  0  0  0  0
  3  4  2  0  0  0  0
  3  5  1  0  0  0  0
  5  6  1  0  0  0  0
  5  9  2  0  0  0  0
  6  7  2  0  0  0  0
  6 26  1  0  0  0  0
  7  8  1  0  0  0  0
  7 11  1  0  0  0  0
  8  9  1  0  0  0  0
  9 10  1  0  0  0  0
 10 27  1  0  0  0  0
 10 28  1  0  0  0  0
 10 29  1  0  0  0  0
 11 12  2  0  0  0  0
 11 13  2  0  0  0  0
 11 14  1  0  0  0  0
 14 15  1  0  0  0  0
 14 30  1  0  0  0  0
 15 16  1  0  0  0  0
 15 19  1  0  0  0  0
 15 31  1  6  0  0  0
 16 17  1  0  0  0  0
 16 32  1  0  0  0  0
 16 33  1  0  0  0  0
 17 18  1  0  0  0  0
 17 34  1  0  0  0  0
 17 35  1  0  0  0  0
 18 19  1  0  0  0  0
 18 20  1  0  0  0  0
 18 36  1  6  0  0  0
 19 37  1  0  0  0  0
 19 38  1  0  0  0  0
 20 21  1  0  0  0  0
 20 22  2  0  0  0  0
M  CHG  1  21  -1
M  END
$$$$
