HTS1710-01268621-01
 OpenBabel03232612353D

 50 51  0  0  1  0  0  0  0  0999 V2000
    3.8244  -10.8520  -31.8184 C   0  0  0  0  0  0  0  0  0  0  0  0
    3.1509  -12.0623  -32.3657 C   0  0  0  0  0  0  0  0  0  0  0  0
    2.9378  -13.0867  -31.4403 N   0  0  0  0  0  0  0  0  0  0  0  0
    4.2266  -10.7336  -30.4925 C   0  0  0  0  0  0  0  0  0  0  0  0
    4.0774   -9.6925  -32.7923 C   0  0  2  0  0  0  0  0  0  0  0  0
    3.9739  -11.8437  -29.6173 C   0  0  0  0  0  0  0  0  0  0  0  0
    3.3501  -12.9746  -30.1055 C   0  0  0  0  0  0  0  0  0  0  0  0
    2.7724   -9.1878  -33.4482 C   0  0  0  0  0  0  0  0  0  0  0  0
    1.8744   -8.4081  -32.6824 C   0  0  0  0  0  0  0  0  0  0  0  0
    2.2408  -14.3177  -31.9128 C   0  0  0  0  0  0  0  0  0  0  0  0
    2.8092  -12.1568  -33.5341 O   0  0  0  0  0  0  0  0  0  0  0  0
    0.6677   -7.9504  -33.2568 C   0  0  0  0  0  0  0  0  0  0  0  0
    5.2165  -10.0623  -33.7879 C   0  0  0  0  0  0  0  0  0  0  0  0
    2.4366   -9.4950  -34.7865 C   0  0  0  0  0  0  0  0  0  0  0  0
    0.7437  -14.0545  -32.1251 C   0  0  0  0  0  0  0  0  0  0  0  0
    5.7816   -8.8265  -34.4951 C   0  0  0  0  0  0  0  0  0  0  0  0
    0.0503  -13.9463  -31.1284 O   0  5  0  0  0  0  0  0  0  0  0  0
    5.7512   -8.6657  -35.7045 O   0  0  0  0  0  0  0  0  0  0  0  0
    4.8430   -9.6472  -29.9782 O   0  5  0  0  0  0  0  0  0  0  0  0
    0.3473   -8.2607  -34.5857 C   0  0  0  0  0  0  0  0  0  0  0  0
    1.2376   -9.0388  -35.3510 C   0  0  0  0  0  0  0  0  0  0  0  0
    2.2043   -8.1098  -31.3718 O   0  0  0  0  0  0  0  0  0  0  0  0
    0.3471  -13.9636  -33.2740 O   0  0  0  0  0  0  0  0  0  0  0  0
    6.3154   -7.9369  -33.6032 O   0  0  0  0  0  0  0  0  0  0  0  0
    3.1222  -14.1068  -29.1204 C   0  0  0  0  0  0  0  0  0  0  0  0
   -0.8449   -7.7853  -35.0987 O   0  0  0  0  0  0  0  0  0  0  0  0
    1.6477   -7.0026  -30.6441 C   0  0  0  0  0  0  0  0  0  0  0  0
    6.8365   -6.6858  -34.0853 C   0  0  0  0  0  0  0  0  0  0  0  0
   -0.9291   -6.6030  -35.9143 C   0  0  0  0  0  0  0  0  0  0  0  0
    4.4315   -8.8438  -32.2454 H   0  0  0  0  0  0  0  0  0  0  0  0
    4.2578  -11.7964  -28.6262 H   0  0  0  0  0  0  0  0  0  0  0  0
    2.3602  -15.0899  -31.1818 H   0  0  0  0  0  0  0  0  0  0  0  0
    2.6704  -14.6159  -32.8463 H   0  0  0  0  0  0  0  0  0  0  0  0
    0.0162   -7.3823  -32.6929 H   0  0  0  0  0  0  0  0  0  0  0  0
    4.8275  -10.7345  -34.5241 H   0  0  0  0  0  0  0  0  0  0  0  0
    6.0089  -10.5166  -33.2307 H   0  0  0  0  0  0  0  0  0  0  0  0
    3.0833  -10.0630  -35.3558 H   0  0  0  0  0  0  0  0  0  0  0  0
    1.0067   -9.2735  -36.3291 H   0  0  0  0  0  0  0  0  0  0  0  0
    3.5054  -13.8276  -28.1612 H   0  0  0  0  0  0  0  0  0  0  0  0
    3.6268  -14.9856  -29.4641 H   0  0  0  0  0  0  0  0  0  0  0  0
    2.0737  -14.3054  -29.0416 H   0  0  0  0  0  0  0  0  0  0  0  0
    2.0577   -6.9829  -29.6559 H   0  0  0  0  0  0  0  0  0  0  0  0
    0.5847   -7.1115  -30.5870 H   0  0  0  0  0  0  0  0  0  0  0  0
    1.8861   -6.0890  -31.1474 H   0  0  0  0  0  0  0  0  0  0  0  0
    7.2122   -6.1149  -33.2620 H   0  0  0  0  0  0  0  0  0  0  0  0
    6.0567   -6.1386  -34.5724 H   0  0  0  0  0  0  0  0  0  0  0  0
    7.6283   -6.8733  -34.7802 H   0  0  0  0  0  0  0  0  0  0  0  0
   -1.9483   -6.4332  -36.1923 H   0  0  0  0  0  0  0  0  0  0  0  0
   -0.3362   -6.7345  -36.7953 H   0  0  0  0  0  0  0  0  0  0  0  0
   -0.5653   -5.7619  -35.3619 H   0  0  0  0  0  0  0  0  0  0  0  0
  1  2  1  0  0  0  0
  1  4  2  0  0  0  0
  1  5  1  0  0  0  0
  2  3  1  0  0  0  0
  2 11  2  0  0  0  0
  3 10  1  0  0  0  0
  3  7  1  0  0  0  0
  4  6  1  0  0  0  0
  4 19  1  0  0  0  0
  5  8  1  0  0  0  0
  5 13  1  0  0  0  0
  5 30  1  1  0  0  0
  6  7  2  0  0  0  0
  6 31  1  0  0  0  0
  7 25  1  0  0  0  0
  8  9  2  0  0  0  0
  8 14  1  0  0  0  0
  9 12  1  0  0  0  0
  9 22  1  0  0  0  0
 10 15  1  0  0  0  0
 10 32  1  0  0  0  0
 10 33  1  0  0  0  0
 12 20  2  0  0  0  0
 12 34  1  0  0  0  0
 13 16  1  0  0  0  0
 13 35  1  0  0  0  0
 13 36  1  0  0  0  0
 14 21  2  0  0  0  0
 14 37  1  0  0  0  0
 15 17  1  0  0  0  0
 15 23  2  0  0  0  0
 16 18  2  0  0  0  0
 16 24  1  0  0  0  0
 20 21  1  0  0  0  0
 20 26  1  0  0  0  0
 21 38  1  0  0  0  0
 22 27  1  0  0  0  0
 24 28  1  0  0  0  0
 25 39  1  0  0  0  0
 25 40  1  0  0  0  0
 25 41  1  0  0  0  0
 26 29  1  0  0  0  0
 27 42  1  0  0  0  0
 27 43  1  0  0  0  0
 27 44  1  0  0  0  0
 28 45  1  0  0  0  0
 28 46  1  0  0  0  0
 28 47  1  0  0  0  0
 29 48  1  0  0  0  0
 29 49  1  0  0  0  0
 29 50  1  0  0  0  0
M  CHG  2  17  -1  19  -1
M  END
$$$$
