HTS1710-00958815-01
 OpenBabel03232612353D

 39 40  0  0  1  0  0  0  0  0999 V2000
    1.4639  -11.1220  -34.7129 N   0  0  0  0  0  0  0  0  0  0  0  0
    2.2937  -10.8003  -35.7602 N   0  0  0  0  0  0  0  0  0  0  0  0
    2.1102   -9.6969  -36.5721 C   0  0  0  0  0  0  0  0  0  0  0  0
    0.4336  -10.3921  -34.3263 N   0  0  0  0  0  0  0  0  0  0  0  0
    0.9611   -8.8458  -36.1510 C   0  0  0  0  0  0  0  0  0  0  0  0
    0.1858   -9.2445  -35.0365 C   0  0  0  0  0  0  0  0  0  0  0  0
    4.8667   -9.2578  -30.9203 C   0  0  0  0  0  0  0  0  0  0  0  0
    4.5781  -10.4431  -34.1222 C   0  0  0  0  0  0  0  0  0  0  0  0
    3.8801  -10.2954  -32.9331 N   0  0  0  0  0  0  0  0  0  0  0  0
    4.4515  -11.7740  -34.8726 C   0  0  0  0  0  0  0  0  0  0  0  0
    3.9135   -9.0764  -32.1175 C   0  0  1  0  0  0  0  0  0  0  0  0
    3.3869  -11.7645  -36.0021 C   0  0  0  0  0  0  0  0  0  0  0  0
    2.8170   -9.4374  -37.5331 O   0  0  0  0  0  0  0  0  0  0  0  0
    2.7921   -6.1638  -31.4672 C   0  0  0  0  0  0  0  0  0  0  0  0
    4.8293  -10.3180  -30.3197 O   0  5  0  0  0  0  0  0  0  0  0  0
    5.2424   -9.5200  -34.5645 O   0  0  0  0  0  0  0  0  0  0  0  0
    3.9615   -5.8242  -31.4005 O   0  5  0  0  0  0  0  0  0  0  0  0
    2.4730   -8.7246  -31.6478 C   0  0  0  0  0  0  0  0  0  0  0  0
    2.3921   -7.4615  -30.7456 C   0  0  0  0  0  0  0  0  0  0  0  0
    5.6027   -8.3236  -30.6539 O   0  0  0  0  0  0  0  0  0  0  0  0
    0.6479   -7.6588  -36.8405 C   0  0  0  0  0  0  0  0  0  0  0  0
    1.9125   -5.5539  -32.0486 O   0  0  0  0  0  0  0  0  0  0  0  0
   -0.8953   -8.4400  -34.6318 C   0  0  0  0  0  0  0  0  0  0  0  0
   -0.4344   -6.8672  -36.4261 C   0  0  0  0  0  0  0  0  0  0  0  0
   -1.2047   -7.2577  -35.3222 C   0  0  0  0  0  0  0  0  0  0  0  0
    3.3319  -11.0504  -32.6189 H   0  0  0  0  0  0  0  0  0  0  0  0
    4.1866  -12.5338  -34.1672 H   0  0  0  0  0  0  0  0  0  0  0  0
    5.3965  -11.9564  -35.3401 H   0  0  0  0  0  0  0  0  0  0  0  0
    4.2851   -8.2635  -32.7058 H   0  0  0  0  0  0  0  0  0  0  0  0
    2.9652  -12.7447  -36.0809 H   0  0  0  0  0  0  0  0  0  0  0  0
    3.8808  -11.4672  -36.9036 H   0  0  0  0  0  0  0  0  0  0  0  0
    2.0863   -9.5566  -31.0971 H   0  0  0  0  0  0  0  0  0  0  0  0
    1.9038   -8.5124  -32.5286 H   0  0  0  0  0  0  0  0  0  0  0  0
    1.3856   -7.3585  -30.3971 H   0  0  0  0  0  0  0  0  0  0  0  0
    3.0872   -7.6026  -29.9445 H   0  0  0  0  0  0  0  0  0  0  0  0
    1.2155   -7.3702  -37.6525 H   0  0  0  0  0  0  0  0  0  0  0  0
   -1.4662   -8.7219  -33.8196 H   0  0  0  0  0  0  0  0  0  0  0  0
   -0.6629   -5.9983  -36.9338 H   0  0  0  0  0  0  0  0  0  0  0  0
   -2.0000   -6.6753  -35.0166 H   0  0  0  0  0  0  0  0  0  0  0  0
  1  2  1  0  0  0  0
  1  4  2  0  0  0  0
  2  3  1  0  0  0  0
  2 12  1  0  0  0  0
  3 13  2  0  0  0  0
  3  5  1  0  0  0  0
  4  6  1  0  0  0  0
  5  6  2  0  0  0  0
  5 21  1  0  0  0  0
  6 23  1  0  0  0  0
  7 11  1  0  0  0  0
  7 15  1  0  0  0  0
  7 20  2  0  0  0  0
  8 10  1  0  0  0  0
  8  9  1  0  0  0  0
  8 16  2  0  0  0  0
  9 11  1  0  0  0  0
  9 26  1  0  0  0  0
 10 12  1  0  0  0  0
 10 27  1  0  0  0  0
 10 28  1  0  0  0  0
 11 18  1  0  0  0  0
 11 29  1  6  0  0  0
 12 30  1  0  0  0  0
 12 31  1  0  0  0  0
 14 19  1  0  0  0  0
 14 17  1  0  0  0  0
 14 22  2  0  0  0  0
 18 19  1  0  0  0  0
 18 32  1  0  0  0  0
 18 33  1  0  0  0  0
 19 34  1  0  0  0  0
 19 35  1  0  0  0  0
 21 24  2  0  0  0  0
 21 36  1  0  0  0  0
 23 25  2  0  0  0  0
 23 37  1  0  0  0  0
 24 25  1  0  0  0  0
 24 38  1  0  0  0  0
 25 39  1  0  0  0  0
M  CHG  2  15  -1  17  -1
M  END
$$$$
