HTS1710-04762373-01
 OpenBabel03232612353D

 42 44  0  0  1  0  0  0  0  0999 V2000
   -4.3057   -7.0052  -35.9445 O   0  5  0  0  0  0  0  0  0  0  0  0
   -3.5469   -7.1113  -34.9980 C   0  0  0  0  0  0  0  0  0  0  0  0
   -3.5246   -8.0443  -34.2131 O   0  0  0  0  0  0  0  0  0  0  0  0
   -2.5442   -5.9647  -34.7961 C   0  0  0  0  0  0  0  0  0  0  0  0
   -1.4531   -6.0289  -35.7401 O   0  0  0  0  0  0  0  0  0  0  0  0
   -0.5545   -7.0791  -35.7709 C   0  0  0  0  0  0  0  0  0  0  0  0
    0.2250   -7.2575  -36.9256 C   0  0  0  0  0  0  0  0  0  0  0  0
    1.1449   -8.3154  -37.0018 C   0  0  0  0  0  0  0  0  0  0  0  0
    1.2900   -9.2007  -35.9232 C   0  0  0  0  0  0  0  0  0  0  0  0
    0.5173   -9.0313  -34.7612 C   0  0  0  0  0  0  0  0  0  0  0  0
    0.6651   -9.9922  -33.5904 C   0  0  0  0  0  0  0  0  0  0  0  0
    1.9854   -9.8076  -32.9808 N   0  0  0  0  0  0  0  0  0  0  0  0
    2.2864   -8.7275  -32.1604 C   0  0  0  0  0  0  0  0  0  0  0  0
    1.4201   -7.8979  -31.9353 O   0  0  0  0  0  0  0  0  0  0  0  0
    3.6572   -8.6466  -31.6003 C   0  0  0  0  0  0  0  0  0  0  0  0
    4.5240   -7.6317  -31.8545 N   0  0  0  0  0  0  0  0  0  0  0  0
    5.6000   -7.9693  -31.1630 C   0  0  0  0  0  0  0  0  0  0  0  0
    5.5389   -9.1473  -30.4484 O   0  0  0  0  0  0  0  0  0  0  0  0
    4.2681   -9.5430  -30.7673 C   0  0  0  0  0  0  0  0  0  0  0  0
    3.6852  -10.8385  -30.2396 C   0  0  2  0  0  0  0  0  0  0  0  0
    2.9374  -10.7474  -28.8901 C   0  0  0  0  0  0  0  0  0  0  0  0
    3.2068  -12.1079  -28.2196 C   0  0  0  0  0  0  0  0  0  0  0  0
    4.1541  -12.8383  -29.1900 C   0  0  0  0  0  0  0  0  0  0  0  0
    4.7376  -11.7717  -29.9528 O   0  0  0  0  0  0  0  0  0  0  0  0
   -0.4029   -7.9704  -34.6854 C   0  0  0  0  0  0  0  0  0  0  0  0
   -2.1470   -6.0235  -33.8042 H   0  0  0  0  0  0  0  0  0  0  0  0
   -3.0621   -5.0413  -34.9510 H   0  0  0  0  0  0  0  0  0  0  0  0
    0.1211   -6.6083  -37.7212 H   0  0  0  0  0  0  0  0  0  0  0  0
    1.7153   -8.4419  -37.8526 H   0  0  0  0  0  0  0  0  0  0  0  0
    1.9658   -9.9784  -35.9830 H   0  0  0  0  0  0  0  0  0  0  0  0
    0.5695  -10.9992  -33.9393 H   0  0  0  0  0  0  0  0  0  0  0  0
   -0.0969   -9.7962  -32.8653 H   0  0  0  0  0  0  0  0  0  0  0  0
    2.6865  -10.4752  -33.1597 H   0  0  0  0  0  0  0  0  0  0  0  0
    6.4461   -7.3784  -31.1585 H   0  0  0  0  0  0  0  0  0  0  0  0
    3.0058  -11.1211  -31.0164 H   0  0  0  0  0  0  0  0  0  0  0  0
    1.8888  -10.6016  -29.0458 H   0  0  0  0  0  0  0  0  0  0  0  0
    3.2661   -9.9227  -28.2930 H   0  0  0  0  0  0  0  0  0  0  0  0
    2.2958  -12.6555  -28.0970 H   0  0  0  0  0  0  0  0  0  0  0  0
    3.6295  -12.0020  -27.2423 H   0  0  0  0  0  0  0  0  0  0  0  0
    3.6112  -13.5089  -29.8228 H   0  0  0  0  0  0  0  0  0  0  0  0
    4.8830  -13.4398  -28.6881 H   0  0  0  0  0  0  0  0  0  0  0  0
   -0.9701   -7.8425  -33.8328 H   0  0  0  0  0  0  0  0  0  0  0  0
  1  2  1  0  0  0  0
  2  3  2  0  0  0  0
  2  4  1  0  0  0  0
  4  5  1  0  0  0  0
  4 26  1  0  0  0  0
  4 27  1  0  0  0  0
  5  6  1  0  0  0  0
  6  7  2  0  0  0  0
  6 25  1  0  0  0  0
  7  8  1  0  0  0  0
  7 28  1  0  0  0  0
  8  9  2  0  0  0  0
  8 29  1  0  0  0  0
  9 10  1  0  0  0  0
  9 30  1  0  0  0  0
 10 11  1  0  0  0  0
 10 25  2  0  0  0  0
 11 12  1  0  0  0  0
 11 31  1  0  0  0  0
 11 32  1  0  0  0  0
 12 13  1  0  0  0  0
 12 33  1  0  0  0  0
 13 14  2  0  0  0  0
 13 15  1  0  0  0  0
 15 16  1  0  0  0  0
 15 19  2  0  0  0  0
 16 17  2  0  0  0  0
 17 18  1  0  0  0  0
 17 34  1  0  0  0  0
 18 19  1  0  0  0  0
 19 20  1  0  0  0  0
 20 21  1  0  0  0  0
 20 24  1  0  0  0  0
 20 35  1  6  0  0  0
 21 22  1  0  0  0  0
 21 36  1  0  0  0  0
 21 37  1  0  0  0  0
 22 23  1  0  0  0  0
 22 38  1  0  0  0  0
 22 39  1  0  0  0  0
 23 24  1  0  0  0  0
 23 40  1  0  0  0  0
 23 41  1  0  0  0  0
 25 42  1  0  0  0  0
M  CHG  1   1  -1
M  END
$$$$
