HTS1710-04960295-01
 OpenBabel03232612363D

 39 41  0  0  1  0  0  0  0  0999 V2000
    4.8814   -9.4842  -32.9196 C   0  0  0  0  0  0  0  0  0  0  0  0
    3.2113  -10.3872  -34.4941 N   0  0  0  0  0  0  0  0  0  0  0  0
    4.5590  -10.1349  -34.2210 C   0  0  0  0  0  0  0  0  0  0  0  0
    5.6458   -8.3652  -32.8352 N   0  0  0  0  0  0  0  0  0  0  0  0
    0.8680   -9.8394  -34.8192 C   0  0  2  0  0  0  0  0  0  0  0  0
    4.6121   -9.9156  -31.6448 C   0  0  0  0  0  0  0  0  0  0  0  0
    2.0629   -9.7218  -33.8455 C   0  0  0  0  0  0  0  0  0  0  0  0
    2.7647  -11.0242  -35.7431 C   0  0  0  0  0  0  0  0  0  0  0  0
    1.2245  -11.0436  -35.7096 C   0  0  1  0  0  0  0  0  0  0  0  0
   -1.2588   -4.7079  -37.7406 C   0  0  0  0  0  0  0  0  0  0  0  0
    5.7552   -8.1583  -31.5351 C   0  0  0  0  0  0  0  0  0  0  0  0
    0.8375   -8.6635  -35.6589 O   0  0  0  0  0  0  0  0  0  0  0  0
    5.1532   -9.0806  -30.7074 O   0  0  0  0  0  0  0  0  0  0  0  0
   -1.1825   -5.7180  -36.6157 C   0  0  0  0  0  0  0  0  0  0  0  0
    5.4283  -10.3749  -35.0420 O   0  0  0  0  0  0  0  0  0  0  0  0
   -0.2158   -6.7475  -36.6329 C   0  0  0  0  0  0  0  0  0  0  0  0
   -0.1364   -7.6831  -35.5857 C   0  0  0  0  0  0  0  0  0  0  0  0
   -2.2826   -4.0536  -37.8446 O   0  5  0  0  0  0  0  0  0  0  0  0
    0.7751  -12.2574  -35.1074 O   0  0  0  0  0  0  0  0  0  0  0  0
   -0.2921   -4.6093  -38.4773 O   0  0  0  0  0  0  0  0  0  0  0  0
    4.1792  -11.2987  -31.2163 C   0  0  0  0  0  0  0  0  0  0  0  0
   -2.0765   -5.6475  -35.5266 C   0  0  0  0  0  0  0  0  0  0  0  0
   -2.0065   -6.5827  -34.4834 C   0  0  0  0  0  0  0  0  0  0  0  0
   -1.0425   -7.6011  -34.5076 C   0  0  0  0  0  0  0  0  0  0  0  0
   -0.0698   -9.9420  -34.3142 H   0  0  0  0  0  0  0  0  0  0  0  0
    1.8321  -10.2056  -32.9194 H   0  0  0  0  0  0  0  0  0  0  0  0
    2.2842   -8.6968  -33.6325 H   0  0  0  0  0  0  0  0  0  0  0  0
    3.1440  -12.0230  -35.8029 H   0  0  0  0  0  0  0  0  0  0  0  0
    3.1225  -10.4868  -36.5965 H   0  0  0  0  0  0  0  0  0  0  0  0
    0.7753  -10.9887  -36.6792 H   0  0  0  0  0  0  0  0  0  0  0  0
    6.2667   -7.3453  -31.1578 H   0  0  0  0  0  0  0  0  0  0  0  0
    0.4418   -6.8142  -37.4254 H   0  0  0  0  0  0  0  0  0  0  0  0
   -0.1931  -12.2504  -35.0494 H   0  0  0  0  0  0  0  0  0  0  0  0
    3.7797  -11.8243  -32.0584 H   0  0  0  0  0  0  0  0  0  0  0  0
    3.4292  -11.2185  -30.4573 H   0  0  0  0  0  0  0  0  0  0  0  0
    5.0221  -11.8325  -30.8297 H   0  0  0  0  0  0  0  0  0  0  0  0
   -2.7886   -4.9011  -35.4971 H   0  0  0  0  0  0  0  0  0  0  0  0
   -2.6680   -6.5209  -33.6936 H   0  0  0  0  0  0  0  0  0  0  0  0
   -0.9962   -8.2884  -33.7391 H   0  0  0  0  0  0  0  0  0  0  0  0
  1  3  1  0  0  0  0
  1  4  1  0  0  0  0
  1  6  2  0  0  0  0
  2  3  1  0  0  0  0
  2  7  1  0  0  0  0
  2  8  1  0  0  0  0
  3 15  2  0  0  0  0
  4 11  2  0  0  0  0
  5  7  1  0  0  0  0
  5 12  1  0  0  0  0
  5  9  1  0  0  0  0
  5 25  1  1  0  0  0
  6 13  1  0  0  0  0
  6 21  1  0  0  0  0
  7 26  1  0  0  0  0
  7 27  1  0  0  0  0
  8  9  1  0  0  0  0
  8 28  1  0  0  0  0
  8 29  1  0  0  0  0
  9 19  1  0  0  0  0
  9 30  1  6  0  0  0
 10 14  1  0  0  0  0
 10 18  1  0  0  0  0
 10 20  2  0  0  0  0
 11 13  1  0  0  0  0
 11 31  1  0  0  0  0
 12 17  1  0  0  0  0
 14 16  2  0  0  0  0
 14 22  1  0  0  0  0
 16 17  1  0  0  0  0
 16 32  1  0  0  0  0
 17 24  2  0  0  0  0
 19 33  1  0  0  0  0
 21 34  1  0  0  0  0
 21 35  1  0  0  0  0
 21 36  1  0  0  0  0
 22 23  2  0  0  0  0
 22 37  1  0  0  0  0
 23 24  1  0  0  0  0
 23 38  1  0  0  0  0
 24 39  1  0  0  0  0
M  CHG  1  18  -1
M  END
$$$$
