HTS1710-00277858-01
 OpenBabel03232612363D

 38 40  0  0  1  0  0  0  0  0999 V2000
    2.4463  -11.5268  -31.6276 C   0  0  0  0  0  0  0  0  0  0  0  0
    3.2487  -10.9728  -30.4276 C   0  0  1  0  0  0  0  0  0  0  0  0
    4.0514  -12.0570  -29.8417 N   0  0  0  0  0  0  0  0  0  0  0  0
    3.8458  -12.5466  -28.5578 C   0  0  0  0  0  0  0  0  0  0  0  0
    2.9600  -12.0707  -27.8665 O   0  0  0  0  0  0  0  0  0  0  0  0
    4.7215  -13.6613  -28.0459 C   0  0  0  0  0  0  0  0  0  0  0  0
    4.2875  -15.0025  -28.0392 C   0  0  0  0  0  0  0  0  0  0  0  0
    5.1535  -15.9916  -27.5474 C   0  0  0  0  0  0  0  0  0  0  0  0
    6.4220  -15.6116  -27.0802 C   0  0  0  0  0  0  0  0  0  0  0  0
    6.8486  -14.3342  -27.0821 N   0  0  0  0  0  0  0  0  0  0  0  0
    6.0154  -13.3842  -27.5548 C   0  0  0  0  0  0  0  0  0  0  0  0
    4.1692   -9.8420  -30.8493 C   0  0  0  0  0  0  0  0  0  0  0  0
    4.3425   -9.3389  -32.1093 C   0  0  0  0  0  0  0  0  0  0  0  0
    3.7308   -9.8348  -33.3833 C   0  0  0  0  0  0  0  0  0  0  0  0
    4.3173  -10.7016  -34.0051 O   0  5  0  0  0  0  0  0  0  0  0  0
    2.6501   -9.3848  -33.7177 O   0  0  0  0  0  0  0  0  0  0  0  0
    5.3450   -8.3248  -31.8866 C   0  0  0  0  0  0  0  0  0  0  0  0
    5.7949   -8.3364  -30.6339 N   0  0  0  0  0  0  0  0  0  0  0  0
    5.0205   -9.3101  -29.9346 O   0  0  0  0  0  0  0  0  0  0  0  0
    5.7514   -7.3510  -32.9175 C   0  0  0  0  0  0  0  0  0  0  0  0
    5.9558   -5.9808  -32.6480 C   0  0  0  0  0  0  0  0  0  0  0  0
    6.4071   -5.1404  -33.6759 C   0  0  0  0  0  0  0  0  0  0  0  0
    6.6686   -5.6948  -34.9378 C   0  0  0  0  0  0  0  0  0  0  0  0
    6.5267   -7.0079  -35.1990 N   0  0  0  0  0  0  0  0  0  0  0  0
    6.0939   -7.8127  -34.2073 C   0  0  0  0  0  0  0  0  0  0  0  0
    1.8097  -12.3200  -31.2953 H   0  0  0  0  0  0  0  0  0  0  0  0
    3.1232  -11.8991  -32.3679 H   0  0  0  0  0  0  0  0  0  0  0  0
    1.8507  -10.7447  -32.0500 H   0  0  0  0  0  0  0  0  0  0  0  0
    2.5549  -10.5887  -29.7093 H   0  0  0  0  0  0  0  0  0  0  0  0
    4.7690  -12.4550  -30.3856 H   0  0  0  0  0  0  0  0  0  0  0  0
    3.3497  -15.2527  -28.3897 H   0  0  0  0  0  0  0  0  0  0  0  0
    4.8627  -16.9816  -27.5293 H   0  0  0  0  0  0  0  0  0  0  0  0
    7.0549  -16.3429  -26.7199 H   0  0  0  0  0  0  0  0  0  0  0  0
    6.3408  -12.4048  -27.5575 H   0  0  0  0  0  0  0  0  0  0  0  0
    5.7752   -5.6018  -31.7052 H   0  0  0  0  0  0  0  0  0  0  0  0
    6.5444   -4.1316  -33.5071 H   0  0  0  0  0  0  0  0  0  0  0  0
    6.9828   -5.0705  -35.6971 H   0  0  0  0  0  0  0  0  0  0  0  0
    6.0080   -8.8224  -34.4019 H   0  0  0  0  0  0  0  0  0  0  0  0
  1  2  1  0  0  0  0
  1 26  1  0  0  0  0
  1 27  1  0  0  0  0
  1 28  1  0  0  0  0
  2  3  1  0  0  0  0
  2 12  1  0  0  0  0
  2 29  1  1  0  0  0
  3  4  1  0  0  0  0
  3 30  1  0  0  0  0
  4  5  2  0  0  0  0
  4  6  1  0  0  0  0
  6  7  2  0  0  0  0
  6 11  1  0  0  0  0
  7  8  1  0  0  0  0
  7 31  1  0  0  0  0
  8  9  2  0  0  0  0
  8 32  1  0  0  0  0
  9 10  1  0  0  0  0
  9 33  1  0  0  0  0
 10 11  2  0  0  0  0
 11 34  1  0  0  0  0
 12 13  2  0  0  0  0
 12 19  1  0  0  0  0
 13 14  1  0  0  0  0
 13 17  1  0  0  0  0
 14 15  1  0  0  0  0
 14 16  2  0  0  0  0
 17 18  2  0  0  0  0
 17 20  1  0  0  0  0
 18 19  1  0  0  0  0
 20 21  2  0  0  0  0
 20 25  1  0  0  0  0
 21 22  1  0  0  0  0
 21 35  1  0  0  0  0
 22 23  2  0  0  0  0
 22 36  1  0  0  0  0
 23 24  1  0  0  0  0
 23 37  1  0  0  0  0
 24 25  2  0  0  0  0
 25 38  1  0  0  0  0
M  CHG  1  15  -1
M  END
$$$$
