HTS1710-04798953-01
 OpenBabel03232612363D

 39 41  0  0  1  0  0  0  0  0999 V2000
    5.9982   -7.9128  -33.1937 C   0  0  0  0  0  0  0  0  0  0  0  0
    4.6037  -13.5767  -28.6747 N   0  0  0  0  0  0  0  0  0  0  0  0
    3.4397  -12.9381  -28.2934 C   0  0  0  0  0  0  0  0  0  0  0  0
    5.1125   -9.7614  -32.3620 C   0  0  0  0  0  0  0  0  0  0  0  0
    5.4546   -9.1713  -33.5501 C   0  0  0  0  0  0  0  0  0  0  0  0
    4.5339  -11.1126  -32.2308 C   0  0  0  0  0  0  0  0  0  0  0  0
    5.3731   -8.9932  -31.2537 O   0  0  0  0  0  0  0  0  0  0  0  0
    5.9153   -7.8692  -31.8244 C   0  0  0  0  0  0  0  0  0  0  0  0
    2.5650  -12.7150  -29.5246 C   0  0  0  0  0  0  0  0  0  0  0  0
    6.5407   -6.8817  -34.0982 C   0  0  0  0  0  0  0  0  0  0  0  0
    4.1563  -11.5358  -30.9629 N   0  0  0  0  0  0  0  0  0  0  0  0
    3.5677  -12.8585  -30.6953 C   0  0  1  0  0  0  0  0  0  0  0  0
    4.6486  -13.8034  -30.1195 C   0  0  0  0  0  0  0  0  0  0  0  0
    5.8735  -13.4941  -27.9333 C   0  0  0  0  0  0  0  0  0  0  0  0
    3.1891  -12.5412  -27.1676 O   0  0  0  0  0  0  0  0  0  0  0  0
    4.3935  -11.8601  -33.1851 O   0  0  0  0  0  0  0  0  0  0  0  0
    6.8351   -5.8032  -33.6122 O   0  5  0  0  0  0  0  0  0  0  0  0
    6.6613   -7.1743  -35.2753 O   0  0  0  0  0  0  0  0  0  0  0  0
    6.2353  -14.8207  -27.2723 C   0  0  0  0  0  0  0  0  0  0  0  0
    7.5743  -15.1108  -26.9524 C   0  0  0  0  0  0  0  0  0  0  0  0
    5.2400  -15.7831  -27.0173 C   0  0  0  0  0  0  0  0  0  0  0  0
    5.5807  -17.0214  -26.4504 C   0  0  0  0  0  0  0  0  0  0  0  0
    7.9143  -16.3479  -26.3816 C   0  0  0  0  0  0  0  0  0  0  0  0
    6.9177  -17.3043  -26.1322 C   0  0  0  0  0  0  0  0  0  0  0  0
    5.3408   -9.5597  -34.4995 H   0  0  0  0  0  0  0  0  0  0  0  0
    6.2341   -7.0590  -31.2704 H   0  0  0  0  0  0  0  0  0  0  0  0
    2.1254  -11.7396  -29.5122 H   0  0  0  0  0  0  0  0  0  0  0  0
    1.7434  -13.3976  -29.5872 H   0  0  0  0  0  0  0  0  0  0  0  0
    4.2889  -10.9207  -30.2056 H   0  0  0  0  0  0  0  0  0  0  0  0
    3.1352  -13.2232  -31.6035 H   0  0  0  0  0  0  0  0  0  0  0  0
    4.4204  -14.8232  -30.3493 H   0  0  0  0  0  0  0  0  0  0  0  0
    5.6174  -13.6111  -30.5310 H   0  0  0  0  0  0  0  0  0  0  0  0
    5.7834  -12.7437  -27.1760 H   0  0  0  0  0  0  0  0  0  0  0  0
    6.6481  -13.2493  -28.6297 H   0  0  0  0  0  0  0  0  0  0  0  0
    8.3100  -14.4112  -27.1381 H   0  0  0  0  0  0  0  0  0  0  0  0
    4.2554  -15.5774  -27.2481 H   0  0  0  0  0  0  0  0  0  0  0  0
    4.8473  -17.7242  -26.2677 H   0  0  0  0  0  0  0  0  0  0  0  0
    8.8975  -16.5540  -26.1453 H   0  0  0  0  0  0  0  0  0  0  0  0
    7.1680  -18.2146  -25.7153 H   0  0  0  0  0  0  0  0  0  0  0  0
  1  5  1  0  0  0  0
  1  8  2  0  0  0  0
  1 10  1  0  0  0  0
  2 13  1  0  0  0  0
  2 14  1  0  0  0  0
  2  3  1  0  0  0  0
  3  9  1  0  0  0  0
  3 15  2  0  0  0  0
  4  5  2  0  0  0  0
  4  6  1  0  0  0  0
  4  7  1  0  0  0  0
  5 25  1  0  0  0  0
  6 11  1  0  0  0  0
  6 16  2  0  0  0  0
  7  8  1  0  0  0  0
  8 26  1  0  0  0  0
  9 12  1  0  0  0  0
  9 27  1  0  0  0  0
  9 28  1  0  0  0  0
 10 17  1  0  0  0  0
 10 18  2  0  0  0  0
 11 12  1  0  0  0  0
 11 29  1  0  0  0  0
 12 13  1  0  0  0  0
 12 30  1  6  0  0  0
 13 31  1  0  0  0  0
 13 32  1  0  0  0  0
 14 19  1  0  0  0  0
 14 33  1  0  0  0  0
 14 34  1  0  0  0  0
 19 20  2  0  0  0  0
 19 21  1  0  0  0  0
 20 23  1  0  0  0  0
 20 35  1  0  0  0  0
 21 22  2  0  0  0  0
 21 36  1  0  0  0  0
 22 24  1  0  0  0  0
 22 37  1  0  0  0  0
 23 24  2  0  0  0  0
 23 38  1  0  0  0  0
 24 39  1  0  0  0  0
M  CHG  1  17  -1
M  END
$$$$
