HTS1710-01968294-01
 OpenBabel03232612353D

 27 27  0  0  0  0  0  0  0  0999 V2000
    4.5679  -10.1432  -35.6947 S   0  0  0  0  0  0  0  0  0  0  0  0
    3.9412  -11.2808  -28.6722 S   0  0  0  0  0  0  0  0  0  0  0  0
    2.1056  -12.6195  -33.0025 S   0  0  0  0  0  0  0  0  0  0  0  0
    0.8750  -13.0161  -34.1711 C   0  0  0  0  0  0  0  0  0  0  0  0
    1.3770  -13.8913  -32.0592 C   0  0  0  0  0  0  0  0  0  0  0  0
    0.3477  -14.5146  -32.6061 N   0  0  0  0  0  0  0  0  0  0  0  0
    0.0552  -14.0014  -33.8561 N   0  0  0  0  0  0  0  0  0  0  0  0
    3.2726  -12.0373  -30.1784 C   0  0  0  0  0  0  0  0  0  0  0  0
    3.2985  -11.4113  -35.9577 C   0  0  0  0  0  0  0  0  0  0  0  0
    4.2561   -9.1356  -36.6939 O   0  0  0  0  0  1  0  0  0  0  0  0
    4.5410  -10.0507  -29.1593 O   0  0  0  0  0  1  0  0  0  0  0  0
    4.8897  -12.2672  -28.1843 O   0  0  0  0  0  0  0  0  0  0  0  0
    4.3399   -9.7288  -34.3211 O   0  0  0  0  0  0  0  0  0  0  0  0
    5.8148  -10.8562  -35.9151 O   0  0  0  0  0  0  0  0  0  0  0  0
    2.7684  -11.0933  -27.8333 O   0  0  0  0  0  0  0  0  0  0  0  0
    1.8619  -14.4138  -30.4496 S   0  0  0  0  0  0  0  0  0  0  0  0
    0.6361  -12.2349  -35.7291 S   0  0  0  0  0  0  0  0  0  0  0  0
    3.4802  -13.5660  -30.2123 C   0  0  0  0  0  0  0  0  0  0  0  0
    1.8772  -10.8746  -35.6724 C   0  0  0  0  0  0  0  0  0  0  0  0
    3.7621  -11.6053  -31.0261 H   0  0  0  0  0  0  0  0  0  0  0  0
    2.2190  -11.8512  -30.1962 H   0  0  0  0  0  0  0  0  0  0  0  0
    3.4938  -12.2365  -35.3050 H   0  0  0  0  0  0  0  0  0  0  0  0
    3.3389  -11.7121  -36.9838 H   0  0  0  0  0  0  0  0  0  0  0  0
    3.9159  -13.8854  -29.2887 H   0  0  0  0  0  0  0  0  0  0  0  0
    4.1306  -13.8150  -31.0246 H   0  0  0  0  0  0  0  0  0  0  0  0
    1.8608  -10.4258  -34.7012 H   0  0  0  0  0  0  0  0  0  0  0  0
    1.6278  -10.1532  -36.4222 H   0  0  0  0  0  0  0  0  0  0  0  0
  1  9  1  0  0  0  0
  1 10  1  0  0  0  0
  1 13  2  0  0  0  0
  1 14  2  0  0  0  0
  2  8  1  0  0  0  0
  2 11  1  0  0  0  0
  2 12  2  0  0  0  0
  2 15  2  0  0  0  0
  3  4  1  0  0  0  0
  3  5  1  0  0  0  0
  4 17  1  0  0  0  0
  4  7  2  0  0  0  0
  5 16  1  0  0  0  0
  5  6  2  0  0  0  0
  6  7  1  0  0  0  0
  8 18  1  0  0  0  0
  8 20  1  0  0  0  0
  8 21  1  0  0  0  0
  9 19  1  0  0  0  0
  9 22  1  0  0  0  0
  9 23  1  0  0  0  0
 16 18  1  0  0  0  0
 17 19  1  0  0  0  0
 18 24  1  0  0  0  0
 18 25  1  0  0  0  0
 19 26  1  0  0  0  0
 19 27  1  0  0  0  0
M  END
$$$$
