HTS1710-04393510-01
 OpenBabel03232612343D

 27 27  0  0  1  0  0  0  0  0999 V2000
    2.7193  -10.9716  -33.1519 N   0  0  0  0  0  0  0  0  0  0  0  0
    3.3362  -10.2601  -35.4187 C   0  0  0  0  0  0  0  0  0  0  0  0
    3.4933  -10.2202  -34.0413 C   0  0  0  0  0  0  0  0  0  0  0  0
    1.6924  -11.8120  -33.5984 C   0  0  0  0  0  0  0  0  0  0  0  0
    3.0636  -10.8483  -31.7001 C   0  0  2  0  0  0  0  0  0  0  0  0
    2.3064  -11.1238  -35.9442 C   0  0  0  0  0  0  0  0  0  0  0  0
    4.1966   -9.4465  -36.3183 C   0  0  0  0  0  0  0  0  0  0  0  0
    1.5400  -11.8450  -35.0605 C   0  0  0  0  0  0  0  0  0  0  0  0
    3.5140   -9.4173  -31.3103 C   0  0  0  0  0  0  0  0  0  0  0  0
    3.9721  -12.0126  -31.1895 C   0  0  0  0  0  0  0  0  0  0  0  0
    3.5631  -11.4916  -28.7247 C   0  0  0  0  0  0  0  0  0  0  0  0
    0.9656  -12.4598  -32.8643 O   0  0  0  0  0  0  0  0  0  0  0  0
    3.7495   -9.1406  -37.4101 O   0  5  0  0  0  0  0  0  0  0  0  0
    4.7053   -9.1976  -31.1750 O   0  5  0  0  0  0  0  0  0  0  0  0
    4.6184  -10.9478  -28.4473 O   0  5  0  0  0  0  0  0  0  0  0  0
    3.5978  -12.5879  -29.7984 C   0  0  0  0  0  0  0  0  0  0  0  0
    5.3038   -9.1287  -35.9160 O   0  0  0  0  0  0  0  0  0  0  0  0
    2.6298   -8.5954  -31.1389 O   0  0  0  0  0  0  0  0  0  0  0  0
    2.4791  -11.2225  -28.2362 O   0  0  0  0  0  0  0  0  0  0  0  0
    4.2218   -9.6019  -33.6514 H   0  0  0  0  0  0  0  0  0  0  0  0
    2.1574  -10.9833  -31.1475 H   0  0  0  0  0  0  0  0  0  0  0  0
    2.1489  -11.1982  -36.9614 H   0  0  0  0  0  0  0  0  0  0  0  0
    0.8042  -12.4539  -35.4514 H   0  0  0  0  0  0  0  0  0  0  0  0
    4.9768  -11.6484  -31.1367 H   0  0  0  0  0  0  0  0  0  0  0  0
    3.8413  -12.8151  -31.8851 H   0  0  0  0  0  0  0  0  0  0  0  0
    2.6321  -13.0446  -29.8598 H   0  0  0  0  0  0  0  0  0  0  0  0
    4.3423  -13.3047  -29.5211 H   0  0  0  0  0  0  0  0  0  0  0  0
  1  3  1  0  0  0  0
  1  4  1  0  0  0  0
  1  5  1  0  0  0  0
  2  3  2  0  0  0  0
  2  7  1  0  0  0  0
  2  6  1  0  0  0  0
  3 20  1  0  0  0  0
  4  8  1  0  0  0  0
  4 12  2  0  0  0  0
  5  9  1  0  0  0  0
  5 10  1  0  0  0  0
  5 21  1  1  0  0  0
  6  8  2  0  0  0  0
  6 22  1  0  0  0  0
  7 13  1  0  0  0  0
  7 17  2  0  0  0  0
  8 23  1  0  0  0  0
  9 14  1  0  0  0  0
  9 18  2  0  0  0  0
 10 16  1  0  0  0  0
 10 24  1  0  0  0  0
 10 25  1  0  0  0  0
 11 16  1  0  0  0  0
 11 15  1  0  0  0  0
 11 19  2  0  0  0  0
 16 26  1  0  0  0  0
 16 27  1  0  0  0  0
M  CHG  3  13  -1  14  -1  15  -1
M  END
$$$$
