HTS1710-00236567-01
 OpenBabel03232612343D

 28 29  0  0  0  0  0  0  0  0999 V2000
    3.4068   -9.8420  -29.4895 S   0  0  0  0  0  0  0  0  0  0  0  0
    2.6880   -9.5787  -36.7011 S   0  0  0  0  0  0  0  0  0  0  0  0
   -1.7473   -6.8205  -34.8080 S   0  0  0  0  0  0  0  0  0  0  0  0
    2.9048   -9.6091  -31.2191 C   0  0  0  0  0  0  0  0  0  0  0  0
    1.7286   -8.9684  -35.2757 C   0  0  0  0  0  0  0  0  0  0  0  0
    2.1390   -9.1979  -33.9314 C   0  0  0  0  0  0  0  0  0  0  0  0
   -0.2279   -7.7354  -34.4600 C   0  0  0  0  0  0  0  0  0  0  0  0
    0.5435   -8.2412  -35.5190 C   0  0  0  0  0  0  0  0  0  0  0  0
    1.3523   -8.6898  -32.8707 C   0  0  0  0  0  0  0  0  0  0  0  0
    1.7341   -8.8936  -31.5325 C   0  0  0  0  0  0  0  0  0  0  0  0
    3.6923  -10.1212  -32.2705 C   0  0  0  0  0  0  0  0  0  0  0  0
    3.3119   -9.9180  -33.6070 C   0  0  0  0  0  0  0  0  0  0  0  0
    0.1770   -7.9683  -33.1372 C   0  0  0  0  0  0  0  0  0  0  0  0
    2.7761   -8.7297  -28.7712 O   0  0  0  0  0  0  0  0  0  0  0  0
    2.8767  -11.1707  -29.1700 O   0  0  0  0  0  0  0  0  0  0  0  0
    2.0961   -8.9119  -37.8647 O   0  0  0  0  0  0  0  0  0  0  0  0
    2.4667  -11.0272  -36.6428 O   0  0  0  0  0  0  0  0  0  0  0  0
   -1.6441   -6.5255  -36.2403 O   0  0  0  0  0  0  0  0  0  0  0  0
   -1.6714   -5.6578  -33.9179 O   0  0  0  0  0  0  0  0  0  0  0  0
    4.8694   -9.7760  -29.5787 O   0  0  0  0  0  1  0  0  0  0  0  0
    4.0528   -9.1514  -36.3749 O   0  0  0  0  0  1  0  0  0  0  0  0
   -2.7799   -7.8008  -34.4564 O   0  0  0  0  0  1  0  0  0  0  0  0
    4.8385  -10.8178  -32.0082 O   0  0  0  0  0  0  0  0  0  0  0  0
    0.2389   -8.0784  -36.4914 H   0  0  0  0  0  0  0  0  0  0  0  0
    1.1491   -8.5140  -30.7717 H   0  0  0  0  0  0  0  0  0  0  0  0
    3.8982  -10.3006  -34.3652 H   0  0  0  0  0  0  0  0  0  0  0  0
   -0.3920   -7.6075  -32.3555 H   0  0  0  0  0  0  0  0  0  0  0  0
    5.3579  -11.1484  -32.7145 H   0  0  0  0  0  0  0  0  0  0  0  0
  1  4  1  0  0  0  0
  1 14  2  0  0  0  0
  1 15  2  0  0  0  0
  1 20  1  0  0  0  0
  2  5  1  0  0  0  0
  2 16  2  0  0  0  0
  2 17  2  0  0  0  0
  2 21  1  0  0  0  0
  3  7  1  0  0  0  0
  3 18  2  0  0  0  0
  3 19  2  0  0  0  0
  3 22  1  0  0  0  0
  4 10  2  0  0  0  0
  4 11  1  0  0  0  0
  5  6  2  0  0  0  0
  5  8  1  0  0  0  0
  6 12  1  0  0  0  0
  6  9  1  0  0  0  0
  7 13  1  0  0  0  0
  7  8  2  0  0  0  0
  8 24  1  0  0  0  0
  9 10  1  0  0  0  0
  9 13  2  0  0  0  0
 10 25  1  0  0  0  0
 11 12  2  0  0  0  0
 11 23  1  0  0  0  0
 12 26  1  0  0  0  0
 13 27  1  0  0  0  0
 23 28  1  0  0  0  0
M  END
$$$$
