HTS1710-05120949-01
 OpenBabel03232612363D

 38 39  0  0  0  0  0  0  0  0999 V2000
    6.0097  -16.6723  -27.4911 C   0  0  0  0  0  0  0  0  0  0  0  0
    5.3212  -15.2943  -27.6590 C   0  0  0  0  0  0  0  0  0  0  0  0
    6.1794  -14.1585  -27.0649 C   0  0  0  0  0  0  0  0  0  0  0  0
    4.0582  -15.2914  -26.9510 O   0  0  0  0  0  0  0  0  0  0  0  0
    3.2851  -14.0712  -26.9739 C   0  0  0  0  0  0  0  0  0  0  0  0
    2.9087  -13.7130  -28.4066 C   0  0  0  0  0  0  0  0  0  0  0  0
    1.8708  -14.4023  -29.0556 C   0  0  0  0  0  0  0  0  0  0  0  0
    1.5322  -14.0782  -30.3767 C   0  0  0  0  0  0  0  0  0  0  0  0
    2.2166  -13.0533  -31.0477 C   0  0  0  0  0  0  0  0  0  0  0  0
    3.2369  -12.3302  -30.4036 C   0  0  0  0  0  0  0  0  0  0  0  0
    3.8694  -11.3248  -31.1350 N   0  0  0  0  0  0  0  0  0  0  0  0
    4.5249  -10.2062  -30.6221 C   0  0  0  0  0  0  0  0  0  0  0  0
    4.5680   -9.9968  -29.4214 O   0  0  0  0  0  0  0  0  0  0  0  0
    5.1246   -9.2698  -31.5947 C   0  0  0  0  0  0  0  0  0  0  0  0
    5.0840   -9.4173  -32.9592 C   0  0  0  0  0  0  0  0  0  0  0  0
    5.7867   -8.2979  -33.4725 C   0  0  0  0  0  0  0  0  0  0  0  0
    6.1783   -7.5909  -32.3638 C   0  0  0  0  0  0  0  0  0  0  0  0
    5.7947   -8.1484  -31.1707 O   0  0  0  0  0  0  0  0  0  0  0  0
    6.0446   -7.9617  -34.8864 C   0  0  0  0  0  0  0  0  0  0  0  0
    6.5871   -6.8959  -35.1223 O   0  5  0  0  0  0  0  0  0  0  0  0
    5.6988   -8.7717  -35.7286 O   0  0  0  0  0  0  0  0  0  0  0  0
    3.5963  -12.6880  -29.0833 C   0  0  0  0  0  0  0  0  0  0  0  0
    6.9426  -16.6711  -28.0153 H   0  0  0  0  0  0  0  0  0  0  0  0
    5.3774  -17.4378  -27.8899 H   0  0  0  0  0  0  0  0  0  0  0  0
    6.1846  -16.8594  -26.4522 H   0  0  0  0  0  0  0  0  0  0  0  0
    5.1842  -15.1331  -28.7078 H   0  0  0  0  0  0  0  0  0  0  0  0
    6.3137  -14.3240  -26.0164 H   0  0  0  0  0  0  0  0  0  0  0  0
    5.6861  -13.2214  -27.2179 H   0  0  0  0  0  0  0  0  0  0  0  0
    7.1337  -14.1423  -27.5485 H   0  0  0  0  0  0  0  0  0  0  0  0
    3.8653  -13.2772  -26.5520 H   0  0  0  0  0  0  0  0  0  0  0  0
    2.3912  -14.2137  -26.4034 H   0  0  0  0  0  0  0  0  0  0  0  0
    1.3574  -15.1475  -28.5595 H   0  0  0  0  0  0  0  0  0  0  0  0
    0.7784  -14.5943  -30.8567 H   0  0  0  0  0  0  0  0  0  0  0  0
    1.9688  -12.8277  -32.0238 H   0  0  0  0  0  0  0  0  0  0  0  0
    3.8511  -11.4144  -32.1152 H   0  0  0  0  0  0  0  0  0  0  0  0
    4.6383  -10.1783  -33.4952 H   0  0  0  0  0  0  0  0  0  0  0  0
    6.7169   -6.7126  -32.4227 H   0  0  0  0  0  0  0  0  0  0  0  0
    4.3695  -12.1932  -28.6119 H   0  0  0  0  0  0  0  0  0  0  0  0
  1  2  1  0  0  0  0
  1 23  1  0  0  0  0
  1 24  1  0  0  0  0
  1 25  1  0  0  0  0
  2  3  1  0  0  0  0
  2  4  1  0  0  0  0
  2 26  1  0  0  0  0
  3 27  1  0  0  0  0
  3 28  1  0  0  0  0
  3 29  1  0  0  0  0
  4  5  1  0  0  0  0
  5  6  1  0  0  0  0
  5 30  1  0  0  0  0
  5 31  1  0  0  0  0
  6  7  2  0  0  0  0
  6 22  1  0  0  0  0
  7  8  1  0  0  0  0
  7 32  1  0  0  0  0
  8  9  2  0  0  0  0
  8 33  1  0  0  0  0
  9 10  1  0  0  0  0
  9 34  1  0  0  0  0
 10 11  1  0  0  0  0
 10 22  2  0  0  0  0
 11 12  1  0  0  0  0
 11 35  1  0  0  0  0
 12 13  2  0  0  0  0
 12 14  1  0  0  0  0
 14 15  2  0  0  0  0
 14 18  1  0  0  0  0
 15 16  1  0  0  0  0
 15 36  1  0  0  0  0
 16 17  2  0  0  0  0
 16 19  1  0  0  0  0
 17 18  1  0  0  0  0
 17 37  1  0  0  0  0
 19 20  1  0  0  0  0
 19 21  2  0  0  0  0
 22 38  1  0  0  0  0
M  CHG  1  20  -1
M  END
$$$$
