HTS1710-04760790-01
 OpenBabel03232612353D

 39 41  0  0  1  0  0  0  0  0999 V2000
    1.5040  -10.8975  -35.5420 C   0  0  0  0  0  0  0  0  0  0  0  0
    2.7851  -10.9101  -36.4122 C   0  0  2  0  0  0  0  0  0  0  0  0
    4.0329  -11.3859  -35.6143 C   0  0  0  0  0  0  0  0  0  0  0  0
    4.4044  -10.4027  -34.5857 N   0  0  0  0  0  0  0  0  0  0  0  0
    4.1880  -10.5860  -33.2257 C   0  0  0  0  0  0  0  0  0  0  0  0
    3.5973  -11.5881  -32.8559 O   0  0  0  0  0  0  0  0  0  0  0  0
    4.5989   -9.5322  -32.2574 C   0  0  0  0  0  0  0  0  0  0  0  0
    4.9952   -8.2955  -32.6546 N   0  0  0  0  0  0  0  0  0  0  0  0
    5.4308   -7.7263  -31.5409 C   0  0  0  0  0  0  0  0  0  0  0  0
    5.3699   -8.4792  -30.3860 O   0  0  0  0  0  0  0  0  0  0  0  0
    4.7922   -9.6047  -30.8995 C   0  0  0  0  0  0  0  0  0  0  0  0
    4.2678  -10.6403  -29.9892 C   0  0  0  0  0  0  0  0  0  0  0  0
    3.3064  -10.2749  -29.0222 C   0  0  0  0  0  0  0  0  0  0  0  0
    2.7647  -11.2301  -28.1451 C   0  0  0  0  0  0  0  0  0  0  0  0
    3.1583  -12.5720  -28.2476 C   0  0  0  0  0  0  0  0  0  0  0  0
    2.6262  -13.5183  -27.3974 O   0  0  0  0  0  0  0  0  0  0  0  0
    2.7765  -14.9177  -27.7186 C   0  0  0  0  0  0  0  0  0  0  0  0
    4.2198  -15.1583  -28.2213 C   0  0  0  0  0  0  0  0  0  0  0  0
    4.4688  -14.2747  -29.3333 O   0  0  0  0  0  0  0  0  0  0  0  0
    4.0855  -12.9563  -29.2310 C   0  0  0  0  0  0  0  0  0  0  0  0
    4.6128  -12.0032  -30.1146 C   0  0  0  0  0  0  0  0  0  0  0  0
    3.0074   -9.5182  -37.0331 C   0  0  0  0  0  0  0  0  0  0  0  0
    4.1494   -9.1924  -37.3072 O   0  5  0  0  0  0  0  0  0  0  0  0
    2.0134   -8.8450  -37.2460 O   0  0  0  0  0  0  0  0  0  0  0  0
    1.3544  -11.8664  -35.1133 H   0  0  0  0  0  0  0  0  0  0  0  0
    0.6617  -10.6429  -36.1508 H   0  0  0  0  0  0  0  0  0  0  0  0
    1.6107  -10.1744  -34.7605 H   0  0  0  0  0  0  0  0  0  0  0  0
    2.6452  -11.6206  -37.1999 H   0  0  0  0  0  0  0  0  0  0  0  0
    4.8530  -11.5132  -36.2897 H   0  0  0  0  0  0  0  0  0  0  0  0
    3.7979  -12.3120  -35.1328 H   0  0  0  0  0  0  0  0  0  0  0  0
    4.8317   -9.5654  -34.8781 H   0  0  0  0  0  0  0  0  0  0  0  0
    5.7994   -6.7624  -31.5369 H   0  0  0  0  0  0  0  0  0  0  0  0
    2.9970   -9.2924  -28.9585 H   0  0  0  0  0  0  0  0  0  0  0  0
    2.0795  -10.9448  -27.4280 H   0  0  0  0  0  0  0  0  0  0  0  0
    2.0789  -15.1887  -28.4833 H   0  0  0  0  0  0  0  0  0  0  0  0
    2.5884  -15.5137  -26.8501 H   0  0  0  0  0  0  0  0  0  0  0  0
    4.3277  -16.1751  -28.5368 H   0  0  0  0  0  0  0  0  0  0  0  0
    4.9194  -14.9653  -27.4351 H   0  0  0  0  0  0  0  0  0  0  0  0
    5.2585  -12.3009  -30.8627 H   0  0  0  0  0  0  0  0  0  0  0  0
  1  2  1  0  0  0  0
  1 25  1  0  0  0  0
  1 26  1  0  0  0  0
  1 27  1  0  0  0  0
  2  3  1  0  0  0  0
  2 22  1  0  0  0  0
  2 28  1  6  0  0  0
  3  4  1  0  0  0  0
  3 29  1  0  0  0  0
  3 30  1  0  0  0  0
  4  5  1  0  0  0  0
  4 31  1  0  0  0  0
  5  6  2  0  0  0  0
  5  7  1  0  0  0  0
  7  8  1  0  0  0  0
  7 11  2  0  0  0  0
  8  9  2  0  0  0  0
  9 10  1  0  0  0  0
  9 32  1  0  0  0  0
 10 11  1  0  0  0  0
 11 12  1  0  0  0  0
 12 13  2  0  0  0  0
 12 21  1  0  0  0  0
 13 14  1  0  0  0  0
 13 33  1  0  0  0  0
 14 15  2  0  0  0  0
 14 34  1  0  0  0  0
 15 16  1  0  0  0  0
 15 20  1  0  0  0  0
 16 17  1  0  0  0  0
 17 18  1  0  0  0  0
 17 35  1  0  0  0  0
 17 36  1  0  0  0  0
 18 19  1  0  0  0  0
 18 37  1  0  0  0  0
 18 38  1  0  0  0  0
 19 20  1  0  0  0  0
 20 21  2  0  0  0  0
 21 39  1  0  0  0  0
 22 23  1  0  0  0  0
 22 24  2  0  0  0  0
M  CHG  1  23  -1
M  END
$$$$
