HTS1710-01238952-01
 OpenBabel03232612353D

 27 28  0  0  0  0  0  0  0  0999 V2000
    5.4846   -9.0255  -34.0079 C   0  0  0  0  0  0  0  0  0  0  0  0
    3.4937  -11.4031  -28.8142 S   0  0  0  0  0  0  0  0  0  0  0  0
    4.0507  -10.7704  -30.4224 C   0  0  0  0  0  0  0  0  0  0  0  0
    4.9265   -9.7786  -32.8957 C   0  0  0  0  0  0  0  0  0  0  0  0
    6.0055   -7.9221  -33.3375 C   0  0  0  0  0  0  0  0  0  0  0  0
    5.1613   -9.0750  -31.7373 C   0  0  0  0  0  0  0  0  0  0  0  0
    5.8342   -7.9085  -31.9704 O   0  0  0  0  0  0  0  0  0  0  0  0
    4.7403   -9.5372  -30.4886 C   0  0  0  0  0  0  0  0  0  0  0  0
    4.2526  -11.0083  -32.8665 C   0  0  0  0  0  0  0  0  0  0  0  0
    3.8135  -11.5124  -31.6156 C   0  0  0  0  0  0  0  0  0  0  0  0
    5.4910   -9.3503  -35.4591 C   0  0  0  0  0  0  0  0  0  0  0  0
    2.4466  -12.3740  -29.1488 O   0  0  0  0  0  0  0  0  0  0  0  0
    3.0224  -10.1865  -28.1468 O   0  0  0  0  0  0  0  0  0  0  0  0
    4.7162  -11.9791  -28.2437 O   0  0  0  0  0  1  0  0  0  0  0  0
    5.2567  -10.5002  -35.7837 O   0  5  0  0  0  0  0  0  0  0  0  0
    5.7293   -8.4532  -36.2477 O   0  0  0  0  0  0  0  0  0  0  0  0
    3.1547  -12.7265  -31.5306 O   0  0  0  0  0  0  0  0  0  0  0  0
    6.7259   -6.7670  -33.9870 C   0  0  0  0  0  0  0  0  0  0  0  0
    3.0156  -13.6319  -32.6396 C   0  0  0  0  0  0  0  0  0  0  0  0
    4.9281   -8.9912  -29.6333 H   0  0  0  0  0  0  0  0  0  0  0  0
    4.0798  -11.5352  -33.7369 H   0  0  0  0  0  0  0  0  0  0  0  0
    6.7762   -6.9269  -35.0438 H   0  0  0  0  0  0  0  0  0  0  0  0
    7.7168   -6.6958  -33.5895 H   0  0  0  0  0  0  0  0  0  0  0  0
    6.1958   -5.8590  -33.7885 H   0  0  0  0  0  0  0  0  0  0  0  0
    2.4701  -14.4977  -32.3269 H   0  0  0  0  0  0  0  0  0  0  0  0
    3.9852  -13.9262  -32.9835 H   0  0  0  0  0  0  0  0  0  0  0  0
    2.4881  -13.1454  -33.4332 H   0  0  0  0  0  0  0  0  0  0  0  0
  1  4  1  0  0  0  0
  1  5  2  0  0  0  0
  1 11  1  0  0  0  0
  2  3  1  0  0  0  0
  2 12  2  0  0  0  0
  2 13  2  0  0  0  0
  2 14  1  0  0  0  0
  3 10  2  0  0  0  0
  3  8  1  0  0  0  0
  4  6  1  0  0  0  0
  4  9  2  0  0  0  0
  5  7  1  0  0  0  0
  5 18  1  0  0  0  0
  6  8  2  0  0  0  0
  6  7  1  0  0  0  0
  8 20  1  0  0  0  0
  9 10  1  0  0  0  0
  9 21  1  0  0  0  0
 10 17  1  0  0  0  0
 11 15  1  0  0  0  0
 11 16  2  0  0  0  0
 17 19  1  0  0  0  0
 18 22  1  0  0  0  0
 18 23  1  0  0  0  0
 18 24  1  0  0  0  0
 19 25  1  0  0  0  0
 19 26  1  0  0  0  0
 19 27  1  0  0  0  0
M  CHG  1  15  -1
M  END
$$$$
