HTS1710-01644744-01
 OpenBabel03232612353D

 44 46  0  0  1  0  0  0  0  0999 V2000
   -1.3390   -4.0258  -38.2151 C   0  0  0  0  0  0  0  0  0  0  0  0
   -1.5214   -4.6076  -36.9127 O   0  0  0  0  0  0  0  0  0  0  0  0
   -0.8590   -5.7484  -36.5005 C   0  0  0  0  0  0  0  0  0  0  0  0
   -1.0127   -6.1625  -35.1679 C   0  0  0  0  0  0  0  0  0  0  0  0
   -0.3576   -7.3118  -34.7000 C   0  0  0  0  0  0  0  0  0  0  0  0
    0.4631   -8.0713  -35.5592 C   0  0  0  0  0  0  0  0  0  0  0  0
    0.6122   -7.6520  -36.8986 C   0  0  0  0  0  0  0  0  0  0  0  0
   -0.0407   -6.5013  -37.3677 C   0  0  0  0  0  0  0  0  0  0  0  0
    1.1503   -9.2742  -35.0615 C   0  0  0  0  0  0  0  0  0  0  0  0
    0.6834  -10.0995  -34.1381 N   0  0  0  0  0  0  0  0  0  0  0  0
    1.6675  -11.0280  -34.0121 C   0  0  0  0  0  0  0  0  0  0  0  0
    1.6308  -12.2319  -33.1251 C   0  0  0  0  0  0  0  0  0  0  0  0
    0.8185  -13.1297  -33.2810 O   0  0  0  0  0  0  0  0  0  0  0  0
    2.5474  -12.2487  -32.0626 N   0  0  0  0  0  0  0  0  0  0  0  0
    2.5943  -13.4022  -31.1187 C   0  0  0  0  0  0  0  0  0  0  0  0
    3.9256  -13.5011  -30.3423 C   0  0  0  0  0  0  0  0  0  0  0  0
    4.2543  -12.1776  -29.6252 C   0  0  0  0  0  0  0  0  0  0  0  0
    4.2382  -11.0025  -30.6264 C   0  0  1  0  0  0  0  0  0  0  0  0
    2.8986  -10.9580  -31.4170 C   0  0  0  0  0  0  0  0  0  0  0  0
    4.5500   -9.6738  -29.9108 C   0  0  0  0  0  0  0  0  0  0  0  0
    3.9347   -9.4143  -28.8911 O   0  5  0  0  0  0  0  0  0  0  0  0
    5.3698   -8.9446  -30.4406 O   0  0  0  0  0  0  0  0  0  0  0  0
    2.6630  -10.7102  -34.8965 C   0  0  0  0  0  0  0  0  0  0  0  0
    3.9555  -11.4505  -35.1296 C   0  0  0  0  0  0  0  0  0  0  0  0
    2.3857   -9.5713  -35.5982 O   0  0  0  0  0  0  0  0  0  0  0  0
   -1.9524   -3.1538  -38.3054 H   0  0  0  0  0  0  0  0  0  0  0  0
   -1.6168   -4.7365  -38.9652 H   0  0  0  0  0  0  0  0  0  0  0  0
   -0.3120   -3.7544  -38.3438 H   0  0  0  0  0  0  0  0  0  0  0  0
   -1.6116   -5.6178  -34.5279 H   0  0  0  0  0  0  0  0  0  0  0  0
   -0.4777   -7.6040  -33.7176 H   0  0  0  0  0  0  0  0  0  0  0  0
    1.2081   -8.1978  -37.5405 H   0  0  0  0  0  0  0  0  0  0  0  0
    0.0785   -6.2057  -38.3493 H   0  0  0  0  0  0  0  0  0  0  0  0
    2.4592  -14.3045  -31.6777 H   0  0  0  0  0  0  0  0  0  0  0  0
    1.8170  -13.2546  -30.3983 H   0  0  0  0  0  0  0  0  0  0  0  0
    4.7135  -13.7306  -31.0289 H   0  0  0  0  0  0  0  0  0  0  0  0
    3.8305  -14.2705  -29.6049 H   0  0  0  0  0  0  0  0  0  0  0  0
    5.2253  -12.2491  -29.1815 H   0  0  0  0  0  0  0  0  0  0  0  0
    3.5165  -12.0000  -28.8708 H   0  0  0  0  0  0  0  0  0  0  0  0
    5.0124  -11.1575  -31.3486 H   0  0  0  0  0  0  0  0  0  0  0  0
    2.9793  -10.2098  -32.1777 H   0  0  0  0  0  0  0  0  0  0  0  0
    2.1246  -10.7384  -30.7117 H   0  0  0  0  0  0  0  0  0  0  0  0
    3.9938  -12.3103  -34.4938 H   0  0  0  0  0  0  0  0  0  0  0  0
    4.7806  -10.8061  -34.9082 H   0  0  0  0  0  0  0  0  0  0  0  0
    4.0095  -11.7605  -36.1523 H   0  0  0  0  0  0  0  0  0  0  0  0
  1  2  1  0  0  0  0
  1 26  1  0  0  0  0
  1 27  1  0  0  0  0
  1 28  1  0  0  0  0
  2  3  1  0  0  0  0
  3  4  2  0  0  0  0
  3  8  1  0  0  0  0
  4  5  1  0  0  0  0
  4 29  1  0  0  0  0
  5  6  2  0  0  0  0
  5 30  1  0  0  0  0
  6  7  1  0  0  0  0
  6  9  1  0  0  0  0
  7  8  2  0  0  0  0
  7 31  1  0  0  0  0
  8 32  1  0  0  0  0
  9 10  2  0  0  0  0
  9 25  1  0  0  0  0
 10 11  1  0  0  0  0
 11 12  1  0  0  0  0
 11 23  2  0  0  0  0
 12 13  2  0  0  0  0
 12 14  1  0  0  0  0
 14 15  1  0  0  0  0
 14 19  1  0  0  0  0
 15 16  1  0  0  0  0
 15 33  1  0  0  0  0
 15 34  1  0  0  0  0
 16 17  1  0  0  0  0
 16 35  1  0  0  0  0
 16 36  1  0  0  0  0
 17 18  1  0  0  0  0
 17 37  1  0  0  0  0
 17 38  1  0  0  0  0
 18 19  1  0  0  0  0
 18 20  1  0  0  0  0
 18 39  1  6  0  0  0
 19 40  1  0  0  0  0
 19 41  1  0  0  0  0
 20 21  1  0  0  0  0
 20 22  2  0  0  0  0
 23 24  1  0  0  0  0
 23 25  1  0  0  0  0
 24 42  1  0  0  0  0
 24 43  1  0  0  0  0
 24 44  1  0  0  0  0
M  CHG  1  21  -1
M  END
$$$$
