HTS1710-00482173-01
 OpenBabel03232612343D

 32 32  0  0  0  0  0  0  0  0999 V2000
    3.4284  -11.7363  -33.1983 C   0  0  0  0  0  0  0  0  0  0  0  0
    2.9421  -11.5180  -34.4955 N   0  0  0  0  0  0  0  0  0  0  0  0
    3.6800  -10.6462  -32.3376 C   0  0  0  0  0  0  0  0  0  0  0  0
    3.6744  -13.0419  -32.7262 C   0  0  0  0  0  0  0  0  0  0  0  0
    3.7751  -11.7274  -35.7049 C   0  0  0  0  0  0  0  0  0  0  0  0
    1.5006  -11.2972  -34.7453 C   0  0  0  0  0  0  0  0  0  0  0  0
    4.1735  -10.8422  -31.0278 C   0  0  0  0  0  0  0  0  0  0  0  0
    4.1596  -13.2495  -31.4289 C   0  0  0  0  0  0  0  0  0  0  0  0
    5.1038  -10.9302  -35.6189 C   0  0  0  0  0  0  0  0  0  0  0  0
    1.1846   -9.8011  -34.9784 C   0  0  0  0  0  0  0  0  0  0  0  0
    4.4097  -12.1598  -30.5838 C   0  0  0  0  0  0  0  0  0  0  0  0
    4.4486   -9.6632  -30.1177 C   0  0  0  0  0  0  0  0  0  0  0  0
    4.9583   -9.4284  -35.9277 C   0  0  0  0  0  0  0  0  0  0  0  0
    0.8861   -9.0790  -33.6590 C   0  0  0  0  0  0  0  0  0  0  0  0
    5.1487   -8.7654  -30.5539 O   0  5  0  0  0  0  0  0  0  0  0  0
    3.9533   -9.6803  -29.0040 O   0  0  0  0  0  0  0  0  0  0  0  0
    4.4375   -9.1418  -36.9917 O   0  5  0  0  0  0  0  0  0  0  0  0
    5.3640   -8.6254  -35.1045 O   0  0  0  0  0  0  0  0  0  0  0  0
    0.3512   -9.7283  -32.7773 O   0  5  0  0  0  0  0  0  0  0  0  0
    1.2159   -7.9093  -33.5752 O   0  0  0  0  0  0  0  0  0  0  0  0
    3.4999   -9.6865  -32.6716 H   0  0  0  0  0  0  0  0  0  0  0  0
    3.4955  -13.8509  -33.3414 H   0  0  0  0  0  0  0  0  0  0  0  0
    3.2284  -11.4021  -36.5653 H   0  0  0  0  0  0  0  0  0  0  0  0
    4.0100  -12.7688  -35.7772 H   0  0  0  0  0  0  0  0  0  0  0  0
    0.9449  -11.6413  -33.8982 H   0  0  0  0  0  0  0  0  0  0  0  0
    1.2276  -11.8378  -35.6274 H   0  0  0  0  0  0  0  0  0  0  0  0
    4.3339  -14.2098  -31.0936 H   0  0  0  0  0  0  0  0  0  0  0  0
    5.7943  -11.3518  -36.3192 H   0  0  0  0  0  0  0  0  0  0  0  0
    5.4432  -11.0052  -34.6069 H   0  0  0  0  0  0  0  0  0  0  0  0
    0.3316   -9.7215  -35.6194 H   0  0  0  0  0  0  0  0  0  0  0  0
    2.0412   -9.3424  -35.4265 H   0  0  0  0  0  0  0  0  0  0  0  0
    4.7692  -12.3227  -29.6302 H   0  0  0  0  0  0  0  0  0  0  0  0
  1  2  1  0  0  0  0
  1  3  2  0  0  0  0
  1  4  1  0  0  0  0
  2  5  1  0  0  0  0
  2  6  1  0  0  0  0
  3  7  1  0  0  0  0
  3 21  1  0  0  0  0
  4  8  2  0  0  0  0
  4 22  1  0  0  0  0
  5  9  1  0  0  0  0
  5 23  1  0  0  0  0
  5 24  1  0  0  0  0
  6 10  1  0  0  0  0
  6 25  1  0  0  0  0
  6 26  1  0  0  0  0
  7 11  2  0  0  0  0
  7 12  1  0  0  0  0
  8 11  1  0  0  0  0
  8 27  1  0  0  0  0
  9 13  1  0  0  0  0
  9 28  1  0  0  0  0
  9 29  1  0  0  0  0
 10 14  1  0  0  0  0
 10 30  1  0  0  0  0
 10 31  1  0  0  0  0
 11 32  1  0  0  0  0
 12 15  1  0  0  0  0
 12 16  2  0  0  0  0
 13 17  1  0  0  0  0
 13 18  2  0  0  0  0
 14 19  1  0  0  0  0
 14 20  2  0  0  0  0
M  CHG  3  15  -1  17  -1  19  -1
M  END
$$$$
