HTS1710-00141388-01
 OpenBabel03232612363D

 36 38  0  0  1  0  0  0  0  0999 V2000
    2.1319  -10.4785  -35.0524 S   0  0  0  0  0  0  0  0  0  0  0  0
    2.1459   -9.3487  -33.7330 N   0  0  0  0  0  0  0  0  0  0  0  0
    1.1976   -8.3269  -33.5099 C   0  0  0  0  0  0  0  0  0  0  0  0
    3.3054   -8.5451  -31.6495 C   0  0  1  0  0  0  0  0  0  0  0  0
    3.0633   -9.7187  -32.6252 C   0  0  0  0  0  0  0  0  0  0  0  0
    2.7352  -11.9191  -34.1762 C   0  0  0  0  0  0  0  0  0  0  0  0
    2.0288   -8.0034  -31.2637 O   0  0  0  0  0  0  0  0  0  0  0  0
    1.1223   -7.6938  -32.2482 C   0  0  0  0  0  0  0  0  0  0  0  0
    4.1090   -9.0026  -30.4218 C   0  0  0  0  0  0  0  0  0  0  0  0
    4.4065  -12.4594  -34.2841 S   0  0  0  0  0  0  0  0  0  0  0  0
    0.7372  -10.6812  -35.4580 O   0  0  0  0  0  0  0  0  0  0  0  0
    3.1665  -10.0627  -36.0059 O   0  0  0  0  0  0  0  0  0  0  0  0
    0.2748   -7.9317  -34.5051 C   0  0  0  0  0  0  0  0  0  0  0  0
   -3.0938   -7.3010  -35.0574 C   0  0  0  0  0  0  0  0  0  0  0  0
    2.0030  -12.7289  -33.3439 C   0  0  0  0  0  0  0  0  0  0  0  0
    4.0840  -13.7747  -33.1596 C   0  0  0  0  0  0  0  0  0  0  0  0
    3.7103   -8.6228  -29.3348 O   0  5  0  0  0  0  0  0  0  0  0  0
   -0.7281   -6.9842  -34.2342 C   0  0  0  0  0  0  0  0  0  0  0  0
    0.1249   -6.7465  -31.9732 C   0  0  0  0  0  0  0  0  0  0  0  0
    2.7713  -13.7782  -32.7641 C   0  0  0  0  0  0  0  0  0  0  0  0
   -3.2185   -7.9174  -34.0125 O   0  5  0  0  0  0  0  0  0  0  0  0
   -1.7415   -6.6266  -35.3162 C   0  0  0  0  0  0  0  0  0  0  0  0
    5.0463   -9.7620  -30.6002 O   0  0  0  0  0  0  0  0  0  0  0  0
   -0.8033   -6.3958  -32.9612 C   0  0  0  0  0  0  0  0  0  0  0  0
   -3.9493   -7.1883  -35.9177 O   0  0  0  0  0  0  0  0  0  0  0  0
    3.8850   -7.7874  -32.1340 H   0  0  0  0  0  0  0  0  0  0  0  0
    2.6357  -10.5354  -32.0822 H   0  0  0  0  0  0  0  0  0  0  0  0
    4.0055   -9.9871  -33.0555 H   0  0  0  0  0  0  0  0  0  0  0  0
    0.3383   -8.3464  -35.4479 H   0  0  0  0  0  0  0  0  0  0  0  0
    0.9975  -12.5910  -33.1572 H   0  0  0  0  0  0  0  0  0  0  0  0
    4.7912  -14.4550  -32.8397 H   0  0  0  0  0  0  0  0  0  0  0  0
    0.0751   -6.3071  -31.0407 H   0  0  0  0  0  0  0  0  0  0  0  0
    2.3785  -14.4733  -32.1102 H   0  0  0  0  0  0  0  0  0  0  0  0
   -1.8780   -5.5654  -35.3288 H   0  0  0  0  0  0  0  0  0  0  0  0
   -1.3668   -6.9713  -36.2573 H   0  0  0  0  0  0  0  0  0  0  0  0
   -1.5420   -5.7056  -32.7541 H   0  0  0  0  0  0  0  0  0  0  0  0
  1  2  1  0  0  0  0
  1  6  1  0  0  0  0
  1 11  2  0  0  0  0
  1 12  2  0  0  0  0
  2  3  1  0  0  0  0
  2  5  1  0  0  0  0
  3  8  2  0  0  0  0
  3 13  1  0  0  0  0
  4  5  1  0  0  0  0
  4  7  1  0  0  0  0
  4  9  1  0  0  0  0
  4 26  1  6  0  0  0
  5 27  1  0  0  0  0
  5 28  1  0  0  0  0
  6 10  1  0  0  0  0
  6 15  2  0  0  0  0
  7  8  1  0  0  0  0
  8 19  1  0  0  0  0
  9 17  1  0  0  0  0
  9 23  2  0  0  0  0
 10 16  1  0  0  0  0
 13 18  2  0  0  0  0
 13 29  1  0  0  0  0
 14 22  1  0  0  0  0
 14 21  1  0  0  0  0
 14 25  2  0  0  0  0
 15 20  1  0  0  0  0
 15 30  1  0  0  0  0
 16 20  2  0  0  0  0
 16 31  1  0  0  0  0
 18 22  1  0  0  0  0
 18 24  1  0  0  0  0
 19 24  2  0  0  0  0
 19 32  1  0  0  0  0
 20 33  1  0  0  0  0
 22 34  1  0  0  0  0
 22 35  1  0  0  0  0
 24 36  1  0  0  0  0
M  CHG  2  17  -1  21  -1
M  END
$$$$
