HTS1710-03549007-01
 OpenBabel03232612343D

 41 42  0  0  1  0  0  0  0  0999 V2000
   -0.5417   -6.3905  -36.6347 C   0  0  0  0  0  0  0  0  0  0  0  0
   -2.5735   -4.9616  -36.2888 C   0  0  0  0  0  0  0  0  0  0  0  0
   -0.2370   -5.6842  -37.7702 O   0  0  0  0  0  0  0  0  0  0  0  0
   -0.9963   -4.6640  -38.2570 C   0  0  0  0  0  0  0  0  0  0  0  0
   -1.6832   -6.0597  -35.8783 C   0  0  0  0  0  0  0  0  0  0  0  0
   -2.1918   -4.3280  -37.4575 C   0  0  0  0  0  0  0  0  0  0  0  0
    4.3265   -8.4545  -31.6156 C   0  0  0  0  0  0  0  0  0  0  0  0
    3.0519   -9.5712  -33.3815 N   0  0  0  0  0  0  0  0  0  0  0  0
    0.2924   -7.4520  -36.2523 C   0  0  0  0  0  0  0  0  0  0  0  0
    3.0552  -10.0651  -34.6782 C   0  0  0  0  0  0  0  0  0  0  0  0
    4.2033   -9.7201  -32.4806 C   0  0  2  0  0  0  0  0  0  0  0  0
   -1.9661   -6.8079  -34.7183 C   0  0  0  0  0  0  0  0  0  0  0  0
    3.3629  -10.6447  -29.1564 C   0  0  0  0  0  0  0  0  0  0  0  0
   -0.7024   -4.0713  -39.2798 O   0  0  0  0  0  0  0  0  0  0  0  0
    3.3879   -7.6758  -31.6126 O   0  5  0  0  0  0  0  0  0  0  0  0
    4.0156  -10.6898  -35.0964 O   0  0  0  0  0  0  0  0  0  0  0  0
    4.5353  -10.3541  -28.9857 O   0  5  0  0  0  0  0  0  0  0  0  0
    4.0146  -11.0149  -31.6379 C   0  0  0  0  0  0  0  0  0  0  0  0
   -0.0159   -8.2142  -35.1067 C   0  0  0  0  0  0  0  0  0  0  0  0
    0.7305   -9.3164  -34.7299 O   0  0  0  0  0  0  0  0  0  0  0  0
    1.8016   -9.8559  -35.5349 C   0  0  0  0  0  0  0  0  0  0  0  0
    2.8731  -10.9069  -30.5939 C   0  0  0  0  0  0  0  0  0  0  0  0
   -1.1373   -7.8745  -34.3360 C   0  0  0  0  0  0  0  0  0  0  0  0
    5.3655   -8.3092  -30.9948 O   0  0  0  0  0  0  0  0  0  0  0  0
    2.5278  -10.7340  -28.2723 O   0  0  0  0  0  0  0  0  0  0  0  0
   -3.8270   -4.5052  -35.5791 C   0  0  0  0  0  0  0  0  0  0  0  0
   -2.7900   -3.5592  -37.7981 H   0  0  0  0  0  0  0  0  0  0  0  0
    2.2496   -9.1044  -33.0533 H   0  0  0  0  0  0  0  0  0  0  0  0
    1.1319   -7.6750  -36.8097 H   0  0  0  0  0  0  0  0  0  0  0  0
    5.1186   -9.8225  -33.0254 H   0  0  0  0  0  0  0  0  0  0  0  0
   -2.7902   -6.5696  -34.1445 H   0  0  0  0  0  0  0  0  0  0  0  0
    4.9289  -11.2200  -31.1214 H   0  0  0  0  0  0  0  0  0  0  0  0
    3.7499  -11.7987  -32.3166 H   0  0  0  0  0  0  0  0  0  0  0  0
    1.4951  -10.7942  -35.9477 H   0  0  0  0  0  0  0  0  0  0  0  0
    2.0277   -9.1666  -36.3215 H   0  0  0  0  0  0  0  0  0  0  0  0
    2.2283  -10.1030  -30.8818 H   0  0  0  0  0  0  0  0  0  0  0  0
    2.3722  -11.8525  -30.5832 H   0  0  0  0  0  0  0  0  0  0  0  0
   -1.3546   -8.4121  -33.4823 H   0  0  0  0  0  0  0  0  0  0  0  0
   -3.9745   -5.0968  -34.6998 H   0  0  0  0  0  0  0  0  0  0  0  0
   -4.6678   -4.6195  -36.2311 H   0  0  0  0  0  0  0  0  0  0  0  0
   -3.7265   -3.4761  -35.3038 H   0  0  0  0  0  0  0  0  0  0  0  0
  1  3  1  0  0  0  0
  1  5  2  0  0  0  0
  1  9  1  0  0  0  0
  2  5  1  0  0  0  0
  2  6  2  0  0  0  0
  2 26  1  0  0  0  0
  3  4  1  0  0  0  0
  4 14  2  0  0  0  0
  4  6  1  0  0  0  0
  5 12  1  0  0  0  0
  6 27  1  0  0  0  0
  7 11  1  0  0  0  0
  7 15  1  0  0  0  0
  7 24  2  0  0  0  0
  8 10  1  0  0  0  0
  8 11  1  0  0  0  0
  8 28  1  0  0  0  0
  9 19  2  0  0  0  0
  9 29  1  0  0  0  0
 10 21  1  0  0  0  0
 10 16  2  0  0  0  0
 11 18  1  0  0  0  0
 11 30  1  6  0  0  0
 12 23  2  0  0  0  0
 12 31  1  0  0  0  0
 13 22  1  0  0  0  0
 13 17  1  0  0  0  0
 13 25  2  0  0  0  0
 18 22  1  0  0  0  0
 18 32  1  0  0  0  0
 18 33  1  0  0  0  0
 19 20  1  0  0  0  0
 19 23  1  0  0  0  0
 20 21  1  0  0  0  0
 21 34  1  0  0  0  0
 21 35  1  0  0  0  0
 22 36  1  0  0  0  0
 22 37  1  0  0  0  0
 23 38  1  0  0  0  0
 26 39  1  0  0  0  0
 26 40  1  0  0  0  0
 26 41  1  0  0  0  0
M  CHG  2  15  -1  17  -1
M  END
$$$$
