HTS1710-01274922-01
 OpenBabel03232612343D

 36 36  0  0  0  0  0  0  0  0999 V2000
    4.2550   -8.5321  -30.8277 P   0  0  0  0  0  0  0  0  0  0  0  0
    2.5664  -12.7251  -31.4082 C   0  0  0  0  0  0  0  0  0  0  0  0
    2.0215  -13.5676  -30.4042 C   0  0  0  0  0  0  0  0  0  0  0  0
    3.5593  -12.7209  -28.7484 N   0  0  0  0  0  0  0  0  0  0  0  0
    3.6431  -11.8670  -31.0261 C   0  0  0  0  0  0  0  0  0  0  0  0
    2.5468  -13.5313  -29.0962 C   0  0  0  0  0  0  0  0  0  0  0  0
    3.6899   -8.9290  -29.5114 O   0  0  0  0  0  1  0  0  0  0  0  0
    3.7596   -9.5866  -31.9483 O   0  0  0  0  0  0  0  0  0  0  0  0
    3.7752   -7.1705  -31.1839 O   0  0  0  0  0  0  0  0  0  0  0  0
    4.0880  -11.9159  -29.6847 C   0  0  0  0  0  0  0  0  0  0  0  0
    3.3650   -9.4777  -37.0462 C   0  0  0  0  0  0  0  0  0  0  0  0
    1.9748  -12.7938  -32.7929 C   0  0  0  0  0  0  0  0  0  0  0  0
    4.3312  -10.9035  -32.0090 C   0  0  0  0  0  0  0  0  0  0  0  0
    1.7510  -11.7633  -33.5334 N   0  0  0  0  0  0  0  0  0  0  0  0
    2.5693   -8.8490  -37.7207 O   0  5  0  0  0  0  0  0  0  0  0  0
    5.7406   -8.5489  -30.7570 O   0  0  0  0  0  1  0  0  0  0  0  0
    0.9887  -14.4204  -30.6876 O   0  0  0  0  0  0  0  0  0  0  0  0
    4.5126   -9.1436  -36.8107 O   0  0  0  0  0  0  0  0  0  0  0  0
    2.8820  -10.8024  -36.4369 C   0  0  0  0  0  0  0  0  0  0  0  0
    1.1699  -11.9237  -34.8745 C   0  0  0  0  0  0  0  0  0  0  0  0
    1.9904  -14.4206  -27.9876 C   0  0  0  0  0  0  0  0  0  0  0  0
    1.5126  -10.6773  -35.7234 C   0  0  0  0  0  0  0  0  0  0  0  0
    4.8654  -11.2959  -29.4087 H   0  0  0  0  0  0  0  0  0  0  0  0
    1.7342  -13.7234  -33.1712 H   0  0  0  0  0  0  0  0  0  0  0  0
    4.2207  -11.2843  -33.0029 H   0  0  0  0  0  0  0  0  0  0  0  0
    5.3642  -10.8322  -31.7391 H   0  0  0  0  0  0  0  0  0  0  0  0
    0.6107  -14.9410  -30.0064 H   0  0  0  0  0  0  0  0  0  0  0  0
    3.6082  -11.1351  -35.7250 H   0  0  0  0  0  0  0  0  0  0  0  0
    2.7617  -11.4989  -37.2402 H   0  0  0  0  0  0  0  0  0  0  0  0
    0.1074  -12.0231  -34.7957 H   0  0  0  0  0  0  0  0  0  0  0  0
    1.5707  -12.7999  -35.3400 H   0  0  0  0  0  0  0  0  0  0  0  0
    2.5271  -14.2373  -27.0803 H   0  0  0  0  0  0  0  0  0  0  0  0
    2.1003  -15.4480  -28.2656 H   0  0  0  0  0  0  0  0  0  0  0  0
    0.9539  -14.1999  -27.8398 H   0  0  0  0  0  0  0  0  0  0  0  0
    0.7510  -10.5464  -36.4634 H   0  0  0  0  0  0  0  0  0  0  0  0
    1.5668   -9.8385  -35.0613 H   0  0  0  0  0  0  0  0  0  0  0  0
  1  7  1  0  0  0  0
  1  8  1  0  0  0  0
  1  9  2  0  0  0  0
  1 16  1  0  0  0  0
  2  5  2  0  0  0  0
  2  3  1  0  0  0  0
  2 12  1  0  0  0  0
  3 17  1  0  0  0  0
  3  6  2  0  0  0  0
  4 10  2  0  0  0  0
  4  6  1  0  0  0  0
  5 13  1  0  0  0  0
  5 10  1  0  0  0  0
  6 21  1  0  0  0  0
  8 13  1  0  0  0  0
 10 23  1  0  0  0  0
 11 19  1  0  0  0  0
 11 15  1  0  0  0  0
 11 18  2  0  0  0  0
 12 14  2  0  0  0  0
 12 24  1  0  0  0  0
 13 25  1  0  0  0  0
 13 26  1  0  0  0  0
 14 20  1  0  0  0  0
 17 27  1  0  0  0  0
 19 22  1  0  0  0  0
 19 28  1  0  0  0  0
 19 29  1  0  0  0  0
 20 22  1  0  0  0  0
 20 30  1  0  0  0  0
 20 31  1  0  0  0  0
 21 32  1  0  0  0  0
 21 33  1  0  0  0  0
 21 34  1  0  0  0  0
 22 35  1  0  0  0  0
 22 36  1  0  0  0  0
M  CHG  1  15  -1
M  END
$$$$
