HTS1710-00848865-01
 OpenBabel03232612343D

 19 20  0  0  0  0  0  0  0  0999 V2000
    3.9125  -10.1891  -28.9581 C   0  0  0  0  0  0  0  0  0  0  0  0
    4.0855   -7.4786  -31.4131 C   0  0  0  0  0  0  0  0  0  0  0  0
    2.8954   -5.4420  -31.0017 C   0  0  0  0  0  0  0  0  0  0  0  0
    3.5210   -8.0383  -30.2671 C   0  0  0  0  0  0  0  0  0  0  0  0
    1.8474   -6.3277  -30.2522 C   0  0  0  0  0  0  0  0  0  0  0  0
    5.8910   -8.2274  -33.0527 C   0  0  0  0  0  0  0  0  0  0  0  0
    4.1649   -9.2308  -30.0622 C   0  0  0  0  0  0  0  0  0  0  0  0
    5.0252   -8.3747  -31.8556 C   0  0  0  0  0  0  0  0  0  0  0  0
    5.1165   -9.4888  -31.0366 O   0  0  0  0  0  0  0  0  0  0  0  0
    2.5176   -7.4205  -29.5749 O   0  0  0  0  0  0  0  0  0  0  0  0
    6.7226   -7.3358  -33.0395 O   0  5  0  0  0  0  0  0  0  0  0  0
    5.7240   -9.0023  -33.9792 O   0  0  0  0  0  0  0  0  0  0  0  0
    3.6909   -6.2619  -31.8957 O   0  0  0  0  0  0  0  0  0  0  0  0
    4.5611  -11.2204  -28.9360 O   0  5  0  0  0  0  0  0  0  0  0  0
    3.0675   -9.8879  -28.1322 O   0  0  0  0  0  0  0  0  0  0  0  0
    3.5377   -4.9719  -30.2866 H   0  0  0  0  0  0  0  0  0  0  0  0
    2.3811   -4.6976  -31.5729 H   0  0  0  0  0  0  0  0  0  0  0  0
    1.3277   -5.7300  -29.5327 H   0  0  0  0  0  0  0  0  0  0  0  0
    1.1525   -6.7266  -30.9613 H   0  0  0  0  0  0  0  0  0  0  0  0
  1 14  1  0  0  0  0
  1 15  2  0  0  0  0
  1  7  1  0  0  0  0
  2 13  1  0  0  0  0
  2  4  1  0  0  0  0
  2  8  2  0  0  0  0
  3  5  1  0  0  0  0
  3 13  1  0  0  0  0
  3 16  1  0  0  0  0
  3 17  1  0  0  0  0
  4 10  1  0  0  0  0
  4  7  2  0  0  0  0
  5 10  1  0  0  0  0
  5 18  1  0  0  0  0
  5 19  1  0  0  0  0
  6 11  1  0  0  0  0
  6 12  2  0  0  0  0
  6  8  1  0  0  0  0
  7  9  1  0  0  0  0
  8  9  1  0  0  0  0
M  CHG  2  11  -1  14  -1
M  END
$$$$
