HTS1710-00197664-01
 OpenBabel03232612343D

 28 29  0  0  1  0  0  0  0  0999 V2000
    1.9628  -10.2926  -32.9809 C   0  0  2  0  0  0  0  0  0  0  0  0
    4.5911  -10.5202  -33.2063 C   0  0  2  0  0  0  0  0  0  0  0  0
    4.2325   -9.2579  -32.3288 C   0  0  1  0  0  0  0  0  0  0  0  0
    2.3933  -10.0759  -34.4794 C   0  0  1  0  0  0  0  0  0  0  0  0
    2.6630   -9.2146  -32.0830 C   0  0  1  0  0  0  0  0  0  0  0  0
    3.9537  -10.3532  -34.6301 C   0  0  1  0  0  0  0  0  0  0  0  0
    3.8754  -11.7233  -32.6070 C   0  0  0  0  0  0  0  0  0  0  0  0
    2.5486  -11.6186  -32.5149 C   0  0  0  0  0  0  0  0  0  0  0  0
    4.7354   -9.3473  -35.5108 C   0  0  0  0  0  0  0  0  0  0  0  0
    1.5528  -10.9369  -35.4523 C   0  0  0  0  0  0  0  0  0  0  0  0
    5.0105   -9.2048  -30.9915 C   0  0  0  0  0  0  0  0  0  0  0  0
    1.9977   -7.8217  -32.2126 C   0  0  0  0  0  0  0  0  0  0  0  0
    2.6402   -6.8317  -31.9068 O   0  5  0  0  0  0  0  0  0  0  0  0
    4.8318  -10.0988  -30.1810 O   0  5  0  0  0  0  0  0  0  0  0  0
    4.3631   -9.1536  -36.6545 O   0  5  0  0  0  0  0  0  0  0  0  0
    0.4104  -11.2007  -35.1148 O   0  5  0  0  0  0  0  0  0  0  0  0
    5.7196   -8.8329  -35.0042 O   0  0  0  0  0  0  0  0  0  0  0  0
    5.7989   -8.2847  -30.8489 O   0  0  0  0  0  0  0  0  0  0  0  0
    2.0779  -11.3111  -36.4881 O   0  0  0  0  0  0  0  0  0  0  0  0
    0.8361   -7.8075  -32.5851 O   0  0  0  0  0  0  0  0  0  0  0  0
    0.8961  -10.2486  -32.9101 H   0  0  0  0  0  0  0  0  0  0  0  0
    5.6544  -10.6320  -33.2467 H   0  0  0  0  0  0  0  0  0  0  0  0
    4.5362   -8.3886  -32.8737 H   0  0  0  0  0  0  0  0  0  0  0  0
    2.2017   -9.0580  -34.7475 H   0  0  0  0  0  0  0  0  0  0  0  0
    2.5208   -9.4497  -31.0489 H   0  0  0  0  0  0  0  0  0  0  0  0
    4.0417  -11.2657  -35.1817 H   0  0  0  0  0  0  0  0  0  0  0  0
    4.3836  -12.5646  -32.2926 H   0  0  0  0  0  0  0  0  0  0  0  0
    1.9593  -12.3844  -32.1525 H   0  0  0  0  0  0  0  0  0  0  0  0
  1  4  1  0  0  0  0
  1  5  1  0  0  0  0
  1  8  1  0  0  0  0
  1 21  1  1  0  0  0
  2  7  1  0  0  0  0
  2  3  1  0  0  0  0
  2  6  1  0  0  0  0
  2 22  1  6  0  0  0
  3  5  1  0  0  0  0
  3 11  1  0  0  0  0
  3 23  1  6  0  0  0
  4  6  1  0  0  0  0
  4 10  1  0  0  0  0
  4 24  1  6  0  0  0
  5 12  1  0  0  0  0
  5 25  1  1  0  0  0
  6  9  1  0  0  0  0
  6 26  1  6  0  0  0
  7  8  2  0  0  0  0
  7 27  1  0  0  0  0
  8 28  1  0  0  0  0
  9 15  1  0  0  0  0
  9 17  2  0  0  0  0
 10 16  1  0  0  0  0
 10 19  2  0  0  0  0
 11 14  1  0  0  0  0
 11 18  2  0  0  0  0
 12 13  1  0  0  0  0
 12 20  2  0  0  0  0
M  CHG  4  13  -1  14  -1  15  -1  16  -1
M  END
$$$$
