HTS1710-04600939-01
 OpenBabel03232612353D

 39 40  0  0  0  0  0  0  0  0999 V2000
    1.3259  -12.2697  -33.3632 S   0  0  0  0  0  0  0  0  0  0  0  0
    2.8739  -11.9897  -29.5652 C   0  0  0  0  0  0  0  0  0  0  0  0
    2.7211  -12.2494  -34.3382 N   0  0  0  0  0  0  0  0  0  0  0  0
    3.5059  -11.1650  -34.6843 C   0  0  0  0  0  0  0  0  0  0  0  0
    1.9118  -12.6987  -31.7131 C   0  0  0  0  0  0  0  0  0  0  0  0
    2.4688  -11.7070  -30.8915 C   0  0  0  0  0  0  0  0  0  0  0  0
    3.4514  -10.8523  -28.7246 C   0  0  0  0  0  0  0  0  0  0  0  0
    5.7617   -8.5741  -32.9756 C   0  0  0  0  0  0  0  0  0  0  0  0
    5.0208   -9.3453  -34.0429 C   0  0  0  0  0  0  0  0  0  0  0  0
    4.1757  -10.4195  -33.6938 C   0  0  0  0  0  0  0  0  0  0  0  0
    0.7650  -10.9166  -33.4087 O   0  0  0  0  0  0  0  0  0  0  0  0
    0.6143  -13.4448  -33.8767 O   0  0  0  0  0  0  0  0  0  0  0  0
    2.7169  -13.3210  -29.0803 C   0  0  0  0  0  0  0  0  0  0  0  0
    3.6435  -10.8022  -36.0384 C   0  0  0  0  0  0  0  0  0  0  0  0
    4.6070  -10.5312  -28.9417 O   0  5  0  0  0  0  0  0  0  0  0  0
    6.5568   -7.7249  -33.3437 O   0  5  0  0  0  0  0  0  0  0  0  0
    1.7610  -14.0029  -31.2269 C   0  0  0  0  0  0  0  0  0  0  0  0
    5.1640   -9.0085  -35.4050 C   0  0  0  0  0  0  0  0  0  0  0  0
    2.1583  -14.3113  -29.9211 C   0  0  0  0  0  0  0  0  0  0  0  0
    4.4742   -9.7274  -36.3927 C   0  0  0  0  0  0  0  0  0  0  0  0
    2.7453  -10.3230  -27.8849 O   0  0  0  0  0  0  0  0  0  0  0  0
    5.5172   -8.8462  -31.8127 O   0  0  0  0  0  0  0  0  0  0  0  0
    2.9925  -11.4993  -37.0194 O   0  0  0  0  0  0  0  0  0  0  0  0
    3.0876  -13.6339  -27.7815 O   0  0  0  0  0  0  0  0  0  0  0  0
    4.4440  -13.7509  -27.3067 C   0  0  0  0  0  0  0  0  0  0  0  0
    5.2722  -14.5669  -28.3240 C   0  0  0  0  0  0  0  0  0  0  0  0
    3.0048  -13.1193  -34.7013 H   0  0  0  0  0  0  0  0  0  0  0  0
    2.5855  -10.7510  -31.2623 H   0  0  0  0  0  0  0  0  0  0  0  0
    4.0463  -10.6627  -32.6993 H   0  0  0  0  0  0  0  0  0  0  0  0
    1.3574  -14.7360  -31.8309 H   0  0  0  0  0  0  0  0  0  0  0  0
    5.7810   -8.2274  -35.6771 H   0  0  0  0  0  0  0  0  0  0  0  0
    2.0420  -15.2737  -29.5671 H   0  0  0  0  0  0  0  0  0  0  0  0
    4.5778   -9.4645  -37.3853 H   0  0  0  0  0  0  0  0  0  0  0  0
    2.3728  -12.1635  -36.7896 H   0  0  0  0  0  0  0  0  0  0  0  0
    4.4495  -14.2492  -26.3598 H   0  0  0  0  0  0  0  0  0  0  0  0
    4.8707  -12.7760  -27.1967 H   0  0  0  0  0  0  0  0  0  0  0  0
    4.8440  -15.5414  -28.4326 H   0  0  0  0  0  0  0  0  0  0  0  0
    6.2792  -14.6568  -27.9738 H   0  0  0  0  0  0  0  0  0  0  0  0
    5.2670  -14.0675  -29.2703 H   0  0  0  0  0  0  0  0  0  0  0  0
  1  3  1  0  0  0  0
  1  5  1  0  0  0  0
  1 11  2  0  0  0  0
  1 12  2  0  0  0  0
  2  6  2  0  0  0  0
  2  7  1  0  0  0  0
  2 13  1  0  0  0  0
  3  4  1  0  0  0  0
  3 27  1  0  0  0  0
  4 10  2  0  0  0  0
  4 14  1  0  0  0  0
  5  6  1  0  0  0  0
  5 17  2  0  0  0  0
  6 28  1  0  0  0  0
  7 15  1  0  0  0  0
  7 21  2  0  0  0  0
  8  9  1  0  0  0  0
  8 16  1  0  0  0  0
  8 22  2  0  0  0  0
  9 10  1  0  0  0  0
  9 18  2  0  0  0  0
 10 29  1  0  0  0  0
 13 24  1  0  0  0  0
 13 19  2  0  0  0  0
 14 20  2  0  0  0  0
 14 23  1  0  0  0  0
 17 19  1  0  0  0  0
 17 30  1  0  0  0  0
 18 20  1  0  0  0  0
 18 31  1  0  0  0  0
 19 32  1  0  0  0  0
 20 33  1  0  0  0  0
 23 34  1  0  0  0  0
 24 25  1  0  0  0  0
 25 26  1  0  0  0  0
 25 35  1  0  0  0  0
 25 36  1  0  0  0  0
 26 37  1  0  0  0  0
 26 38  1  0  0  0  0
 26 39  1  0  0  0  0
M  CHG  2  15  -1  16  -1
M  END
$$$$
