HTS1710-01945179-01
 OpenBabel03232612343D

 31 32  0  0  0  0  0  0  0  0999 V2000
    1.0889  -10.0775  -34.5890 S   0  0  0  0  0  0  0  0  0  0  0  0
    2.7964   -9.6393  -34.1575 C   0  0  0  0  0  0  0  0  0  0  0  0
    3.8479   -9.6743  -35.1058 C   0  0  0  0  0  0  0  0  0  0  0  0
    3.0789   -9.2725  -32.8250 C   0  0  0  0  0  0  0  0  0  0  0  0
    3.6362  -10.0387  -36.5456 C   0  0  0  0  0  0  0  0  0  0  0  0
    4.3916   -8.9533  -32.4154 C   0  0  0  0  0  0  0  0  0  0  0  0
    0.3039   -8.4935  -34.9362 C   0  0  0  0  0  0  0  0  0  0  0  0
    4.6809   -8.5556  -30.9824 C   0  0  0  0  0  0  0  0  0  0  0  0
    5.1562   -9.3699  -34.6938 C   0  0  0  0  0  0  0  0  0  0  0  0
   -1.5483   -4.6666  -35.8384 C   0  0  0  0  0  0  0  0  0  0  0  0
    1.1287  -10.8300  -35.8477 O   0  0  0  0  0  0  0  0  0  0  0  0
    0.4522  -10.6545  -33.4008 O   0  0  0  0  0  0  0  0  0  0  0  0
   -0.9017   -5.9988  -35.5239 C   0  0  0  0  0  0  0  0  0  0  0  0
    5.4283   -9.0132  -33.3666 C   0  0  0  0  0  0  0  0  0  0  0  0
    3.8273  -11.2021  -36.8517 O   0  5  0  0  0  0  0  0  0  0  0  0
    3.7597   -8.6082  -30.1851 O   0  5  0  0  0  0  0  0  0  0  0  0
   -0.8254   -3.7697  -36.2375 O   0  5  0  0  0  0  0  0  0  0  0  0
    0.3093   -7.9977  -36.2495 C   0  0  0  0  0  0  0  0  0  0  0  0
   -0.3062   -7.7442  -33.9142 C   0  0  0  0  0  0  0  0  0  0  0  0
   -0.9022   -6.5073  -34.2063 C   0  0  0  0  0  0  0  0  0  0  0  0
   -0.2883   -6.7610  -36.5420 C   0  0  0  0  0  0  0  0  0  0  0  0
    3.3151   -9.1442  -37.3085 O   0  0  0  0  0  0  0  0  0  0  0  0
    5.8165   -8.2058  -30.7124 O   0  0  0  0  0  0  0  0  0  0  0  0
   -2.7525   -4.5707  -35.6737 O   0  0  0  0  0  0  0  0  0  0  0  0
    2.3111   -9.2368  -32.1363 H   0  0  0  0  0  0  0  0  0  0  0  0
    5.9274   -9.4097  -35.3784 H   0  0  0  0  0  0  0  0  0  0  0  0
    6.3960   -8.7927  -33.0838 H   0  0  0  0  0  0  0  0  0  0  0  0
    0.7544   -8.5442  -37.0032 H   0  0  0  0  0  0  0  0  0  0  0  0
   -0.3157   -8.1046  -32.9473 H   0  0  0  0  0  0  0  0  0  0  0  0
   -1.3456   -5.9633  -33.4497 H   0  0  0  0  0  0  0  0  0  0  0  0
   -0.2790   -6.4057  -37.5109 H   0  0  0  0  0  0  0  0  0  0  0  0
  1  2  1  0  0  0  0
  1  7  1  0  0  0  0
  1 11  2  0  0  0  0
  1 12  2  0  0  0  0
  2  3  2  0  0  0  0
  2  4  1  0  0  0  0
  3  5  1  0  0  0  0
  3  9  1  0  0  0  0
  4  6  2  0  0  0  0
  4 25  1  0  0  0  0
  5 15  1  0  0  0  0
  5 22  2  0  0  0  0
  6  8  1  0  0  0  0
  6 14  1  0  0  0  0
  7 18  2  0  0  0  0
  7 19  1  0  0  0  0
  8 16  1  0  0  0  0
  8 23  2  0  0  0  0
  9 14  2  0  0  0  0
  9 26  1  0  0  0  0
 10 13  1  0  0  0  0
 10 17  1  0  0  0  0
 10 24  2  0  0  0  0
 13 20  1  0  0  0  0
 13 21  2  0  0  0  0
 14 27  1  0  0  0  0
 18 21  1  0  0  0  0
 18 28  1  0  0  0  0
 19 20  2  0  0  0  0
 19 29  1  0  0  0  0
 20 30  1  0  0  0  0
 21 31  1  0  0  0  0
M  CHG  3  15  -1  16  -1  17  -1
M  END
$$$$
