HTS1710-02671560-01
 OpenBabel03232612353D

 35 36  0  0  1  0  0  0  0  0999 V2000
    2.8170  -12.9648  -29.9536 N   0  0  0  0  0  0  0  0  0  0  0  0
    1.8246  -13.9281  -29.8245 C   0  0  0  0  0  0  0  0  0  0  0  0
    2.9593  -12.4705  -31.2517 C   0  0  0  0  0  0  0  0  0  0  0  0
    1.9722  -13.1109  -32.1538 C   0  0  0  0  0  0  0  0  0  0  0  0
    0.9440  -14.2723  -31.3410 S   0  0  0  0  0  0  0  0  0  0  0  0
    3.6227  -12.4965  -28.7927 C   0  0  2  0  0  0  0  0  0  0  0  0
    1.9253  -12.8027  -33.4988 C   0  0  0  0  0  0  0  0  0  0  0  0
    3.6171  -10.9516  -28.7009 C   0  0  0  0  0  0  0  0  0  0  0  0
    1.4960  -14.7942  -28.4259 S   0  0  0  0  0  0  0  0  0  0  0  0
    5.0327  -13.1566  -28.7959 C   0  0  0  0  0  0  0  0  0  0  0  0
    3.7927  -11.6493  -31.5963 O   0  0  0  0  0  0  0  0  0  0  0  0
    6.6151  -14.6204  -27.3846 C   0  0  0  0  0  0  0  0  0  0  0  0
    4.5439  -10.3713  -29.2406 O   0  5  0  0  0  0  0  0  0  0  0  0
    7.3370  -13.6514  -27.2254 O   0  5  0  0  0  0  0  0  0  0  0  0
    2.6600  -11.8833  -34.4222 C   0  0  0  0  0  0  0  0  0  0  0  0
    5.1668  -14.3578  -27.8229 C   0  0  0  0  0  0  0  0  0  0  0  0
    2.6978  -10.4059  -28.1139 O   0  0  0  0  0  0  0  0  0  0  0  0
    3.9260  -10.0809  -36.2024 C   0  0  0  0  0  0  0  0  0  0  0  0
    6.9458  -15.7819  -27.2185 O   0  0  0  0  0  0  0  0  0  0  0  0
    4.0516  -11.9539  -34.6511 C   0  0  0  0  0  0  0  0  0  0  0  0
    1.9180  -10.8950  -35.1017 C   0  0  0  0  0  0  0  0  0  0  0  0
    2.5440   -9.9994  -35.9841 C   0  0  0  0  0  0  0  0  0  0  0  0
    4.6782  -11.0597  -35.5355 C   0  0  0  0  0  0  0  0  0  0  0  0
    4.5362   -9.2130  -37.0608 O   0  0  0  0  0  0  0  0  0  0  0  0
    3.1676  -12.8238  -27.8813 H   0  0  0  0  0  0  0  0  0  0  0  0
    1.1987  -13.3442  -33.9925 H   0  0  0  0  0  0  0  0  0  0  0  0
    5.7524  -12.4154  -28.5174 H   0  0  0  0  0  0  0  0  0  0  0  0
    5.1953  -13.5367  -29.7828 H   0  0  0  0  0  0  0  0  0  0  0  0
    4.7947  -15.2343  -28.3109 H   0  0  0  0  0  0  0  0  0  0  0  0
    4.6059  -14.1196  -26.9434 H   0  0  0  0  0  0  0  0  0  0  0  0
    4.6140  -12.6691  -34.1642 H   0  0  0  0  0  0  0  0  0  0  0  0
    0.8996  -10.8288  -34.9482 H   0  0  0  0  0  0  0  0  0  0  0  0
    1.9862   -9.2812  -36.4720 H   0  0  0  0  0  0  0  0  0  0  0  0
    5.6958  -11.1231  -35.6952 H   0  0  0  0  0  0  0  0  0  0  0  0
    5.2882   -9.4869  -37.5481 H   0  0  0  0  0  0  0  0  0  0  0  0
  1  2  1  0  0  0  0
  1  3  1  0  0  0  0
  1  6  1  0  0  0  0
  2  5  1  0  0  0  0
  2  9  2  0  0  0  0
  3  4  1  0  0  0  0
  3 11  2  0  0  0  0
  4  5  1  0  0  0  0
  4  7  2  0  0  0  0
  6  8  1  0  0  0  0
  6 10  1  0  0  0  0
  6 25  1  1  0  0  0
  7 15  1  0  0  0  0
  7 26  1  0  0  0  0
  8 13  1  0  0  0  0
  8 17  2  0  0  0  0
 10 16  1  0  0  0  0
 10 27  1  0  0  0  0
 10 28  1  0  0  0  0
 12 14  1  0  0  0  0
 12 16  1  0  0  0  0
 12 19  2  0  0  0  0
 15 20  2  0  0  0  0
 15 21  1  0  0  0  0
 16 29  1  0  0  0  0
 16 30  1  0  0  0  0
 18 22  1  0  0  0  0
 18 23  2  0  0  0  0
 18 24  1  0  0  0  0
 20 23  1  0  0  0  0
 20 31  1  0  0  0  0
 21 22  2  0  0  0  0
 21 32  1  0  0  0  0
 22 33  1  0  0  0  0
 23 34  1  0  0  0  0
 24 35  1  0  0  0  0
M  CHG  2  13  -1  14  -1
M  END
$$$$
