HTS1710-00097874-01
 OpenBabel03232612363D

 34 33  0  0  0  0  0  0  0  0999 V2000
    5.6909  -13.5240  -27.9337 C   0  0  0  0  0  0  0  0  0  0  0  0
    2.3607  -13.6912  -28.5998 C   0  0  0  0  0  0  0  0  0  0  0  0
    4.1947  -10.9425  -34.5410 C   0  0  0  0  0  0  0  0  0  0  0  0
    4.6053  -10.1754  -31.0537 C   0  0  0  0  0  0  0  0  0  0  0  0
    4.3894  -14.7635  -29.6204 N   0  3  0  0  0  0  0  0  0  0  0  0
    4.2513  -12.1875  -32.4146 N   0  3  0  0  0  0  0  0  0  0  0  0
    2.1465  -12.6648  -29.2173 O   0  5  0  0  0  0  0  0  0  0  0  0
    4.8832  -12.7185  -27.5056 O   0  5  0  0  0  0  0  0  0  0  0  0
    3.3152  -10.1389  -34.7907 O   0  5  0  0  0  0  0  0  0  0  0  0
    5.4326   -9.6980  -31.8077 O   0  5  0  0  0  0  0  0  0  0  0  0
    2.9306  -14.8752  -29.3854 C   0  0  0  0  0  0  0  0  0  0  0  0
    5.1554  -14.8870  -28.3604 C   0  0  0  0  0  0  0  0  0  0  0  0
    3.7829  -12.2200  -33.8182 C   0  0  0  0  0  0  0  0  0  0  0  0
    3.5727  -11.1128  -31.6648 C   0  0  0  0  0  0  0  0  0  0  0  0
    4.0652  -13.4887  -31.7302 C   0  0  0  0  0  0  0  0  0  0  0  0
    4.7058  -13.5028  -30.3209 C   0  0  0  0  0  0  0  0  0  0  0  0
    5.3779  -10.8136  -34.7978 O   0  0  0  0  0  0  0  0  0  0  0  0
    6.8885  -13.3417  -28.0470 O   0  0  0  0  0  0  0  0  0  0  0  0
    4.5286   -9.9775  -29.8550 O   0  0  0  0  0  0  0  0  0  0  0  0
    2.1686  -13.8578  -27.4083 O   0  0  0  0  0  0  0  0  0  0  0  0
    4.6715  -15.5398  -30.2188 H   0  0  0  0  0  0  0  0  0  0  0  0
    5.2530  -11.9968  -32.4386 H   0  0  0  0  0  0  0  0  0  0  0  0
    2.4353  -14.9265  -30.3325 H   0  0  0  0  0  0  0  0  0  0  0  0
    2.7662  -15.7566  -28.8015 H   0  0  0  0  0  0  0  0  0  0  0  0
    5.9754  -15.5580  -28.5096 H   0  0  0  0  0  0  0  0  0  0  0  0
    4.5098  -15.2637  -27.5948 H   0  0  0  0  0  0  0  0  0  0  0  0
    4.2158  -13.0627  -34.3156 H   0  0  0  0  0  0  0  0  0  0  0  0
    2.7158  -12.2981  -33.8281 H   0  0  0  0  0  0  0  0  0  0  0  0
    2.9414  -10.5605  -32.3292 H   0  0  0  0  0  0  0  0  0  0  0  0
    2.9841  -11.5460  -30.8832 H   0  0  0  0  0  0  0  0  0  0  0  0
    4.5166  -14.2574  -32.3220 H   0  0  0  0  0  0  0  0  0  0  0  0
    3.0142  -13.6532  -31.6158 H   0  0  0  0  0  0  0  0  0  0  0  0
    4.3253  -12.6796  -29.7531 H   0  0  0  0  0  0  0  0  0  0  0  0
    5.7678  -13.4215  -30.4232 H   0  0  0  0  0  0  0  0  0  0  0  0
  1  8  1  0  0  0  0
  1 12  1  0  0  0  0
  1 18  2  0  0  0  0
  2 11  1  0  0  0  0
  2  7  1  0  0  0  0
  2 20  2  0  0  0  0
  3 13  1  0  0  0  0
  3  9  1  0  0  0  0
  3 17  2  0  0  0  0
  4 14  1  0  0  0  0
  4 10  1  0  0  0  0
  4 19  2  0  0  0  0
  5 12  1  0  0  0  0
  5 11  1  0  0  0  0
  5 16  1  0  0  0  0
  5 21  1  0  0  0  0
  6 15  1  0  0  0  0
  6 13  1  0  0  0  0
  6 14  1  0  0  0  0
  6 22  1  0  0  0  0
 11 23  1  0  0  0  0
 11 24  1  0  0  0  0
 12 25  1  0  0  0  0
 12 26  1  0  0  0  0
 13 27  1  0  0  0  0
 13 28  1  0  0  0  0
 14 29  1  0  0  0  0
 14 30  1  0  0  0  0
 15 16  1  0  0  0  0
 15 31  1  0  0  0  0
 15 32  1  0  0  0  0
 16 33  1  0  0  0  0
 16 34  1  0  0  0  0
M  CHG  6   5   1   6   1   7  -1   8  -1   9  -1  10  -1
M  END
$$$$
