HTS1710-00208646-01
 OpenBabel03232612353D

 41 43  0  0  0  0  0  0  0  0999 V2000
    1.7856   -8.9606  -35.9697 C   0  0  0  0  0  0  0  0  0  0  0  0
    1.3711   -9.0659  -34.5910 C   0  0  0  0  0  0  0  0  0  0  0  0
    0.3274   -8.2919  -34.3364 N   0  0  0  0  0  0  0  0  0  0  0  0
    0.0122   -7.7857  -35.5668 N   0  0  0  0  0  0  0  0  0  0  0  0
    0.8525   -8.1771  -36.5908 C   0  0  0  0  0  0  0  0  0  0  0  0
    2.0759   -9.9160  -33.6118 C   0  0  0  0  0  0  0  0  0  0  0  0
    3.6539  -10.0435  -31.7155 C   0  0  0  0  0  0  0  0  0  0  0  0
    2.9423   -9.3027  -32.6883 C   0  0  0  0  0  0  0  0  0  0  0  0
    3.0175   -9.4442  -36.6555 C   0  0  0  0  0  0  0  0  0  0  0  0
    3.4515  -11.4510  -31.6614 C   0  0  0  0  0  0  0  0  0  0  0  0
    1.8221  -11.2985  -33.4938 C   0  0  0  0  0  0  0  0  0  0  0  0
    4.6013   -9.2971  -30.7761 C   0  0  0  0  0  0  0  0  0  0  0  0
    2.5277  -12.0595  -32.5400 C   0  0  0  0  0  0  0  0  0  0  0  0
   -1.0460   -6.9077  -35.7991 C   0  0  0  0  0  0  0  0  0  0  0  0
    3.8228  -10.1072  -36.0264 O   0  5  0  0  0  0  0  0  0  0  0  0
    5.4917   -8.6407  -31.2887 O   0  5  0  0  0  0  0  0  0  0  0  0
    3.1691   -9.1069  -37.8171 O   0  0  0  0  0  0  0  0  0  0  0  0
    4.4311   -9.3878  -29.5728 O   0  0  0  0  0  0  0  0  0  0  0  0
    4.1365  -12.2162  -30.7313 O   0  0  0  0  0  0  0  0  0  0  0  0
    0.8103  -11.8617  -34.2546 O   0  0  0  0  0  0  0  0  0  0  0  0
   -0.8622   -5.7832  -36.6279 C   0  0  0  0  0  0  0  0  0  0  0  0
   -2.2987   -7.1498  -35.2048 C   0  0  0  0  0  0  0  0  0  0  0  0
    0.9766  -12.2868  -35.6176 C   0  0  0  0  0  0  0  0  0  0  0  0
    4.0110  -13.6430  -30.6038 C   0  0  0  0  0  0  0  0  0  0  0  0
   -3.3641   -6.2639  -35.4357 C   0  0  0  0  0  0  0  0  0  0  0  0
   -1.9313   -4.9019  -36.8556 C   0  0  0  0  0  0  0  0  0  0  0  0
   -3.1808   -5.1417  -36.2596 C   0  0  0  0  0  0  0  0  0  0  0  0
    0.7905   -7.9348  -37.5920 H   0  0  0  0  0  0  0  0  0  0  0  0
    3.0628   -8.2783  -32.7217 H   0  0  0  0  0  0  0  0  0  0  0  0
    2.3669  -13.0773  -32.4825 H   0  0  0  0  0  0  0  0  0  0  0  0
    0.0555   -5.6077  -37.0662 H   0  0  0  0  0  0  0  0  0  0  0  0
   -2.4341   -7.9759  -34.6012 H   0  0  0  0  0  0  0  0  0  0  0  0
    0.0531  -12.6860  -35.9819 H   0  0  0  0  0  0  0  0  0  0  0  0
    1.7347  -13.0404  -35.6662 H   0  0  0  0  0  0  0  0  0  0  0  0
    1.2657  -11.4506  -36.2193 H   0  0  0  0  0  0  0  0  0  0  0  0
    4.6442  -13.9875  -29.8131 H   0  0  0  0  0  0  0  0  0  0  0  0
    4.3008  -14.1100  -31.5219 H   0  0  0  0  0  0  0  0  0  0  0  0
    2.9946  -13.8933  -30.3816 H   0  0  0  0  0  0  0  0  0  0  0  0
   -4.2828   -6.4380  -34.9992 H   0  0  0  0  0  0  0  0  0  0  0  0
   -1.7991   -4.0771  -37.4616 H   0  0  0  0  0  0  0  0  0  0  0  0
   -3.9649   -4.4922  -36.4276 H   0  0  0  0  0  0  0  0  0  0  0  0
  1  2  1  0  0  0  0
  1  5  2  0  0  0  0
  1  9  1  0  0  0  0
  2  3  2  0  0  0  0
  2  6  1  0  0  0  0
  3  4  1  0  0  0  0
  4  5  1  0  0  0  0
  4 14  1  0  0  0  0
  5 28  1  0  0  0  0
  6  8  2  0  0  0  0
  6 11  1  0  0  0  0
  7  8  1  0  0  0  0
  7 12  1  0  0  0  0
  7 10  2  0  0  0  0
  8 29  1  0  0  0  0
  9 15  1  0  0  0  0
  9 17  2  0  0  0  0
 10 13  1  0  0  0  0
 10 19  1  0  0  0  0
 11 13  2  0  0  0  0
 11 20  1  0  0  0  0
 12 16  1  0  0  0  0
 12 18  2  0  0  0  0
 13 30  1  0  0  0  0
 14 21  2  0  0  0  0
 14 22  1  0  0  0  0
 19 24  1  0  0  0  0
 20 23  1  0  0  0  0
 21 26  1  0  0  0  0
 21 31  1  0  0  0  0
 22 25  2  0  0  0  0
 22 32  1  0  0  0  0
 23 33  1  0  0  0  0
 23 34  1  0  0  0  0
 23 35  1  0  0  0  0
 24 36  1  0  0  0  0
 24 37  1  0  0  0  0
 24 38  1  0  0  0  0
 25 27  1  0  0  0  0
 25 39  1  0  0  0  0
 26 27  2  0  0  0  0
 26 40  1  0  0  0  0
 27 41  1  0  0  0  0
M  CHG  2  15  -1  16  -1
M  END
$$$$
