HTS1710-03983051-01
 OpenBabel03232612353D

 25 26  0  0  0  0  0  0  0  0999 V2000
    2.1958   -8.8335  -30.5888 C   0  0  0  0  0  0  0  0  0  0  0  0
    2.9894   -8.9616  -31.8024 C   0  0  0  0  0  0  0  0  0  0  0  0
    0.9820   -8.3800  -30.8985 N   0  0  0  0  0  0  0  0  0  0  0  0
    1.0009   -8.2319  -32.2511 N   0  0  0  0  0  0  0  0  0  0  0  0
    2.1950   -8.5643  -32.8447 C   0  0  0  0  0  0  0  0  0  0  0  0
    4.3934   -9.4172  -32.0401 C   0  0  0  0  0  0  0  0  0  0  0  0
    2.5413   -9.1238  -29.1596 C   0  0  0  0  0  0  0  0  0  0  0  0
   -3.4383   -6.2765  -35.3184 C   0  0  0  0  0  0  0  0  0  0  0  0
   -0.0772   -7.7578  -33.0004 C   0  0  0  0  0  0  0  0  0  0  0  0
   -2.2669   -6.7924  -34.5103 C   0  0  0  0  0  0  0  0  0  0  0  0
    4.7689   -9.6665  -33.1689 O   0  5  0  0  0  0  0  0  0  0  0  0
    2.2955  -10.2464  -28.7485 O   0  5  0  0  0  0  0  0  0  0  0  0
   -3.4610   -5.0865  -35.5820 O   0  5  0  0  0  0  0  0  0  0  0  0
   -1.0509   -6.9487  -32.3905 C   0  0  0  0  0  0  0  0  0  0  0  0
   -0.1914   -8.0841  -34.3631 C   0  0  0  0  0  0  0  0  0  0  0  0
   -1.2793   -7.6042  -35.1116 C   0  0  0  0  0  0  0  0  0  0  0  0
   -2.1393   -6.4715  -33.1401 C   0  0  0  0  0  0  0  0  0  0  0  0
    5.1081   -9.5166  -31.0564 O   0  0  0  0  0  0  0  0  0  0  0  0
    3.0420   -8.2574  -28.4704 O   0  0  0  0  0  0  0  0  0  0  0  0
   -4.2886   -7.0824  -35.6579 O   0  0  0  0  0  0  0  0  0  0  0  0
    2.4376   -8.5238  -33.8469 H   0  0  0  0  0  0  0  0  0  0  0  0
   -0.9665   -6.7047  -31.3913 H   0  0  0  0  0  0  0  0  0  0  0  0
    0.5239   -8.6761  -34.8137 H   0  0  0  0  0  0  0  0  0  0  0  0
   -1.3578   -7.8474  -36.1115 H   0  0  0  0  0  0  0  0  0  0  0  0
   -2.8528   -5.8806  -32.6854 H   0  0  0  0  0  0  0  0  0  0  0  0
  1  2  1  0  0  0  0
  1  3  2  0  0  0  0
  1  7  1  0  0  0  0
  2  5  2  0  0  0  0
  2  6  1  0  0  0  0
  3  4  1  0  0  0  0
  4  9  1  0  0  0  0
  4  5  1  0  0  0  0
  5 21  1  0  0  0  0
  6 11  1  0  0  0  0
  6 18  2  0  0  0  0
  7 12  1  0  0  0  0
  7 19  2  0  0  0  0
  8 10  1  0  0  0  0
  8 13  1  0  0  0  0
  8 20  2  0  0  0  0
  9 14  2  0  0  0  0
  9 15  1  0  0  0  0
 10 16  1  0  0  0  0
 10 17  2  0  0  0  0
 14 17  1  0  0  0  0
 14 22  1  0  0  0  0
 15 16  2  0  0  0  0
 15 23  1  0  0  0  0
 16 24  1  0  0  0  0
 17 25  1  0  0  0  0
M  CHG  3  11  -1  12  -1  13  -1
M  END
$$$$
