HTS1710-02655717-01
 OpenBabel03232612363D

 55 56  0  0  1  0  0  0  0  0999 V2000
    0.5389   -9.1068  -33.7861 C   0  0  0  0  0  0  0  0  0  0  0  0
    0.3900   -7.5987  -34.0883 C   0  0  2  0  0  0  0  0  0  0  0  0
    3.1771  -12.2938  -31.2977 C   0  0  0  0  0  0  0  0  0  0  0  0
    2.7201  -12.2340  -29.8228 C   0  0  2  0  0  0  0  0  0  0  0  0
    0.5226   -6.6583  -32.8447 C   0  0  2  0  0  0  0  0  0  0  0  0
    3.7815  -11.5670  -28.8901 C   0  0  2  0  0  0  0  0  0  0  0  0
    1.8619   -6.8620  -32.1012 C   0  0  0  0  0  0  0  0  0  0  0  0
    4.2259  -10.1772  -29.3958 C   0  0  0  0  0  0  0  0  0  0  0  0
    1.2870   -9.8634  -34.6814 N   0  0  0  0  0  0  0  0  0  0  0  0
    2.4481  -11.5682  -32.2304 N   0  0  0  0  0  0  0  0  0  0  0  0
    0.0516   -9.6422  -32.8051 O   0  0  0  0  0  0  0  0  0  0  0  0
    4.1073  -12.9883  -31.6740 O   0  0  0  0  0  0  0  0  0  0  0  0
    2.4443   -5.8535  -31.7423 O   0  5  0  0  0  0  0  0  0  0  0  0
    4.8547  -10.1489  -30.4392 O   0  5  0  0  0  0  0  0  0  0  0  0
    3.8844   -9.1959  -28.7568 O   0  0  0  0  0  0  0  0  0  0  0  0
    2.2335   -8.0010  -31.8767 O   0  0  0  0  0  0  0  0  0  0  0  0
    2.7806  -11.5433  -33.6607 C   0  0  0  0  0  0  0  0  0  0  0  0
    1.5140  -11.3089  -34.5229 C   0  0  2  0  0  0  0  0  0  0  0  0
   -0.9406   -7.3261  -34.8436 C   0  0  0  0  0  0  0  0  0  0  0  0
   -0.7261   -6.7124  -31.9117 C   0  0  0  0  0  0  0  0  0  0  0  0
    4.9826  -12.5156  -28.6143 C   0  0  0  0  0  0  0  0  0  0  0  0
    2.2832  -13.6253  -29.2717 C   0  0  0  0  0  0  0  0  0  0  0  0
    1.6558  -11.9474  -35.9199 C   0  0  0  0  0  0  0  0  0  0  0  0
   -2.0419   -6.4759  -32.6913 C   0  0  0  0  0  0  0  0  0  0  0  0
    4.5165  -13.8607  -28.0119 C   0  0  0  0  0  0  0  0  0  0  0  0
    3.4684  -14.5608  -28.9073 C   0  0  0  0  0  0  0  0  0  0  0  0
   -2.1739   -7.4177  -33.9116 C   0  0  0  0  0  0  0  0  0  0  0  0
    1.2241   -7.3520  -34.7114 H   0  0  0  0  0  0  0  0  0  0  0  0
    1.8542  -11.6054  -29.8177 H   0  0  0  0  0  0  0  0  0  0  0  0
    0.5471   -5.6552  -33.2165 H   0  0  0  0  0  0  0  0  0  0  0  0
    3.3020  -11.3947  -27.9492 H   0  0  0  0  0  0  0  0  0  0  0  0
    1.6843   -9.4098  -35.4597 H   0  0  0  0  0  0  0  0  0  0  0  0
    1.6733  -11.0469  -31.9189 H   0  0  0  0  0  0  0  0  0  0  0  0
    3.2211  -12.4794  -33.9337 H   0  0  0  0  0  0  0  0  0  0  0  0
    3.4655  -10.7403  -33.8369 H   0  0  0  0  0  0  0  0  0  0  0  0
    0.6866  -11.7662  -34.0218 H   0  0  0  0  0  0  0  0  0  0  0  0
   -1.0462   -8.0481  -35.6263 H   0  0  0  0  0  0  0  0  0  0  0  0
   -0.8979   -6.3308  -35.2338 H   0  0  0  0  0  0  0  0  0  0  0  0
   -0.6291   -5.9569  -31.1603 H   0  0  0  0  0  0  0  0  0  0  0  0
   -0.7710   -7.6883  -31.4753 H   0  0  0  0  0  0  0  0  0  0  0  0
    5.6506  -12.0398  -27.9271 H   0  0  0  0  0  0  0  0  0  0  0  0
    5.4719  -12.7163  -29.5444 H   0  0  0  0  0  0  0  0  0  0  0  0
    1.6882  -14.1107  -30.0169 H   0  0  0  0  0  0  0  0  0  0  0  0
    1.7422  -13.4439  -28.3666 H   0  0  0  0  0  0  0  0  0  0  0  0
    2.4804  -11.5000  -36.4345 H   0  0  0  0  0  0  0  0  0  0  0  0
    0.7574  -11.7867  -36.4783 H   0  0  0  0  0  0  0  0  0  0  0  0
    1.8280  -12.9983  -35.8160 H   0  0  0  0  0  0  0  0  0  0  0  0
   -2.0623   -5.4625  -33.0340 H   0  0  0  0  0  0  0  0  0  0  0  0
   -2.8578   -6.6788  -32.0293 H   0  0  0  0  0  0  0  0  0  0  0  0
    4.0835  -13.6777  -27.0507 H   0  0  0  0  0  0  0  0  0  0  0  0
    5.3690  -14.5029  -27.9349 H   0  0  0  0  0  0  0  0  0  0  0  0
    3.9455  -14.8791  -29.8106 H   0  0  0  0  0  0  0  0  0  0  0  0
    3.0731  -15.3907  -28.3598 H   0  0  0  0  0  0  0  0  0  0  0  0
   -2.2708   -8.4248  -33.5631 H   0  0  0  0  0  0  0  0  0  0  0  0
   -3.0363   -7.1198  -34.4704 H   0  0  0  0  0  0  0  0  0  0  0  0
  1  2  1  0  0  0  0
  1  9  1  0  0  0  0
  1 11  2  0  0  0  0
  2  5  1  0  0  0  0
  2 19  1  0  0  0  0
  2 28  1  6  0  0  0
  3  4  1  0  0  0  0
  3 10  1  0  0  0  0
  3 12  2  0  0  0  0
  4  6  1  0  0  0  0
  4 22  1  0  0  0  0
  4 29  1  1  0  0  0
  5  7  1  0  0  0  0
  5 20  1  0  0  0  0
  5 30  1  6  0  0  0
  6  8  1  0  0  0  0
  6 21  1  0  0  0  0
  6 31  1  1  0  0  0
  7 13  1  0  0  0  0
  7 16  2  0  0  0  0
  8 14  1  0  0  0  0
  8 15  2  0  0  0  0
  9 18  1  0  0  0  0
  9 32  1  0  0  0  0
 10 17  1  0  0  0  0
 10 33  1  0  0  0  0
 17 18  1  0  0  0  0
 17 34  1  0  0  0  0
 17 35  1  0  0  0  0
 18 23  1  0  0  0  0
 18 36  1  1  0  0  0
 19 27  1  0  0  0  0
 19 37  1  0  0  0  0
 19 38  1  0  0  0  0
 20 24  1  0  0  0  0
 20 39  1  0  0  0  0
 20 40  1  0  0  0  0
 21 25  1  0  0  0  0
 21 41  1  0  0  0  0
 21 42  1  0  0  0  0
 22 26  1  0  0  0  0
 22 43  1  0  0  0  0
 22 44  1  0  0  0  0
 23 45  1  0  0  0  0
 23 46  1  0  0  0  0
 23 47  1  0  0  0  0
 24 27  1  0  0  0  0
 24 48  1  0  0  0  0
 24 49  1  0  0  0  0
 25 26  1  0  0  0  0
 25 50  1  0  0  0  0
 25 51  1  0  0  0  0
 26 52  1  0  0  0  0
 26 53  1  0  0  0  0
 27 54  1  0  0  0  0
 27 55  1  0  0  0  0
M  CHG  2  13  -1  14  -1
M  END
$$$$
