HTS1710-00507221-01
 OpenBabel03232612363D

 42 42  0  0  0  0  0  0  0  0999 V2000
    4.6018  -10.7430  -32.1471 C   0  0  0  0  0  0  0  0  0  0  0  0
    4.1659  -12.0650  -31.9059 C   0  0  0  0  0  0  0  0  0  0  0  0
    4.4749  -10.1889  -33.4398 C   0  0  0  0  0  0  0  0  0  0  0  0
    5.1567  -10.0234  -31.1044 O   0  0  0  0  0  0  0  0  0  0  0  0
    3.6209  -12.8164  -32.9631 C   0  0  0  0  0  0  0  0  0  0  0  0
    4.2725  -12.7044  -30.5190 C   0  0  0  0  0  0  0  0  0  0  0  0
    3.9274  -10.9443  -34.4890 C   0  0  0  0  0  0  0  0  0  0  0  0
    4.6882   -8.7229  -30.6950 C   0  0  0  0  0  0  0  0  0  0  0  0
    3.5018  -12.2664  -34.2471 C   0  0  0  0  0  0  0  0  0  0  0  0
    2.9193  -13.2486  -30.0008 C   0  0  0  0  0  0  0  0  0  0  0  0
    3.8259  -10.3548  -35.7347 O   0  0  0  0  0  0  0  0  0  0  0  0
    3.5887   -8.8417  -29.6298 C   0  0  0  0  0  0  0  0  0  0  0  0
    2.9445  -13.5905  -28.4870 C   0  0  0  0  0  0  0  0  0  0  0  0
    2.6152  -10.3829  -36.5200 C   0  0  0  0  0  0  0  0  0  0  0  0
    3.7206   -9.6859  -28.7603 O   0  5  0  0  0  0  0  0  0  0  0  0
    2.6290   -8.1020  -29.7526 O   0  0  0  0  0  0  0  0  0  0  0  0
    3.9221  -14.7398  -28.1316 C   0  0  0  0  0  0  0  0  0  0  0  0
    2.5162   -9.1583  -37.4407 C   0  0  0  0  0  0  0  0  0  0  0  0
    5.2934  -14.2417  -27.6068 C   0  0  0  0  0  0  0  0  0  0  0  0
    1.5346   -8.4404  -37.3410 O   0  5  0  0  0  0  0  0  0  0  0  0
    3.4555   -8.9637  -38.1909 O   0  0  0  0  0  0  0  0  0  0  0  0
    6.2389  -15.4111  -27.2599 C   0  0  0  0  0  0  0  0  0  0  0  0
    4.7870   -9.2208  -33.6146 H   0  0  0  0  0  0  0  0  0  0  0  0
    3.3052  -13.7838  -32.7914 H   0  0  0  0  0  0  0  0  0  0  0  0
    4.6306  -11.9680  -29.8302 H   0  0  0  0  0  0  0  0  0  0  0  0
    4.9429  -13.5346  -30.5990 H   0  0  0  0  0  0  0  0  0  0  0  0
    4.2952   -8.2087  -31.5471 H   0  0  0  0  0  0  0  0  0  0  0  0
    5.5106   -8.1817  -30.2757 H   0  0  0  0  0  0  0  0  0  0  0  0
    3.1028  -12.8290  -35.0148 H   0  0  0  0  0  0  0  0  0  0  0  0
    2.6768  -14.1362  -30.5470 H   0  0  0  0  0  0  0  0  0  0  0  0
    2.1887  -12.4801  -30.1438 H   0  0  0  0  0  0  0  0  0  0  0  0
    1.9586  -13.8793  -28.1880 H   0  0  0  0  0  0  0  0  0  0  0  0
    3.2837  -12.7164  -27.9714 H   0  0  0  0  0  0  0  0  0  0  0  0
    1.7726  -10.3917  -35.8605 H   0  0  0  0  0  0  0  0  0  0  0  0
    2.6294  -11.2622  -37.1296 H   0  0  0  0  0  0  0  0  0  0  0  0
    4.0883  -15.3275  -29.0100 H   0  0  0  0  0  0  0  0  0  0  0  0
    3.4701  -15.3070  -27.3450 H   0  0  0  0  0  0  0  0  0  0  0  0
    5.1338  -13.6538  -26.7272 H   0  0  0  0  0  0  0  0  0  0  0  0
    5.7531  -13.6632  -28.3807 H   0  0  0  0  0  0  0  0  0  0  0  0
    5.8009  -16.0065  -26.4862 H   0  0  0  0  0  0  0  0  0  0  0  0
    7.1775  -15.0230  -26.9232 H   0  0  0  0  0  0  0  0  0  0  0  0
    6.3939  -16.0145  -28.1299 H   0  0  0  0  0  0  0  0  0  0  0  0
  1  2  2  0  0  0  0
  1  3  1  0  0  0  0
  1  4  1  0  0  0  0
  2  5  1  0  0  0  0
  2  6  1  0  0  0  0
  3  7  2  0  0  0  0
  3 23  1  0  0  0  0
  4  8  1  0  0  0  0
  5  9  2  0  0  0  0
  5 24  1  0  0  0  0
  6 10  1  0  0  0  0
  6 25  1  0  0  0  0
  6 26  1  0  0  0  0
  7 11  1  0  0  0  0
  7  9  1  0  0  0  0
  8 12  1  0  0  0  0
  8 27  1  0  0  0  0
  8 28  1  0  0  0  0
  9 29  1  0  0  0  0
 10 13  1  0  0  0  0
 10 30  1  0  0  0  0
 10 31  1  0  0  0  0
 11 14  1  0  0  0  0
 12 15  1  0  0  0  0
 12 16  2  0  0  0  0
 13 17  1  0  0  0  0
 13 32  1  0  0  0  0
 13 33  1  0  0  0  0
 14 18  1  0  0  0  0
 14 34  1  0  0  0  0
 14 35  1  0  0  0  0
 17 19  1  0  0  0  0
 17 36  1  0  0  0  0
 17 37  1  0  0  0  0
 18 20  1  0  0  0  0
 18 21  2  0  0  0  0
 19 22  1  0  0  0  0
 19 38  1  0  0  0  0
 19 39  1  0  0  0  0
 22 40  1  0  0  0  0
 22 41  1  0  0  0  0
 22 42  1  0  0  0  0
M  CHG  2  15  -1  20  -1
M  END
$$$$
