HTS1710-04711385-01
 OpenBabel03232612363D

 39 40  0  0  1  0  0  0  0  0999 V2000
    6.6874   -6.3764  -33.7030 C   0  0  0  0  0  0  0  0  0  0  0  0
    5.9532   -7.5680  -33.1433 C   0  0  0  0  0  0  0  0  0  0  0  0
    5.7562   -7.6472  -31.7881 O   0  0  0  0  0  0  0  0  0  0  0  0
    5.0806   -8.8329  -31.7099 C   0  0  0  0  0  0  0  0  0  0  0  0
    4.6473   -9.3701  -30.3727 C   0  0  0  0  0  0  0  0  0  0  0  0
    4.4411  -10.8191  -30.4645 N   0  0  0  0  0  0  0  0  0  0  0  0
    3.6352  -11.5070  -29.5702 C   0  0  0  0  0  0  0  0  0  0  0  0
    3.0661  -10.9005  -28.6767 O   0  0  0  0  0  0  0  0  0  0  0  0
    3.4861  -13.0255  -29.7553 C   0  0  1  0  0  0  0  0  0  0  0  0
    3.5164  -13.7553  -28.3898 C   0  0  0  0  0  0  0  0  0  0  0  0
    2.1487  -14.4399  -28.2645 C   0  0  0  0  0  0  0  0  0  0  0  0
    1.6615  -14.5641  -29.7119 C   0  0  0  0  0  0  0  0  0  0  0  0
    2.2195  -13.4088  -30.4263 N   0  0  0  0  0  0  0  0  0  0  0  0
    2.1154  -13.4140  -32.1061 S   0  0  0  0  0  0  0  0  0  0  0  0
    3.3099  -14.0716  -32.6077 O   0  0  0  0  0  0  0  0  0  0  0  0
    1.7832  -12.0688  -32.5455 O   0  0  0  0  0  0  0  0  0  0  0  0
    0.7409  -14.5370  -32.4609 C   0  0  0  0  0  0  0  0  0  0  0  0
    4.8560   -9.4660  -32.9040 C   0  0  0  0  0  0  0  0  0  0  0  0
    5.4440   -8.6194  -33.8811 C   0  0  0  0  0  0  0  0  0  0  0  0
    5.4766   -8.8619  -35.3439 C   0  0  0  0  0  0  0  0  0  0  0  0
    6.0493   -8.0331  -36.0293 O   0  5  0  0  0  0  0  0  0  0  0  0
    4.9364   -9.8630  -35.7806 O   0  0  0  0  0  0  0  0  0  0  0  0
    6.9662   -5.7216  -32.9039 H   0  0  0  0  0  0  0  0  0  0  0  0
    6.0510   -5.8541  -34.3864 H   0  0  0  0  0  0  0  0  0  0  0  0
    7.5661   -6.7075  -34.2160 H   0  0  0  0  0  0  0  0  0  0  0  0
    3.7325   -8.8987  -30.0796 H   0  0  0  0  0  0  0  0  0  0  0  0
    5.4060   -9.1658  -29.6463 H   0  0  0  0  0  0  0  0  0  0  0  0
    4.8892  -11.3195  -31.1843 H   0  0  0  0  0  0  0  0  0  0  0  0
    4.3118  -13.3150  -30.3713 H   0  0  0  0  0  0  0  0  0  0  0  0
    3.6590  -13.0547  -27.5938 H   0  0  0  0  0  0  0  0  0  0  0  0
    4.3208  -14.4586  -28.3318 H   0  0  0  0  0  0  0  0  0  0  0  0
    1.4756  -13.8416  -27.6868 H   0  0  0  0  0  0  0  0  0  0  0  0
    2.2059  -15.3854  -27.7670 H   0  0  0  0  0  0  0  0  0  0  0  0
    0.5923  -14.5425  -29.7475 H   0  0  0  0  0  0  0  0  0  0  0  0
    1.9746  -15.4871  -30.1534 H   0  0  0  0  0  0  0  0  0  0  0  0
    0.9936  -15.5242  -32.1345 H   0  0  0  0  0  0  0  0  0  0  0  0
    0.5512  -14.5471  -33.5139 H   0  0  0  0  0  0  0  0  0  0  0  0
   -0.1347  -14.2036  -31.9440 H   0  0  0  0  0  0  0  0  0  0  0  0
    4.3669  -10.3613  -33.0594 H   0  0  0  0  0  0  0  0  0  0  0  0
  1  2  1  0  0  0  0
  1 23  1  0  0  0  0
  1 24  1  0  0  0  0
  1 25  1  0  0  0  0
  2  3  1  0  0  0  0
  2 19  2  0  0  0  0
  3  4  1  0  0  0  0
  4  5  1  0  0  0  0
  4 18  2  0  0  0  0
  5  6  1  0  0  0  0
  5 26  1  0  0  0  0
  5 27  1  0  0  0  0
  6  7  1  0  0  0  0
  6 28  1  0  0  0  0
  7  8  2  0  0  0  0
  7  9  1  0  0  0  0
  9 10  1  0  0  0  0
  9 13  1  0  0  0  0
  9 29  1  6  0  0  0
 10 11  1  0  0  0  0
 10 30  1  0  0  0  0
 10 31  1  0  0  0  0
 11 12  1  0  0  0  0
 11 32  1  0  0  0  0
 11 33  1  0  0  0  0
 12 13  1  0  0  0  0
 12 34  1  0  0  0  0
 12 35  1  0  0  0  0
 13 14  1  0  0  0  0
 14 15  2  0  0  0  0
 14 16  2  0  0  0  0
 14 17  1  0  0  0  0
 17 36  1  0  0  0  0
 17 37  1  0  0  0  0
 17 38  1  0  0  0  0
 18 19  1  0  0  0  0
 18 39  1  0  0  0  0
 19 20  1  0  0  0  0
 20 21  1  0  0  0  0
 20 22  2  0  0  0  0
M  CHG  1  21  -1
M  END
$$$$
