HTS1710-02594451-01
 OpenBabel03232612353D

 35 36  0  0  1  0  0  0  0  0999 V2000
    3.0632  -10.6625  -32.5359 N   0  0  0  0  0  0  0  0  0  0  0  0
    3.0699  -11.9076  -33.1550 C   0  0  0  0  0  0  0  0  0  0  0  0
    2.2371   -9.7219  -33.1515 C   0  0  0  0  0  0  0  0  0  0  0  0
    1.6087  -10.3154  -34.3577 C   0  0  0  0  0  0  0  0  0  0  0  0
    1.9785  -12.0150  -34.5652 S   0  0  0  0  0  0  0  0  0  0  0  0
    3.8821  -10.3228  -31.3392 C   0  0  2  0  0  0  0  0  0  0  0  0
    3.0339  -10.3210  -30.0328 C   0  0  0  0  0  0  0  0  0  0  0  0
    0.7582   -9.6845  -35.2419 C   0  0  0  0  0  0  0  0  0  0  0  0
    4.6883   -9.0262  -31.5856 C   0  0  0  0  0  0  0  0  0  0  0  0
    4.0228  -13.2176  -32.7208 S   0  0  0  0  0  0  0  0  0  0  0  0
    3.8911  -10.0533  -28.7869 C   0  0  0  0  0  0  0  0  0  0  0  0
    2.0379   -8.6029  -32.7138 O   0  0  0  0  0  0  0  0  0  0  0  0
    0.1958   -8.3126  -35.4301 C   0  0  0  0  0  0  0  0  0  0  0  0
    5.5315   -9.0271  -32.4673 O   0  5  0  0  0  0  0  0  0  0  0  0
    4.7464  -10.8768  -28.5086 O   0  5  0  0  0  0  0  0  0  0  0  0
   -0.4616   -7.7049  -34.3391 C   0  0  0  0  0  0  0  0  0  0  0  0
    4.4212   -8.0706  -30.8766 O   0  0  0  0  0  0  0  0  0  0  0  0
    3.6466   -9.0448  -28.1484 O   0  0  0  0  0  0  0  0  0  0  0  0
   -1.0242   -6.4157  -34.4608 C   0  0  0  0  0  0  0  0  0  0  0  0
   -1.6605   -5.7842  -33.4079 O   0  0  0  0  0  0  0  0  0  0  0  0
   -0.3325   -6.3507  -36.7886 C   0  0  0  0  0  0  0  0  0  0  0  0
    0.2256   -7.6320  -36.6645 C   0  0  0  0  0  0  0  0  0  0  0  0
   -0.9467   -5.7393  -35.6872 C   0  0  0  0  0  0  0  0  0  0  0  0
   -1.9397   -6.4334  -32.1561 C   0  0  0  0  0  0  0  0  0  0  0  0
    4.6060  -11.0951  -31.1824 H   0  0  0  0  0  0  0  0  0  0  0  0
    2.5608  -11.2749  -29.9274 H   0  0  0  0  0  0  0  0  0  0  0  0
    2.3116   -9.5354  -30.1104 H   0  0  0  0  0  0  0  0  0  0  0  0
    0.4193  -10.3344  -35.9684 H   0  0  0  0  0  0  0  0  0  0  0  0
   -0.5318   -8.2090  -33.4414 H   0  0  0  0  0  0  0  0  0  0  0  0
   -0.2907   -5.8569  -37.6938 H   0  0  0  0  0  0  0  0  0  0  0  0
    0.6624   -8.0806  -37.4848 H   0  0  0  0  0  0  0  0  0  0  0  0
   -1.3422   -4.7906  -35.7786 H   0  0  0  0  0  0  0  0  0  0  0  0
   -2.4353   -5.7475  -31.5014 H   0  0  0  0  0  0  0  0  0  0  0  0
   -1.0223   -6.7543  -31.7085 H   0  0  0  0  0  0  0  0  0  0  0  0
   -2.5692   -7.2817  -32.3269 H   0  0  0  0  0  0  0  0  0  0  0  0
  1  2  1  0  0  0  0
  1  3  1  0  0  0  0
  1  6  1  0  0  0  0
  2  5  1  0  0  0  0
  2 10  2  0  0  0  0
  3  4  1  0  0  0  0
  3 12  2  0  0  0  0
  4  5  1  0  0  0  0
  4  8  2  0  0  0  0
  6  7  1  0  0  0  0
  6  9  1  0  0  0  0
  6 25  1  1  0  0  0
  7 11  1  0  0  0  0
  7 26  1  0  0  0  0
  7 27  1  0  0  0  0
  8 13  1  0  0  0  0
  8 28  1  0  0  0  0
  9 14  1  0  0  0  0
  9 17  2  0  0  0  0
 11 15  1  0  0  0  0
 11 18  2  0  0  0  0
 13 16  2  0  0  0  0
 13 22  1  0  0  0  0
 16 19  1  0  0  0  0
 16 29  1  0  0  0  0
 19 20  1  0  0  0  0
 19 23  2  0  0  0  0
 20 24  1  0  0  0  0
 21 22  2  0  0  0  0
 21 23  1  0  0  0  0
 21 30  1  0  0  0  0
 22 31  1  0  0  0  0
 23 32  1  0  0  0  0
 24 33  1  0  0  0  0
 24 34  1  0  0  0  0
 24 35  1  0  0  0  0
M  CHG  2  14  -1  15  -1
M  END
$$$$
