HTS1710-02483122-01
 OpenBabel03232612353D

 46 48  0  0  1  0  0  0  0  0999 V2000
    5.8516   -7.6859  -33.5453 C   0  0  0  0  0  0  0  0  0  0  0  0
    5.2541   -7.5669  -32.3030 C   0  0  0  0  0  0  0  0  0  0  0  0
    4.6177   -9.9892  -32.5096 C   0  0  0  0  0  0  0  0  0  0  0  0
    5.2551   -9.9742  -33.7197 C   0  0  0  0  0  0  0  0  0  0  0  0
    4.4039   -8.6776  -31.7513 C   0  0  2  0  0  0  0  0  0  0  0  0
    5.7554   -8.8343  -34.2950 O   0  0  0  0  0  0  0  0  0  0  0  0
    6.6171   -6.5712  -34.1198 C   0  0  0  0  0  0  0  0  0  0  0  0
    5.3336   -6.4384  -31.5097 O   0  0  0  0  0  0  0  0  0  0  0  0
    6.6716   -5.3980  -33.2499 C   0  0  0  0  0  0  0  0  0  0  0  0
    2.9273   -8.2831  -31.7700 C   0  0  0  0  0  0  0  0  0  0  0  0
    4.0350  -11.2064  -31.8032 C   0  0  0  0  0  0  0  0  0  0  0  0
    6.0522   -5.3793  -32.0202 C   0  0  0  0  0  0  0  0  0  0  0  0
    2.0752   -8.7641  -32.7821 C   0  0  0  0  0  0  0  0  0  0  0  0
    5.4534  -11.1101  -34.4696 N   0  0  0  0  0  0  0  0  0  0  0  0
    7.1567   -6.6135  -35.2118 O   0  0  0  0  0  0  0  0  0  0  0  0
    3.9173  -12.2900  -32.3537 O   0  0  0  0  0  0  0  0  0  0  0  0
    3.6592  -10.9901  -30.5042 O   0  0  0  0  0  0  0  0  0  0  0  0
    0.7133   -8.4219  -32.7966 C   0  0  0  0  0  0  0  0  0  0  0  0
    2.4015   -7.4435  -30.7693 C   0  0  0  0  0  0  0  0  0  0  0  0
    6.1372   -4.1462  -31.1581 C   0  0  0  0  0  0  0  0  0  0  0  0
   -0.0762   -8.9299  -33.8108 O   0  0  0  0  0  0  0  0  0  0  0  0
    4.9980   -4.0365  -30.3109 O   0  0  0  0  0  0  0  0  0  0  0  0
    1.0412   -7.0972  -30.7787 C   0  0  0  0  0  0  0  0  0  0  0  0
    0.1946   -7.5833  -31.7873 C   0  0  0  0  0  0  0  0  0  0  0  0
    3.0394  -12.0362  -29.7259 C   0  0  0  0  0  0  0  0  0  0  0  0
    0.4446   -9.7458  -34.8753 C   0  0  0  0  0  0  0  0  0  0  0  0
    2.8384  -11.5483  -28.2727 C   0  0  0  0  0  0  0  0  0  0  0  0
    4.7063   -8.8392  -30.7377 H   0  0  0  0  0  0  0  0  0  0  0  0
    7.1877   -4.5619  -33.5655 H   0  0  0  0  0  0  0  0  0  0  0  0
    2.4557   -9.3750  -33.5218 H   0  0  0  0  0  0  0  0  0  0  0  0
    5.7774  -11.0378  -35.3965 H   0  0  0  0  0  0  0  0  0  0  0  0
    5.2714  -11.9955  -34.0795 H   0  0  0  0  0  0  0  0  0  0  0  0
    3.0187   -7.0812  -30.0258 H   0  0  0  0  0  0  0  0  0  0  0  0
    6.1899   -3.2823  -31.7873 H   0  0  0  0  0  0  0  0  0  0  0  0
    7.0118   -4.2178  -30.5459 H   0  0  0  0  0  0  0  0  0  0  0  0
    5.0533   -3.2141  -29.7995 H   0  0  0  0  0  0  0  0  0  0  0  0
    0.6620   -6.4829  -30.0413 H   0  0  0  0  0  0  0  0  0  0  0  0
   -0.8053   -7.3279  -31.7907 H   0  0  0  0  0  0  0  0  0  0  0  0
    3.6681  -12.9020  -29.7276 H   0  0  0  0  0  0  0  0  0  0  0  0
    2.0901  -12.2835  -30.1533 H   0  0  0  0  0  0  0  0  0  0  0  0
   -0.3506  -10.0187  -35.5373 H   0  0  0  0  0  0  0  0  0  0  0  0
    0.8855  -10.6298  -34.4641 H   0  0  0  0  0  0  0  0  0  0  0  0
    1.1860   -9.1958  -35.4162 H   0  0  0  0  0  0  0  0  0  0  0  0
    3.7876  -11.3009  -27.8450 H   0  0  0  0  0  0  0  0  0  0  0  0
    2.3788  -12.3239  -27.6964 H   0  0  0  0  0  0  0  0  0  0  0  0
    2.2099  -10.6824  -28.2708 H   0  0  0  0  0  0  0  0  0  0  0  0
  1  2  2  0  0  0  0
  1  6  1  0  0  0  0
  1  7  1  0  0  0  0
  2  5  1  0  0  0  0
  2  8  1  0  0  0  0
  3  4  2  0  0  0  0
  3  5  1  0  0  0  0
  3 11  1  0  0  0  0
  4  6  1  0  0  0  0
  4 14  1  0  0  0  0
  5 10  1  0  0  0  0
  5 28  1  1  0  0  0
  7  9  1  0  0  0  0
  7 15  2  0  0  0  0
  8 12  1  0  0  0  0
  9 12  2  0  0  0  0
  9 29  1  0  0  0  0
 10 13  2  0  0  0  0
 10 19  1  0  0  0  0
 11 16  2  0  0  0  0
 11 17  1  0  0  0  0
 12 20  1  0  0  0  0
 13 18  1  0  0  0  0
 13 30  1  0  0  0  0
 14 31  1  0  0  0  0
 14 32  1  0  0  0  0
 17 25  1  0  0  0  0
 18 21  1  0  0  0  0
 18 24  2  0  0  0  0
 19 23  2  0  0  0  0
 19 33  1  0  0  0  0
 20 22  1  0  0  0  0
 20 34  1  0  0  0  0
 20 35  1  0  0  0  0
 21 26  1  0  0  0  0
 22 36  1  0  0  0  0
 23 24  1  0  0  0  0
 23 37  1  0  0  0  0
 24 38  1  0  0  0  0
 25 27  1  0  0  0  0
 25 39  1  0  0  0  0
 25 40  1  0  0  0  0
 26 41  1  0  0  0  0
 26 42  1  0  0  0  0
 26 43  1  0  0  0  0
 27 44  1  0  0  0  0
 27 45  1  0  0  0  0
 27 46  1  0  0  0  0
M  END
$$$$
