HTS1710-00109905-01
 OpenBabel03232612353D

 38 39  0  0  1  0  0  0  0  0999 V2000
    2.9700  -11.2168  -30.0670 C   0  0  1  0  0  0  0  0  0  0  0  0
    3.4790  -10.6412  -31.4252 C   0  0  2  0  0  0  0  0  0  0  0  0
    3.9738  -12.1165  -29.5347 O   0  0  0  0  0  0  0  0  0  0  0  0
    3.7131  -11.7511  -32.3245 O   0  0  0  0  0  0  0  0  0  0  0  0
    3.6428  -13.3465  -29.0347 C   0  0  0  0  0  0  0  0  0  0  0  0
    2.7836  -12.0924  -33.2683 C   0  0  0  0  0  0  0  0  0  0  0  0
    4.7384   -9.7647  -31.2559 C   0  0  0  0  0  0  0  0  0  0  0  0
    2.6778  -10.1144  -29.0292 C   0  0  0  0  0  0  0  0  0  0  0  0
    2.5273  -13.8364  -29.1079 O   0  0  0  0  0  0  0  0  0  0  0  0
    1.9606  -12.9823  -33.1236 O   0  0  0  0  0  0  0  0  0  0  0  0
    2.8786  -11.2666  -34.5272 C   0  0  0  0  0  0  0  0  0  0  0  0
    4.7974  -14.0472  -28.3588 C   0  0  0  0  0  0  0  0  0  0  0  0
    5.1371   -9.5355  -30.1254 O   0  5  0  0  0  0  0  0  0  0  0  0
    2.3077   -9.0358  -29.4611 O   0  5  0  0  0  0  0  0  0  0  0  0
    5.2902   -9.4010  -32.2801 O   0  0  0  0  0  0  0  0  0  0  0  0
    2.7424  -10.4093  -27.8471 O   0  0  0  0  0  0  0  0  0  0  0  0
    4.1046  -11.1824  -35.2210 C   0  0  0  0  0  0  0  0  0  0  0  0
    1.7615  -10.5628  -35.0322 C   0  0  0  0  0  0  0  0  0  0  0  0
    5.9074  -13.3258  -27.8632 C   0  0  0  0  0  0  0  0  0  0  0  0
    4.7762  -15.4493  -28.2078 C   0  0  0  0  0  0  0  0  0  0  0  0
    4.2132  -10.4141  -36.3903 C   0  0  0  0  0  0  0  0  0  0  0  0
    1.8737   -9.7950  -36.2034 C   0  0  0  0  0  0  0  0  0  0  0  0
    6.9665  -13.9955  -27.2297 C   0  0  0  0  0  0  0  0  0  0  0  0
    5.8370  -16.1164  -27.5731 C   0  0  0  0  0  0  0  0  0  0  0  0
    6.9323  -15.3895  -27.0828 C   0  0  0  0  0  0  0  0  0  0  0  0
    3.0983   -9.7199  -36.8828 C   0  0  0  0  0  0  0  0  0  0  0  0
    2.0503  -11.7302  -30.2555 H   0  0  0  0  0  0  0  0  0  0  0  0
    2.7341   -9.9918  -31.8355 H   0  0  0  0  0  0  0  0  0  0  0  0
    4.9292  -11.6906  -34.8650 H   0  0  0  0  0  0  0  0  0  0  0  0
    0.8573  -10.6134  -34.5371 H   0  0  0  0  0  0  0  0  0  0  0  0
    5.9395  -12.2996  -27.9677 H   0  0  0  0  0  0  0  0  0  0  0  0
    3.9740  -15.9900  -28.5670 H   0  0  0  0  0  0  0  0  0  0  0  0
    5.1152  -10.3599  -36.8889 H   0  0  0  0  0  0  0  0  0  0  0  0
    1.0527   -9.2847  -36.5649 H   0  0  0  0  0  0  0  0  0  0  0  0
    7.7726  -13.4600  -26.8712 H   0  0  0  0  0  0  0  0  0  0  0  0
    5.8107  -17.1427  -27.4673 H   0  0  0  0  0  0  0  0  0  0  0  0
    7.7109  -15.8796  -26.6152 H   0  0  0  0  0  0  0  0  0  0  0  0
    3.1790   -9.1554  -37.7429 H   0  0  0  0  0  0  0  0  0  0  0  0
  1  2  1  0  0  0  0
  1  3  1  0  0  0  0
  1  8  1  0  0  0  0
  1 27  1  6  0  0  0
  2  4  1  0  0  0  0
  2  7  1  0  0  0  0
  2 28  1  6  0  0  0
  3  5  1  0  0  0  0
  4  6  1  0  0  0  0
  5  9  2  0  0  0  0
  5 12  1  0  0  0  0
  6 10  2  0  0  0  0
  6 11  1  0  0  0  0
  7 13  1  0  0  0  0
  7 15  2  0  0  0  0
  8 14  1  0  0  0  0
  8 16  2  0  0  0  0
 11 17  2  0  0  0  0
 11 18  1  0  0  0  0
 12 19  2  0  0  0  0
 12 20  1  0  0  0  0
 17 21  1  0  0  0  0
 17 29  1  0  0  0  0
 18 22  2  0  0  0  0
 18 30  1  0  0  0  0
 19 23  1  0  0  0  0
 19 31  1  0  0  0  0
 20 24  2  0  0  0  0
 20 32  1  0  0  0  0
 21 26  2  0  0  0  0
 21 33  1  0  0  0  0
 22 26  1  0  0  0  0
 22 34  1  0  0  0  0
 23 25  2  0  0  0  0
 23 35  1  0  0  0  0
 24 25  1  0  0  0  0
 24 36  1  0  0  0  0
 25 37  1  0  0  0  0
 26 38  1  0  0  0  0
M  CHG  2  13  -1  14  -1
M  END
$$$$
