HTS1710-00499127-01
 OpenBabel03232612353D

 39 40  0  0  1  0  0  0  0  0999 V2000
    3.3879   -9.3288  -33.1522 N   0  0  0  0  0  0  0  0  0  0  0  0
    2.1999   -8.7995  -33.6544 C   0  0  0  0  0  0  0  0  0  0  0  0
    3.8206   -9.0939  -31.7466 C   0  0  2  0  0  0  0  0  0  0  0  0
    4.1311  -10.0393  -34.0882 C   0  0  0  0  0  0  0  0  0  0  0  0
    2.0409   -9.1595  -35.0826 C   0  0  0  0  0  0  0  0  0  0  0  0
    1.4099   -8.1359  -33.0013 O   0  0  0  0  0  0  0  0  0  0  0  0
    2.7790   -9.6259  -30.7183 C   0  0  0  0  0  0  0  0  0  0  0  0
    4.2221   -7.6145  -31.5431 C   0  0  0  0  0  0  0  0  0  0  0  0
    3.3662  -10.1225  -35.7007 S   0  0  0  0  0  0  0  0  0  0  0  0
    5.6465  -10.7123  -33.8372 S   0  0  0  0  0  0  0  0  0  0  0  0
    0.9439   -8.7443  -35.8106 C   0  0  0  0  0  0  0  0  0  0  0  0
    3.2882   -9.5225  -29.2732 C   0  0  0  0  0  0  0  0  0  0  0  0
    5.4114   -7.3551  -31.6097 O   0  5  0  0  0  0  0  0  0  0  0  0
    3.3413   -6.7989  -31.3241 O   0  0  0  0  0  0  0  0  0  0  0  0
   -0.2901   -7.9415  -35.5399 C   0  0  0  0  0  0  0  0  0  0  0  0
    3.8901  -10.4830  -28.8258 O   0  5  0  0  0  0  0  0  0  0  0  0
    3.0752   -8.4810  -28.6771 O   0  0  0  0  0  0  0  0  0  0  0  0
   -0.5088   -6.7813  -36.3128 C   0  0  0  0  0  0  0  0  0  0  0  0
   -1.2393   -8.2834  -34.5548 C   0  0  0  0  0  0  0  0  0  0  0  0
   -1.6534   -5.9786  -36.1142 C   0  0  0  0  0  0  0  0  0  0  0  0
   -2.3771   -7.4877  -34.3510 C   0  0  0  0  0  0  0  0  0  0  0  0
   -2.5869   -6.3393  -35.1269 C   0  0  0  0  0  0  0  0  0  0  0  0
   -1.8914   -4.8401  -36.8645 O   0  0  0  0  0  0  0  0  0  0  0  0
   -3.6998   -5.5747  -34.9176 O   0  0  0  0  0  0  0  0  0  0  0  0
   -1.1288   -4.4938  -38.0345 C   0  0  0  0  0  0  0  0  0  0  0  0
   -1.5213   -3.0649  -38.4548 C   0  0  0  0  0  0  0  0  0  0  0  0
    4.7018   -9.6699  -31.5553 H   0  0  0  0  0  0  0  0  0  0  0  0
    2.5706  -10.6522  -30.9380 H   0  0  0  0  0  0  0  0  0  0  0  0
    1.8981   -9.0243  -30.8008 H   0  0  0  0  0  0  0  0  0  0  0  0
    0.9851   -9.0697  -36.7891 H   0  0  0  0  0  0  0  0  0  0  0  0
    0.1789   -6.5151  -37.0347 H   0  0  0  0  0  0  0  0  0  0  0  0
   -1.0960   -9.1271  -33.9780 H   0  0  0  0  0  0  0  0  0  0  0  0
   -3.0631   -7.7495  -33.6258 H   0  0  0  0  0  0  0  0  0  0  0  0
   -3.8456   -4.8078  -35.4357 H   0  0  0  0  0  0  0  0  0  0  0  0
   -1.3489   -5.1784  -38.8269 H   0  0  0  0  0  0  0  0  0  0  0  0
   -0.0811   -4.5437  -37.8228 H   0  0  0  0  0  0  0  0  0  0  0  0
   -2.5702   -3.0298  -38.6633 H   0  0  0  0  0  0  0  0  0  0  0  0
   -0.9739   -2.7880  -39.3316 H   0  0  0  0  0  0  0  0  0  0  0  0
   -1.2922   -2.3842  -37.6616 H   0  0  0  0  0  0  0  0  0  0  0  0
  1  2  1  0  0  0  0
  1  3  1  0  0  0  0
  1  4  1  0  0  0  0
  2  5  1  0  0  0  0
  2  6  2  0  0  0  0
  3  7  1  0  0  0  0
  3  8  1  0  0  0  0
  3 27  1  1  0  0  0
  4  9  1  0  0  0  0
  4 10  2  0  0  0  0
  5 11  2  0  0  0  0
  5  9  1  0  0  0  0
  7 12  1  0  0  0  0
  7 28  1  0  0  0  0
  7 29  1  0  0  0  0
  8 13  1  0  0  0  0
  8 14  2  0  0  0  0
 11 15  1  0  0  0  0
 11 30  1  0  0  0  0
 12 16  1  0  0  0  0
 12 17  2  0  0  0  0
 15 18  2  0  0  0  0
 15 19  1  0  0  0  0
 18 20  1  0  0  0  0
 18 31  1  0  0  0  0
 19 21  2  0  0  0  0
 19 32  1  0  0  0  0
 20 22  2  0  0  0  0
 20 23  1  0  0  0  0
 21 22  1  0  0  0  0
 21 33  1  0  0  0  0
 22 24  1  0  0  0  0
 23 25  1  0  0  0  0
 24 34  1  0  0  0  0
 25 26  1  0  0  0  0
 25 35  1  0  0  0  0
 25 36  1  0  0  0  0
 26 37  1  0  0  0  0
 26 38  1  0  0  0  0
 26 39  1  0  0  0  0
M  CHG  2  13  -1  16  -1
M  END
$$$$
