HTS1710-01271471-01
 OpenBabel03232612353D

 43 44  0  0  1  0  0  0  0  0999 V2000
    3.8365  -10.8008  -31.9348 C   0  0  0  0  0  0  0  0  0  0  0  0
    3.1437  -12.0256  -32.4252 C   0  0  0  0  0  0  0  0  0  0  0  0
    2.9291  -13.0071  -31.4544 N   0  0  0  0  0  0  0  0  0  0  0  0
    4.2629  -10.6375  -30.6226 C   0  0  0  0  0  0  0  0  0  0  0  0
    4.0547   -9.6653  -32.9448 C   0  0  2  0  0  0  0  0  0  0  0  0
    3.9999  -11.7014  -29.6968 C   0  0  0  0  0  0  0  0  0  0  0  0
    3.3413  -12.8372  -30.1256 C   0  0  0  0  0  0  0  0  0  0  0  0
    2.7389   -9.2407  -33.6186 C   0  0  0  0  0  0  0  0  0  0  0  0
    2.2457  -14.2646  -31.8766 C   0  0  0  0  0  0  0  0  0  0  0  0
    1.7993   -8.5268  -32.8490 C   0  0  0  0  0  0  0  0  0  0  0  0
    0.5761   -8.1175  -33.4053 C   0  0  0  0  0  0  0  0  0  0  0  0
    2.7860  -12.1632  -33.5854 O   0  0  0  0  0  0  0  0  0  0  0  0
    5.2269   -9.9897  -33.9206 C   0  0  0  0  0  0  0  0  0  0  0  0
    0.7315  -14.0479  -32.0091 C   0  0  0  0  0  0  0  0  0  0  0  0
    5.7110   -8.7500  -34.6829 C   0  0  0  0  0  0  0  0  0  0  0  0
    0.2786   -8.4163  -34.7468 C   0  0  0  0  0  0  0  0  0  0  0  0
    2.4306   -9.5353  -34.9654 C   0  0  0  0  0  0  0  0  0  0  0  0
    0.0897  -13.9503  -30.9776 O   0  5  0  0  0  0  0  0  0  0  0  0
    5.4766   -8.5510  -35.8638 O   0  0  0  0  0  0  0  0  0  0  0  0
    4.9002   -9.5378  -30.1661 O   0  5  0  0  0  0  0  0  0  0  0  0
    1.2094   -9.1244  -35.5232 C   0  0  0  0  0  0  0  0  0  0  0  0
   -0.5674   -7.2360  -32.4074 Cl  0  0  0  0  0  0  0  0  0  0  0  0
    0.2688  -13.9967  -33.1352 O   0  0  0  0  0  0  0  0  0  0  0  0
    6.4480   -7.9201  -33.8853 O   0  0  0  0  0  0  0  0  0  0  0  0
    3.0896  -13.9130  -29.0840 C   0  0  0  0  0  0  0  0  0  0  0  0
   -0.9064   -8.0236  -35.3012 O   0  0  0  0  0  0  0  0  0  0  0  0
    6.9653   -6.6935  -34.4298 C   0  0  0  0  0  0  0  0  0  0  0  0
    4.3747   -8.7915  -32.4165 H   0  0  0  0  0  0  0  0  0  0  0  0
    4.3018  -11.6184  -28.7135 H   0  0  0  0  0  0  0  0  0  0  0  0
    2.4282  -15.0246  -31.1459 H   0  0  0  0  0  0  0  0  0  0  0  0
    2.6331  -14.5607  -32.8290 H   0  0  0  0  0  0  0  0  0  0  0  0
    2.0122   -8.3018  -31.8646 H   0  0  0  0  0  0  0  0  0  0  0  0
    4.8933  -10.7199  -34.6280 H   0  0  0  0  0  0  0  0  0  0  0  0
    6.0461  -10.3555  -33.3375 H   0  0  0  0  0  0  0  0  0  0  0  0
    3.1081  -10.0566  -35.5436 H   0  0  0  0  0  0  0  0  0  0  0  0
    0.9951   -9.3440  -36.5086 H   0  0  0  0  0  0  0  0  0  0  0  0
    3.4775  -13.5927  -28.1395 H   0  0  0  0  0  0  0  0  0  0  0  0
    3.5768  -14.8181  -29.3812 H   0  0  0  0  0  0  0  0  0  0  0  0
    2.0373  -14.0862  -28.9972 H   0  0  0  0  0  0  0  0  0  0  0  0
   -1.1410   -8.3149  -36.1604 H   0  0  0  0  0  0  0  0  0  0  0  0
    7.5134   -6.1709  -33.6740 H   0  0  0  0  0  0  0  0  0  0  0  0
    6.1541   -6.0834  -34.7683 H   0  0  0  0  0  0  0  0  0  0  0  0
    7.6132   -6.9137  -35.2524 H   0  0  0  0  0  0  0  0  0  0  0  0
  1  2  1  0  0  0  0
  1  4  2  0  0  0  0
  1  5  1  0  0  0  0
  2  3  1  0  0  0  0
  2 12  2  0  0  0  0
  3  9  1  0  0  0  0
  3  7  1  0  0  0  0
  4  6  1  0  0  0  0
  4 20  1  0  0  0  0
  5  8  1  0  0  0  0
  5 13  1  0  0  0  0
  5 28  1  1  0  0  0
  6  7  2  0  0  0  0
  6 29  1  0  0  0  0
  7 25  1  0  0  0  0
  8 10  2  0  0  0  0
  8 17  1  0  0  0  0
  9 14  1  0  0  0  0
  9 30  1  0  0  0  0
  9 31  1  0  0  0  0
 10 11  1  0  0  0  0
 10 32  1  0  0  0  0
 11 22  1  0  0  0  0
 11 16  2  0  0  0  0
 13 15  1  0  0  0  0
 13 33  1  0  0  0  0
 13 34  1  0  0  0  0
 14 18  1  0  0  0  0
 14 23  2  0  0  0  0
 15 19  2  0  0  0  0
 15 24  1  0  0  0  0
 16 21  1  0  0  0  0
 16 26  1  0  0  0  0
 17 21  2  0  0  0  0
 17 35  1  0  0  0  0
 21 36  1  0  0  0  0
 24 27  1  0  0  0  0
 25 37  1  0  0  0  0
 25 38  1  0  0  0  0
 25 39  1  0  0  0  0
 26 40  1  0  0  0  0
 27 41  1  0  0  0  0
 27 42  1  0  0  0  0
 27 43  1  0  0  0  0
M  CHG  2  18  -1  20  -1
M  END
$$$$
