HTS1710-02663795-01
 OpenBabel03232612343D

 26 27  0  0  0  0  0  0  0  0999 V2000
    4.3824  -10.0212  -30.6316 C   0  0  0  0  0  0  0  0  0  0  0  0
    4.3665  -10.5741  -32.7208 C   0  0  0  0  0  0  0  0  0  0  0  0
    4.9538   -8.9749  -31.3113 C   0  0  0  0  0  0  0  0  0  0  0  0
    4.9594   -9.3421  -32.6564 C   0  0  0  0  0  0  0  0  0  0  0  0
    3.9907  -11.0474  -31.4767 O   0  0  0  0  0  0  0  0  0  0  0  0
    4.1600  -10.1104  -29.1684 C   0  0  0  0  0  0  0  0  0  0  0  0
    4.1352  -11.3616  -33.9484 C   0  0  0  0  0  0  0  0  0  0  0  0
    5.4462   -7.7727  -30.8876 O   0  0  0  0  0  0  0  0  0  0  0  0
    5.4818   -8.5401  -33.6314 O   0  0  0  0  0  0  0  0  0  0  0  0
    3.3375   -9.3625  -28.6668 O   0  5  0  0  0  0  0  0  0  0  0  0
    4.4918  -12.5222  -34.0751 O   0  0  0  0  0  0  0  0  0  0  0  0
    4.8155  -10.9301  -28.5496 O   0  0  0  0  0  0  0  0  0  0  0  0
    3.4870  -10.6626  -34.9311 O   0  0  0  0  0  0  0  0  0  0  0  0
    6.3109   -7.4399  -33.1794 C   0  0  0  0  0  0  0  0  0  0  0  0
    5.6762   -6.7730  -31.9150 C   0  0  0  0  0  0  0  0  0  0  0  0
    2.6623  -11.3675  -35.8768 C   0  0  0  0  0  0  0  0  0  0  0  0
    1.3612  -11.7842  -35.1667 C   0  0  0  0  0  0  0  0  0  0  0  0
    6.3910   -6.7129  -33.9604 H   0  0  0  0  0  0  0  0  0  0  0  0
    7.2818   -7.8130  -32.9285 H   0  0  0  0  0  0  0  0  0  0  0  0
    6.3412   -6.0243  -31.5380 H   0  0  0  0  0  0  0  0  0  0  0  0
    4.7422   -6.3266  -32.1855 H   0  0  0  0  0  0  0  0  0  0  0  0
    3.1771  -12.2371  -36.2283 H   0  0  0  0  0  0  0  0  0  0  0  0
    2.4406  -10.7386  -36.7135 H   0  0  0  0  0  0  0  0  0  0  0  0
    1.5954  -12.4122  -34.3326 H   0  0  0  0  0  0  0  0  0  0  0  0
    0.7367  -12.3189  -35.8515 H   0  0  0  0  0  0  0  0  0  0  0  0
    0.8473  -10.9110  -34.8226 H   0  0  0  0  0  0  0  0  0  0  0  0
  1  3  2  0  0  0  0
  1  5  1  0  0  0  0
  1  6  1  0  0  0  0
  2  4  2  0  0  0  0
  2  5  1  0  0  0  0
  2  7  1  0  0  0  0
  3  4  1  0  0  0  0
  3  8  1  0  0  0  0
  4  9  1  0  0  0  0
  6 10  1  0  0  0  0
  6 12  2  0  0  0  0
  7 11  2  0  0  0  0
  7 13  1  0  0  0  0
  8 15  1  0  0  0  0
  9 14  1  0  0  0  0
 13 16  1  0  0  0  0
 14 15  1  0  0  0  0
 14 18  1  0  0  0  0
 14 19  1  0  0  0  0
 15 20  1  0  0  0  0
 15 21  1  0  0  0  0
 16 17  1  0  0  0  0
 16 22  1  0  0  0  0
 16 23  1  0  0  0  0
 17 24  1  0  0  0  0
 17 25  1  0  0  0  0
 17 26  1  0  0  0  0
M  CHG  1  10  -1
M  END
$$$$
