HTS1710-00156649-01
 OpenBabel03232612363D

 43 44  0  0  1  0  0  0  0  0999 V2000
    3.3136   -9.6474  -32.0338 C   0  0  2  0  0  0  0  0  0  0  0  0
    4.4157   -9.6261  -33.0382 N   0  0  0  0  0  0  0  0  0  0  0  0
    3.6208   -8.4119  -31.1846 C   0  0  0  0  0  0  0  0  0  0  0  0
    3.2825  -10.9242  -31.1957 C   0  0  0  0  0  0  0  0  0  0  0  0
    5.3070   -8.5963  -32.7917 C   0  0  0  0  0  0  0  0  0  0  0  0
    4.6469  -10.7215  -34.0072 C   0  0  0  0  0  0  0  0  0  0  0  0
    4.7459   -7.8456  -31.6617 C   0  0  0  0  0  0  0  0  0  0  0  0
    2.6292   -7.9177  -30.1801 C   0  0  0  0  0  0  0  0  0  0  0  0
    4.1749  -11.0840  -30.1213 C   0  0  0  0  0  0  0  0  0  0  0  0
    2.3738  -11.9575  -31.4917 C   0  0  0  0  0  0  0  0  0  0  0  0
    6.3389   -8.3678  -33.3992 O   0  0  0  0  0  0  0  0  0  0  0  0
    3.6242  -10.8013  -35.1699 C   0  0  0  0  0  0  0  0  0  0  0  0
    5.3410   -6.7115  -31.2227 O   0  5  0  0  0  0  0  0  0  0  0  0
    1.5752   -6.9329  -30.6937 C   0  0  0  0  0  0  0  0  0  0  0  0
    2.5575   -8.3844  -29.0571 O   0  0  0  0  0  0  0  0  0  0  0  0
    4.1573  -12.2570  -29.3505 C   0  0  0  0  0  0  0  0  0  0  0  0
    2.3512  -13.1278  -30.7184 C   0  0  0  0  0  0  0  0  0  0  0  0
    3.7603   -9.6374  -36.1604 C   0  0  0  0  0  0  0  0  0  0  0  0
    3.2453  -13.2893  -29.6417 C   0  0  0  0  0  0  0  0  0  0  0  0
    4.8670   -9.1438  -36.2890 O   0  5  0  0  0  0  0  0  0  0  0  0
    2.7581   -9.2930  -36.7617 O   0  0  0  0  0  0  0  0  0  0  0  0
    3.2326  -14.5639  -28.7930 C   0  0  0  0  0  0  0  0  0  0  0  0
    2.1181  -14.5230  -27.7193 C   0  0  0  0  0  0  0  0  0  0  0  0
    4.6135  -14.8228  -28.1458 C   0  0  0  0  0  0  0  0  0  0  0  0
    2.3445   -9.6323  -32.4870 H   0  0  0  0  0  0  0  0  0  0  0  0
    4.6139  -11.6481  -33.4732 H   0  0  0  0  0  0  0  0  0  0  0  0
    5.5958  -10.5222  -34.4596 H   0  0  0  0  0  0  0  0  0  0  0  0
    4.8476  -10.3339  -29.8978 H   0  0  0  0  0  0  0  0  0  0  0  0
    1.7196  -11.8534  -32.2829 H   0  0  0  0  0  0  0  0  0  0  0  0
    2.6365  -10.7868  -34.7586 H   0  0  0  0  0  0  0  0  0  0  0  0
    3.8163  -11.7065  -35.7071 H   0  0  0  0  0  0  0  0  0  0  0  0
    1.8163   -6.6426  -31.6949 H   0  0  0  0  0  0  0  0  0  0  0  0
    1.5598   -6.0671  -30.0651 H   0  0  0  0  0  0  0  0  0  0  0  0
    0.6130   -7.4009  -30.6799 H   0  0  0  0  0  0  0  0  0  0  0  0
    4.8176  -12.3635  -28.5645 H   0  0  0  0  0  0  0  0  0  0  0  0
    1.6751  -13.8754  -30.9398 H   0  0  0  0  0  0  0  0  0  0  0  0
    3.0189  -15.3798  -29.4513 H   0  0  0  0  0  0  0  0  0  0  0  0
    2.3038  -13.7148  -27.0431 H   0  0  0  0  0  0  0  0  0  0  0  0
    2.1102  -15.4460  -27.1781 H   0  0  0  0  0  0  0  0  0  0  0  0
    1.1702  -14.3800  -28.1944 H   0  0  0  0  0  0  0  0  0  0  0  0
    4.8521  -14.0191  -27.4808 H   0  0  0  0  0  0  0  0  0  0  0  0
    5.3594  -14.8866  -28.9103 H   0  0  0  0  0  0  0  0  0  0  0  0
    4.5842  -15.7418  -27.5985 H   0  0  0  0  0  0  0  0  0  0  0  0
  1  2  1  0  0  0  0
  1  3  1  0  0  0  0
  1  4  1  0  0  0  0
  1 25  1  6  0  0  0
  2  5  1  0  0  0  0
  2  6  1  0  0  0  0
  3  7  2  0  0  0  0
  3  8  1  0  0  0  0
  4  9  2  0  0  0  0
  4 10  1  0  0  0  0
  5 11  2  0  0  0  0
  5  7  1  0  0  0  0
  6 12  1  0  0  0  0
  6 26  1  0  0  0  0
  6 27  1  0  0  0  0
  7 13  1  0  0  0  0
  8 14  1  0  0  0  0
  8 15  2  0  0  0  0
  9 16  1  0  0  0  0
  9 28  1  0  0  0  0
 10 17  2  0  0  0  0
 10 29  1  0  0  0  0
 12 18  1  0  0  0  0
 12 30  1  0  0  0  0
 12 31  1  0  0  0  0
 14 32  1  0  0  0  0
 14 33  1  0  0  0  0
 14 34  1  0  0  0  0
 16 19  2  0  0  0  0
 16 35  1  0  0  0  0
 17 19  1  0  0  0  0
 17 36  1  0  0  0  0
 18 20  1  0  0  0  0
 18 21  2  0  0  0  0
 19 22  1  0  0  0  0
 22 23  1  0  0  0  0
 22 24  1  0  0  0  0
 22 37  1  0  0  0  0
 23 38  1  0  0  0  0
 23 39  1  0  0  0  0
 23 40  1  0  0  0  0
 24 41  1  0  0  0  0
 24 42  1  0  0  0  0
 24 43  1  0  0  0  0
M  CHG  2  13  -1  20  -1
M  END
$$$$
