HTS1710-02007381-01
 OpenBabel03232612353D

 50 50  0  0  0  0  0  0  0  0999 V2000
    0.4565   -8.1705  -33.6547 C   0  0  0  0  0  0  0  0  0  0  0  0
    2.1121  -10.1716  -32.5031 C   0  0  0  0  0  0  0  0  0  0  0  0
    2.0348   -8.8849  -31.9286 C   0  0  0  0  0  0  0  0  0  0  0  0
    0.4863   -9.4754  -34.1931 C   0  0  0  0  0  0  0  0  0  0  0  0
   -0.3329   -7.1411  -34.1679 N   0  0  0  0  0  0  0  0  0  0  0  0
    2.8930  -11.2031  -31.9785 N   0  0  0  0  0  0  0  0  0  0  0  0
    1.2212   -7.8857  -32.5051 C   0  0  0  0  0  0  0  0  0  0  0  0
    1.3122  -10.4692  -33.6250 C   0  0  0  0  0  0  0  0  0  0  0  0
   -0.4872   -6.7880  -35.5062 C   0  0  0  0  0  0  0  0  0  0  0  0
    2.4479  -12.4296  -31.4921 C   0  0  0  0  0  0  0  0  0  0  0  0
   -3.4572   -6.9379  -35.0322 C   0  0  0  0  0  0  0  0  0  0  0  0
    4.0949  -11.7864  -29.0847 C   0  0  0  0  0  0  0  0  0  0  0  0
    1.2627  -12.7125  -31.4569 O   0  0  0  0  0  0  0  0  0  0  0  0
    0.1132   -7.3660  -36.3966 O   0  0  0  0  0  0  0  0  0  0  0  0
   -4.2545   -7.0533  -35.9477 O   0  5  0  0  0  0  0  0  0  0  0  0
    3.0718  -12.1552  -28.5336 O   0  5  0  0  0  0  0  0  0  0  0  0
   -1.4170   -5.6115  -35.8180 C   0  0  0  0  0  0  0  0  0  0  0  0
    3.5065  -13.4025  -30.9650 C   0  0  0  0  0  0  0  0  0  0  0  0
   -2.6883   -5.6149  -34.9343 C   0  0  0  0  0  0  0  0  0  0  0  0
    4.6404  -12.6677  -30.2140 C   0  0  0  0  0  0  0  0  0  0  0  0
    4.7292  -10.7852  -28.8036 O   0  0  0  0  0  0  0  0  0  0  0  0
   -3.2317   -7.7764  -34.1783 O   0  0  0  0  0  0  0  0  0  0  0  0
    1.1373   -6.6131  -31.9609 O   0  0  0  0  0  0  0  0  0  0  0  0
    1.3655  -11.7515  -34.1463 O   0  0  0  0  0  0  0  0  0  0  0  0
    1.5853  -12.0387  -35.5388 C   0  0  0  0  0  0  0  0  0  0  0  0
    0.1459   -6.1919  -31.0020 C   0  0  0  0  0  0  0  0  0  0  0  0
    3.0909  -11.8839  -35.8227 C   0  0  0  0  0  0  0  0  0  0  0  0
    0.5912   -4.8610  -30.3561 C   0  0  0  0  0  0  0  0  0  0  0  0
    2.5789   -8.6722  -31.0779 H   0  0  0  0  0  0  0  0  0  0  0  0
   -0.1013   -9.7047  -35.0098 H   0  0  0  0  0  0  0  0  0  0  0  0
   -0.8359   -6.6058  -33.5124 H   0  0  0  0  0  0  0  0  0  0  0  0
    3.8645  -11.0462  -31.9492 H   0  0  0  0  0  0  0  0  0  0  0  0
   -1.7121   -5.6693  -36.8448 H   0  0  0  0  0  0  0  0  0  0  0  0
   -0.8804   -4.7084  -35.6148 H   0  0  0  0  0  0  0  0  0  0  0  0
    3.9277  -13.9364  -31.7911 H   0  0  0  0  0  0  0  0  0  0  0  0
    3.0308  -14.0700  -30.2771 H   0  0  0  0  0  0  0  0  0  0  0  0
   -2.4006   -5.4580  -33.9157 H   0  0  0  0  0  0  0  0  0  0  0  0
   -3.3321   -4.8339  -35.2814 H   0  0  0  0  0  0  0  0  0  0  0  0
    5.3066  -13.3934  -29.7964 H   0  0  0  0  0  0  0  0  0  0  0  0
    5.1492  -12.0371  -30.9129 H   0  0  0  0  0  0  0  0  0  0  0  0
    1.0290  -11.3532  -36.1435 H   0  0  0  0  0  0  0  0  0  0  0  0
    1.2630  -13.0326  -35.7696 H   0  0  0  0  0  0  0  0  0  0  0  0
    0.0420   -6.9397  -30.2437 H   0  0  0  0  0  0  0  0  0  0  0  0
   -0.7933   -6.0535  -31.4956 H   0  0  0  0  0  0  0  0  0  0  0  0
    3.3975  -10.8861  -35.5873 H   0  0  0  0  0  0  0  0  0  0  0  0
    3.2809  -12.0807  -36.8571 H   0  0  0  0  0  0  0  0  0  0  0  0
    3.6404  -12.5773  -35.2209 H   0  0  0  0  0  0  0  0  0  0  0  0
    1.5303   -5.0006  -29.8629 H   0  0  0  0  0  0  0  0  0  0  0  0
   -0.1428   -4.5472  -29.6436 H   0  0  0  0  0  0  0  0  0  0  0  0
    0.6944   -4.1135  -31.1147 H   0  0  0  0  0  0  0  0  0  0  0  0
  1  4  2  0  0  0  0
  1  5  1  0  0  0  0
  1  7  1  0  0  0  0
  2  3  1  0  0  0  0
  2  6  1  0  0  0  0
  2  8  2  0  0  0  0
  3  7  2  0  0  0  0
  3 29  1  0  0  0  0
  4  8  1  0  0  0  0
  4 30  1  0  0  0  0
  5  9  1  0  0  0  0
  5 31  1  0  0  0  0
  6 10  1  0  0  0  0
  6 32  1  0  0  0  0
  7 23  1  0  0  0  0
  8 24  1  0  0  0  0
  9 14  2  0  0  0  0
  9 17  1  0  0  0  0
 10 13  2  0  0  0  0
 10 18  1  0  0  0  0
 11 15  1  0  0  0  0
 11 19  1  0  0  0  0
 11 22  2  0  0  0  0
 12 16  1  0  0  0  0
 12 20  1  0  0  0  0
 12 21  2  0  0  0  0
 17 19  1  0  0  0  0
 17 33  1  0  0  0  0
 17 34  1  0  0  0  0
 18 20  1  0  0  0  0
 18 35  1  0  0  0  0
 18 36  1  0  0  0  0
 19 37  1  0  0  0  0
 19 38  1  0  0  0  0
 20 39  1  0  0  0  0
 20 40  1  0  0  0  0
 23 26  1  0  0  0  0
 24 25  1  0  0  0  0
 25 27  1  0  0  0  0
 25 41  1  0  0  0  0
 25 42  1  0  0  0  0
 26 28  1  0  0  0  0
 26 43  1  0  0  0  0
 26 44  1  0  0  0  0
 27 45  1  0  0  0  0
 27 46  1  0  0  0  0
 27 47  1  0  0  0  0
 28 48  1  0  0  0  0
 28 49  1  0  0  0  0
 28 50  1  0  0  0  0
M  CHG  2  15  -1  16  -1
M  END
$$$$
