HTS1710-05399061-01
 OpenBabel03232612353D

 42 43  0  0  1  0  0  0  0  0999 V2000
    2.1856  -14.7938  -29.0084 C   0  0  0  0  0  0  0  0  0  0  0  0
    3.5529  -14.2588  -29.0746 N   0  0  0  0  0  0  0  0  0  0  0  0
    3.8644  -12.7779  -28.2965 S   0  0  0  0  0  0  0  0  0  0  0  0
    5.3080  -12.7793  -28.0411 O   0  0  0  0  0  0  0  0  0  0  0  0
    2.8554  -12.7164  -27.2354 O   0  0  0  0  0  0  0  0  0  0  0  0
    3.4754  -11.5164  -29.5046 C   0  0  0  0  0  0  0  0  0  0  0  0
    2.7682  -11.7226  -30.6601 C   0  0  0  0  0  0  0  0  0  0  0  0
    2.6631  -10.4503  -31.2871 C   0  0  0  0  0  0  0  0  0  0  0  0
    1.9313  -10.0927  -32.5342 C   0  0  0  0  0  0  0  0  0  0  0  0
    0.8173   -9.5959  -32.5225 O   0  0  0  0  0  0  0  0  0  0  0  0
    2.5802  -10.4166  -33.7284 N   0  0  0  0  0  0  0  0  0  0  0  0
    3.9101  -11.0731  -33.6812 C   0  0  0  0  0  0  0  0  0  0  0  0
    4.8197  -10.6846  -34.8830 C   0  0  1  0  0  0  0  0  0  0  0  0
    4.0835  -10.9123  -36.2260 C   0  0  0  0  0  0  0  0  0  0  0  0
    2.7038  -10.2132  -36.2379 C   0  0  0  0  0  0  0  0  0  0  0  0
    1.8332  -10.5916  -35.0088 C   0  0  1  0  0  0  0  0  0  0  0  0
    1.2831  -12.0364  -35.1381 C   0  0  0  0  0  0  0  0  0  0  0  0
    5.3597   -9.2359  -34.7928 C   0  0  0  0  0  0  0  0  0  0  0  0
    5.4456   -8.5809  -35.8176 O   0  5  0  0  0  0  0  0  0  0  0  0
    5.6332   -8.8263  -33.6780 O   0  0  0  0  0  0  0  0  0  0  0  0
    3.3117   -9.6113  -30.4084 C   0  0  0  0  0  0  0  0  0  0  0  0
    3.4726   -8.1227  -30.5819 C   0  0  0  0  0  0  0  0  0  0  0  0
    3.8482  -10.2139  -29.3014 O   0  0  0  0  0  0  0  0  0  0  0  0
    2.1400  -15.7225  -29.5379 H   0  0  0  0  0  0  0  0  0  0  0  0
    1.5077  -14.0958  -29.4535 H   0  0  0  0  0  0  0  0  0  0  0  0
    1.9138  -14.9525  -27.9858 H   0  0  0  0  0  0  0  0  0  0  0  0
    3.7853  -14.1392  -30.0605 H   0  0  0  0  0  0  0  0  0  0  0  0
    2.3891  -12.6184  -31.0051 H   0  0  0  0  0  0  0  0  0  0  0  0
    3.7680  -12.1336  -33.6893 H   0  0  0  0  0  0  0  0  0  0  0  0
    4.3995  -10.7441  -32.7883 H   0  0  0  0  0  0  0  0  0  0  0  0
    5.6718  -11.3302  -34.8387 H   0  0  0  0  0  0  0  0  0  0  0  0
    3.9429  -11.9628  -36.3724 H   0  0  0  0  0  0  0  0  0  0  0  0
    4.6790  -10.4963  -37.0117 H   0  0  0  0  0  0  0  0  0  0  0  0
    2.1827  -10.4981  -37.1280 H   0  0  0  0  0  0  0  0  0  0  0  0
    2.8745   -9.1575  -36.2020 H   0  0  0  0  0  0  0  0  0  0  0  0
    1.0009   -9.9196  -34.9887 H   0  0  0  0  0  0  0  0  0  0  0  0
    2.0991  -12.7281  -35.1602 H   0  0  0  0  0  0  0  0  0  0  0  0
    0.7174  -12.1230  -36.0422 H   0  0  0  0  0  0  0  0  0  0  0  0
    0.6533  -12.2545  -34.3010 H   0  0  0  0  0  0  0  0  0  0  0  0
    2.9989   -7.8163  -31.4911 H   0  0  0  0  0  0  0  0  0  0  0  0
    4.5136   -7.8788  -30.6225 H   0  0  0  0  0  0  0  0  0  0  0  0
    3.0195   -7.6163  -29.7554 H   0  0  0  0  0  0  0  0  0  0  0  0
  1  2  1  0  0  0  0
  1 24  1  0  0  0  0
  1 25  1  0  0  0  0
  1 26  1  0  0  0  0
  2  3  1  0  0  0  0
  2 27  1  0  0  0  0
  3  4  2  0  0  0  0
  3  5  2  0  0  0  0
  3  6  1  0  0  0  0
  6  7  2  0  0  0  0
  6 23  1  0  0  0  0
  7  8  1  0  0  0  0
  7 28  1  0  0  0  0
  8  9  1  0  0  0  0
  8 21  2  0  0  0  0
  9 10  2  0  0  0  0
  9 11  1  0  0  0  0
 11 12  1  0  0  0  0
 11 16  1  0  0  0  0
 12 13  1  0  0  0  0
 12 29  1  0  0  0  0
 12 30  1  0  0  0  0
 13 14  1  0  0  0  0
 13 18  1  0  0  0  0
 13 31  1  1  0  0  0
 14 15  1  0  0  0  0
 14 32  1  0  0  0  0
 14 33  1  0  0  0  0
 15 16  1  0  0  0  0
 15 34  1  0  0  0  0
 15 35  1  0  0  0  0
 16 17  1  0  0  0  0
 16 36  1  1  0  0  0
 17 37  1  0  0  0  0
 17 38  1  0  0  0  0
 17 39  1  0  0  0  0
 18 19  1  0  0  0  0
 18 20  2  0  0  0  0
 21 22  1  0  0  0  0
 21 23  1  0  0  0  0
 22 40  1  0  0  0  0
 22 41  1  0  0  0  0
 22 42  1  0  0  0  0
M  CHG  1  19  -1
M  END
$$$$
