HTS1710-00249083-01
 OpenBabel03232612363D

 36 38  0  0  1  0  0  0  0  0999 V2000
    4.0024  -11.2874  -34.5122 N   0  0  0  0  0  0  0  0  0  0  0  0
    3.6268  -10.3367  -33.5677 C   0  0  0  0  0  0  0  0  0  0  0  0
    4.2187  -12.5382  -33.9352 C   0  0  0  0  0  0  0  0  0  0  0  0
    3.6098  -11.0449  -32.2594 C   0  0  0  0  0  0  0  0  0  0  0  0
    3.9627  -12.3617  -32.4813 C   0  0  0  0  0  0  0  0  0  0  0  0
    4.1434  -10.9811  -35.9565 C   0  0  2  0  0  0  0  0  0  0  0  0
    3.3177  -10.5672  -30.9775 C   0  0  0  0  0  0  0  0  0  0  0  0
    4.8418   -9.6185  -36.1644 C   0  0  0  0  0  0  0  0  0  0  0  0
    3.3941  -11.4703  -29.8877 C   0  0  0  0  0  0  0  0  0  0  0  0
    3.0947  -10.9984  -28.4828 C   0  0  0  0  0  0  0  0  0  0  0  0
    4.0460  -13.2812  -31.4324 C   0  0  0  0  0  0  0  0  0  0  0  0
    3.3725   -9.1617  -33.7679 O   0  0  0  0  0  0  0  0  0  0  0  0
    4.5807  -13.5597  -34.4922 O   0  0  0  0  0  0  0  0  0  0  0  0
    2.7818  -11.1167  -36.6925 C   0  0  0  0  0  0  0  0  0  0  0  0
    3.7591  -12.8246  -30.1303 C   0  0  0  0  0  0  0  0  0  0  0  0
    5.6440   -9.2442  -35.3256 O   0  5  0  0  0  0  0  0  0  0  0  0
    2.7897   -9.8268  -28.3352 O   0  5  0  0  0  0  0  0  0  0  0  0
    4.5303   -8.9942  -37.1632 O   0  0  0  0  0  0  0  0  0  0  0  0
    3.1790  -11.8168  -27.5825 O   0  0  0  0  0  0  0  0  0  0  0  0
    1.7501  -10.1212  -36.1735 C   0  0  0  0  0  0  0  0  0  0  0  0
    1.5929   -8.8682  -36.7958 C   0  0  0  0  0  0  0  0  0  0  0  0
    0.9671  -10.4369  -35.0479 C   0  0  0  0  0  0  0  0  0  0  0  0
    0.0358   -9.5121  -34.5513 C   0  0  0  0  0  0  0  0  0  0  0  0
    0.6621   -7.9424  -36.2971 C   0  0  0  0  0  0  0  0  0  0  0  0
   -0.1174   -8.2642  -35.1743 C   0  0  0  0  0  0  0  0  0  0  0  0
    4.7856  -11.7080  -36.4083 H   0  0  0  0  0  0  0  0  0  0  0  0
    3.0528   -9.5809  -30.8288 H   0  0  0  0  0  0  0  0  0  0  0  0
    4.3094  -14.2638  -31.6058 H   0  0  0  0  0  0  0  0  0  0  0  0
    2.4080  -12.1088  -36.5475 H   0  0  0  0  0  0  0  0  0  0  0  0
    2.9453  -10.9124  -37.7301 H   0  0  0  0  0  0  0  0  0  0  0  0
    3.8146  -13.4840  -29.3385 H   0  0  0  0  0  0  0  0  0  0  0  0
    2.1637   -8.6291  -37.6217 H   0  0  0  0  0  0  0  0  0  0  0  0
    1.0783  -11.3528  -34.5854 H   0  0  0  0  0  0  0  0  0  0  0  0
   -0.5373   -9.7502  -33.7267 H   0  0  0  0  0  0  0  0  0  0  0  0
    0.5510   -7.0248  -36.7561 H   0  0  0  0  0  0  0  0  0  0  0  0
   -0.8017   -7.5842  -34.8081 H   0  0  0  0  0  0  0  0  0  0  0  0
  1  2  1  0  0  0  0
  1  3  1  0  0  0  0
  1  6  1  0  0  0  0
  2  4  1  0  0  0  0
  2 12  2  0  0  0  0
  3  5  1  0  0  0  0
  3 13  2  0  0  0  0
  4  7  2  0  0  0  0
  4  5  1  0  0  0  0
  5 11  2  0  0  0  0
  6  8  1  0  0  0  0
  6 14  1  0  0  0  0
  6 26  1  6  0  0  0
  7  9  1  0  0  0  0
  7 27  1  0  0  0  0
  8 16  1  0  0  0  0
  8 18  2  0  0  0  0
  9 10  1  0  0  0  0
  9 15  2  0  0  0  0
 10 17  1  0  0  0  0
 10 19  2  0  0  0  0
 11 15  1  0  0  0  0
 11 28  1  0  0  0  0
 14 20  1  0  0  0  0
 14 29  1  0  0  0  0
 14 30  1  0  0  0  0
 15 31  1  0  0  0  0
 20 21  2  0  0  0  0
 20 22  1  0  0  0  0
 21 24  1  0  0  0  0
 21 32  1  0  0  0  0
 22 23  2  0  0  0  0
 22 33  1  0  0  0  0
 23 25  1  0  0  0  0
 23 34  1  0  0  0  0
 24 25  2  0  0  0  0
 24 35  1  0  0  0  0
 25 36  1  0  0  0  0
M  CHG  2  16  -1  17  -1
M  END
$$$$
