HTS1710-00617671-01
 OpenBabel03232612353D

 35 36  0  0  1  0  0  0  0  0999 V2000
    3.1973  -10.5508  -32.6961 N   0  0  0  0  0  0  0  0  0  0  0  0
    3.9582  -10.2092  -31.4628 C   0  0  2  0  0  0  0  0  0  0  0  0
    2.4025   -9.6113  -33.3554 C   0  0  0  0  0  0  0  0  0  0  0  0
    3.2757  -11.7821  -33.3404 C   0  0  0  0  0  0  0  0  0  0  0  0
    3.0289  -10.0517  -30.2214 C   0  0  0  0  0  0  0  0  0  0  0  0
    4.8866   -8.9988  -31.7196 C   0  0  0  0  0  0  0  0  0  0  0  0
    1.7923  -10.2232  -34.5623 C   0  0  0  0  0  0  0  0  0  0  0  0
    2.2866   -8.4528  -32.9988 O   0  0  0  0  0  0  0  0  0  0  0  0
    2.3338  -11.8625  -34.8545 S   0  0  0  0  0  0  0  0  0  0  0  0
    4.2246  -13.0815  -32.8678 S   0  0  0  0  0  0  0  0  0  0  0  0
    3.8179   -9.8426  -28.9213 C   0  0  0  0  0  0  0  0  0  0  0  0
    5.7439   -9.1360  -32.5761 O   0  5  0  0  0  0  0  0  0  0  0  0
    4.7177   -7.9870  -31.0589 O   0  0  0  0  0  0  0  0  0  0  0  0
    0.9347   -9.6179  -35.4572 C   0  0  0  0  0  0  0  0  0  0  0  0
    4.7814  -10.5656  -28.7284 O   0  5  0  0  0  0  0  0  0  0  0  0
    3.4105   -8.9892  -28.1530 O   0  0  0  0  0  0  0  0  0  0  0  0
    0.2473   -8.3002  -35.6068 C   0  0  0  0  0  0  0  0  0  0  0  0
   -0.5385   -7.7131  -34.5931 C   0  0  0  0  0  0  0  0  0  0  0  0
    0.3327   -7.6435  -36.8508 C   0  0  0  0  0  0  0  0  0  0  0  0
   -1.1695   -6.4759  -34.8018 C   0  0  0  0  0  0  0  0  0  0  0  0
   -0.2947   -6.4058  -37.0632 C   0  0  0  0  0  0  0  0  0  0  0  0
   -1.0440   -5.8094  -36.0295 C   0  0  0  0  0  0  0  0  0  0  0  0
   -1.6829   -4.5936  -36.1861 O   0  0  0  0  0  0  0  0  0  0  0  0
   -1.5175   -3.7690  -37.3528 C   0  0  0  0  0  0  0  0  0  0  0  0
    4.5958  -11.0317  -31.2140 H   0  0  0  0  0  0  0  0  0  0  0  0
    2.4338  -10.9355  -30.1236 H   0  0  0  0  0  0  0  0  0  0  0  0
    2.4216   -9.1847  -30.3770 H   0  0  0  0  0  0  0  0  0  0  0  0
    0.7043  -10.2501  -36.2396 H   0  0  0  0  0  0  0  0  0  0  0  0
   -0.6509   -8.1976  -33.6889 H   0  0  0  0  0  0  0  0  0  0  0  0
    0.8657   -8.0801  -37.6191 H   0  0  0  0  0  0  0  0  0  0  0  0
   -1.7302   -6.0536  -34.0453 H   0  0  0  0  0  0  0  0  0  0  0  0
   -0.2072   -5.9328  -37.9762 H   0  0  0  0  0  0  0  0  0  0  0  0
   -2.1067   -2.8820  -37.2491 H   0  0  0  0  0  0  0  0  0  0  0  0
   -1.8360   -4.3094  -38.2196 H   0  0  0  0  0  0  0  0  0  0  0  0
   -0.4866   -3.5021  -37.4577 H   0  0  0  0  0  0  0  0  0  0  0  0
  1  2  1  0  0  0  0
  1  3  1  0  0  0  0
  1  4  1  0  0  0  0
  2  5  1  0  0  0  0
  2  6  1  0  0  0  0
  2 25  1  1  0  0  0
  3  7  1  0  0  0  0
  3  8  2  0  0  0  0
  4  9  1  0  0  0  0
  4 10  2  0  0  0  0
  5 11  1  0  0  0  0
  5 26  1  0  0  0  0
  5 27  1  0  0  0  0
  6 12  1  0  0  0  0
  6 13  2  0  0  0  0
  7 14  2  0  0  0  0
  7  9  1  0  0  0  0
 11 15  1  0  0  0  0
 11 16  2  0  0  0  0
 14 17  1  0  0  0  0
 14 28  1  0  0  0  0
 17 18  2  0  0  0  0
 17 19  1  0  0  0  0
 18 20  1  0  0  0  0
 18 29  1  0  0  0  0
 19 21  2  0  0  0  0
 19 30  1  0  0  0  0
 20 22  2  0  0  0  0
 20 31  1  0  0  0  0
 21 22  1  0  0  0  0
 21 32  1  0  0  0  0
 22 23  1  0  0  0  0
 23 24  1  0  0  0  0
 24 33  1  0  0  0  0
 24 34  1  0  0  0  0
 24 35  1  0  0  0  0
M  CHG  2  12  -1  15  -1
M  END
$$$$
