HTS1710-00595595-01
 OpenBabel03232612363D

 38 39  0  0  0  0  0  0  0  0999 V2000
    2.3420  -13.0002  -29.9922 C   0  0  0  0  0  0  0  0  0  0  0  0
    2.5866  -11.8711  -29.1622 C   0  0  0  0  0  0  0  0  0  0  0  0
    1.8927  -12.8679  -31.4320 C   0  0  0  0  0  0  0  0  0  0  0  0
    2.5089  -14.2983  -29.4637 C   0  0  0  0  0  0  0  0  0  0  0  0
    2.4621  -10.5892  -29.7023 N   0  0  0  0  0  0  0  0  0  0  0  0
    3.0348  -12.0849  -27.8356 C   0  0  0  0  0  0  0  0  0  0  0  0
    2.7050  -12.1425  -32.3004 N   0  0  0  0  0  0  0  0  0  0  0  0
    0.8493  -13.3616  -31.8271 O   0  0  0  0  0  0  0  0  0  0  0  0
    2.9225  -14.4882  -28.1399 C   0  0  0  0  0  0  0  0  0  0  0  0
    3.4896   -9.6768  -29.9338 C   0  0  0  0  0  0  0  0  0  0  0  0
    3.1913  -13.3822  -27.3286 C   0  0  0  0  0  0  0  0  0  0  0  0
    2.4736  -11.9040  -33.6547 C   0  0  0  0  0  0  0  0  0  0  0  0
    3.1134   -8.3614  -30.5219 C   0  0  0  0  0  0  0  0  0  0  0  0
    4.6426   -9.9280  -29.6292 O   0  0  0  0  0  0  0  0  0  0  0  0
    3.3160  -10.9780  -34.2988 C   0  0  0  0  0  0  0  0  0  0  0  0
    1.4930  -12.5797  -34.4144 C   0  0  0  0  0  0  0  0  0  0  0  0
    3.8561   -7.6321  -31.3933 C   0  0  0  0  0  0  0  0  0  0  0  0
    3.1697  -10.6858  -35.6716 C   0  0  0  0  0  0  0  0  0  0  0  0
    1.3435  -12.2993  -35.7801 C   0  0  0  0  0  0  0  0  0  0  0  0
    5.1944   -7.9904  -31.9436 C   0  0  0  0  0  0  0  0  0  0  0  0
    2.1696  -11.3553  -36.4059 C   0  0  0  0  0  0  0  0  0  0  0  0
    4.0703   -9.6741  -36.3438 C   0  0  0  0  0  0  0  0  0  0  0  0
    5.4437   -9.1774  -32.0559 O   0  5  0  0  0  0  0  0  0  0  0  0
    5.9484   -7.0806  -32.2426 O   0  0  0  0  0  0  0  0  0  0  0  0
    5.1345   -9.4212  -35.8051 O   0  5  0  0  0  0  0  0  0  0  0  0
    3.6756   -9.1715  -37.3821 O   0  0  0  0  0  0  0  0  0  0  0  0
    2.3235  -15.1188  -30.0616 H   0  0  0  0  0  0  0  0  0  0  0  0
    1.5529  -10.2998  -29.9448 H   0  0  0  0  0  0  0  0  0  0  0  0
    3.2490  -11.2743  -27.2340 H   0  0  0  0  0  0  0  0  0  0  0  0
    3.5273  -11.7585  -31.9187 H   0  0  0  0  0  0  0  0  0  0  0  0
    3.0287  -15.4432  -27.7636 H   0  0  0  0  0  0  0  0  0  0  0  0
    3.5053  -13.5209  -26.3554 H   0  0  0  0  0  0  0  0  0  0  0  0
    2.2022   -7.9671  -30.2404 H   0  0  0  0  0  0  0  0  0  0  0  0
    4.0549  -10.5037  -33.7565 H   0  0  0  0  0  0  0  0  0  0  0  0
    0.8853  -13.2813  -33.9633 H   0  0  0  0  0  0  0  0  0  0  0  0
    3.4520   -6.7361  -31.7077 H   0  0  0  0  0  0  0  0  0  0  0  0
    0.6205  -12.7912  -36.3282 H   0  0  0  0  0  0  0  0  0  0  0  0
    2.0450  -11.1493  -37.4094 H   0  0  0  0  0  0  0  0  0  0  0  0
  1  2  2  0  0  0  0
  1  3  1  0  0  0  0
  1  4  1  0  0  0  0
  2  5  1  0  0  0  0
  2  6  1  0  0  0  0
  3  7  1  0  0  0  0
  3  8  2  0  0  0  0
  4  9  2  0  0  0  0
  4 27  1  0  0  0  0
  5 10  1  0  0  0  0
  5 28  1  0  0  0  0
  6 11  2  0  0  0  0
  6 29  1  0  0  0  0
  7 12  1  0  0  0  0
  7 30  1  0  0  0  0
  9 11  1  0  0  0  0
  9 31  1  0  0  0  0
 10 13  1  0  0  0  0
 10 14  2  0  0  0  0
 11 32  1  0  0  0  0
 12 15  2  0  0  0  0
 12 16  1  0  0  0  0
 13 17  2  0  0  0  0
 13 33  1  0  0  0  0
 15 18  1  0  0  0  0
 15 34  1  0  0  0  0
 16 19  2  0  0  0  0
 16 35  1  0  0  0  0
 17 20  1  0  0  0  0
 17 36  1  0  0  0  0
 18 21  2  0  0  0  0
 18 22  1  0  0  0  0
 19 21  1  0  0  0  0
 19 37  1  0  0  0  0
 20 23  1  0  0  0  0
 20 24  2  0  0  0  0
 21 38  1  0  0  0  0
 22 25  1  0  0  0  0
 22 26  2  0  0  0  0
M  CHG  2  23  -1  25  -1
M  END
$$$$
