HTS1710-04485851-01
 OpenBabel03232612343D

 33 34  0  0  0  0  0  0  0  0999 V2000
    4.5419  -11.0726  -35.0742 C   0  0  0  0  0  0  0  0  0  0  0  0
    3.0747   -9.9865  -30.1712 C   0  0  0  0  0  0  0  0  0  0  0  0
    4.3513  -12.4499  -34.4939 C   0  0  0  0  0  0  0  0  0  0  0  0
    3.5470   -9.1390  -31.1547 C   0  0  0  0  0  0  0  0  0  0  0  0
    2.7064  -10.7480  -32.2142 C   0  0  0  0  0  0  0  0  0  0  0  0
    5.4862  -10.1542  -34.7340 N   0  0  0  0  0  0  0  0  0  0  0  0
    3.3463   -9.5613  -32.4446 O   0  0  0  0  0  0  0  0  0  0  0  0
    2.5126  -11.0685  -30.8971 C   0  0  0  0  0  0  0  0  0  0  0  0
    3.2340  -12.6938  -33.6640 N   0  0  0  0  0  0  0  0  0  0  0  0
    3.1146   -9.8535  -28.6947 C   0  0  0  0  0  0  0  0  0  0  0  0
    3.7881  -10.5263  -36.0825 C   0  0  0  0  0  0  0  0  0  0  0  0
    5.2464   -9.1317  -35.5348 C   0  0  0  0  0  0  0  0  0  0  0  0
    2.2689  -11.6074  -33.3734 C   0  0  0  0  0  0  0  0  0  0  0  0
    4.2005   -9.2680  -36.4180 O   0  0  0  0  0  0  0  0  0  0  0  0
    5.1508  -13.3411  -34.7292 O   0  0  0  0  0  0  0  0  0  0  0  0
    2.6313  -10.7418  -28.0160 O   0  5  0  0  0  0  0  0  0  0  0  0
    3.6391   -8.8491  -28.2443 O   0  0  0  0  0  0  0  0  0  0  0  0
    4.2505   -7.8260  -30.9214 C   0  0  0  0  0  0  0  0  0  0  0  0
    2.9261  -13.9503  -32.9455 C   0  0  0  0  0  0  0  0  0  0  0  0
    2.6174  -11.1484  -36.8041 C   0  0  0  0  0  0  0  0  0  0  0  0
    2.0574  -11.9125  -30.5159 H   0  0  0  0  0  0  0  0  0  0  0  0
    5.8162   -8.2719  -35.4997 H   0  0  0  0  0  0  0  0  0  0  0  0
    2.1735  -10.9904  -34.2424 H   0  0  0  0  0  0  0  0  0  0  0  0
    1.3357  -12.0602  -33.1111 H   0  0  0  0  0  0  0  0  0  0  0  0
    4.5033   -7.3847  -31.8627 H   0  0  0  0  0  0  0  0  0  0  0  0
    5.1429   -7.9952  -30.3557 H   0  0  0  0  0  0  0  0  0  0  0  0
    3.6048   -7.1665  -30.3802 H   0  0  0  0  0  0  0  0  0  0  0  0
    3.6553  -14.6922  -33.1959 H   0  0  0  0  0  0  0  0  0  0  0  0
    1.9541  -14.2951  -33.2304 H   0  0  0  0  0  0  0  0  0  0  0  0
    2.9464  -13.7721  -31.8906 H   0  0  0  0  0  0  0  0  0  0  0  0
    2.4373  -12.1280  -36.4133 H   0  0  0  0  0  0  0  0  0  0  0  0
    2.8376  -11.2160  -37.8489 H   0  0  0  0  0  0  0  0  0  0  0  0
    1.7474  -10.5420  -36.6614 H   0  0  0  0  0  0  0  0  0  0  0  0
  1  3  1  0  0  0  0
  1  6  1  0  0  0  0
  1 11  2  0  0  0  0
  2  8  1  0  0  0  0
  2 10  1  0  0  0  0
  2  4  2  0  0  0  0
  3  9  1  0  0  0  0
  3 15  2  0  0  0  0
  4  7  1  0  0  0  0
  4 18  1  0  0  0  0
  5 13  1  0  0  0  0
  5  7  1  0  0  0  0
  5  8  2  0  0  0  0
  6 12  2  0  0  0  0
  8 21  1  0  0  0  0
  9 13  1  0  0  0  0
  9 19  1  0  0  0  0
 10 16  1  0  0  0  0
 10 17  2  0  0  0  0
 11 14  1  0  0  0  0
 11 20  1  0  0  0  0
 12 14  1  0  0  0  0
 12 22  1  0  0  0  0
 13 23  1  0  0  0  0
 13 24  1  0  0  0  0
 18 25  1  0  0  0  0
 18 26  1  0  0  0  0
 18 27  1  0  0  0  0
 19 28  1  0  0  0  0
 19 29  1  0  0  0  0
 19 30  1  0  0  0  0
 20 31  1  0  0  0  0
 20 32  1  0  0  0  0
 20 33  1  0  0  0  0
M  CHG  1  16  -1
M  END
$$$$
