HTS1710-01829045-01
 OpenBabel03232612353D

 42 43  0  0  0  0  0  0  0  0999 V2000
    0.7123   -9.0601  -33.9223 S   0  0  0  0  0  0  0  0  0  0  0  0
    4.6661  -11.6974  -35.2915 S   0  0  0  0  0  0  0  0  0  0  0  0
   -0.3800   -7.8407  -34.6774 C   0  0  0  0  0  0  0  0  0  0  0  0
    4.5183  -11.2192  -33.5609 C   0  0  0  0  0  0  0  0  0  0  0  0
   -2.9864   -4.8896  -36.5155 C   0  0  0  0  0  0  0  0  0  0  0  0
    4.1845  -10.0621  -29.3864 C   0  0  0  0  0  0  0  0  0  0  0  0
    2.0883   -8.8737  -34.3953 O   0  0  0  0  0  0  0  0  0  0  0  0
    0.3627   -9.1618  -32.5026 O   0  0  0  0  0  0  0  0  0  0  0  0
    4.5615  -13.1563  -35.3886 O   0  0  0  0  0  0  0  0  0  0  0  0
    5.7323  -10.9204  -35.9343 O   0  0  0  0  0  0  0  0  0  0  0  0
    0.2108  -10.5672  -34.5411 N   0  0  0  0  0  0  0  0  0  0  0  0
    3.2113  -11.1412  -35.9683 N   0  0  0  0  0  0  0  0  0  0  0  0
   -2.0786   -5.9189  -35.8762 C   0  0  0  0  0  0  0  0  0  0  0  0
    4.3016  -10.4661  -30.8396 C   0  0  0  0  0  0  0  0  0  0  0  0
   -2.5594   -4.2868  -37.4858 O   0  5  0  0  0  0  0  0  0  0  0  0
    4.3411  -10.9305  -28.5453 O   0  5  0  0  0  0  0  0  0  0  0  0
   -1.5884   -7.4807  -34.0568 C   0  0  0  0  0  0  0  0  0  0  0  0
   -0.0215   -7.2425  -35.8964 C   0  0  0  0  0  0  0  0  0  0  0  0
    5.1378  -10.0444  -33.1001 C   0  0  0  0  0  0  0  0  0  0  0  0
    3.7976  -12.0207  -32.6609 C   0  0  0  0  0  0  0  0  0  0  0  0
   -0.8631   -6.2890  -36.4906 C   0  0  0  0  0  0  0  0  0  0  0  0
   -2.4305   -6.5280  -34.6514 C   0  0  0  0  0  0  0  0  0  0  0  0
    3.6879  -11.6462  -31.3116 C   0  0  0  0  0  0  0  0  0  0  0  0
    5.0302   -9.6707  -31.7509 C   0  0  0  0  0  0  0  0  0  0  0  0
    0.7295  -11.0460  -35.8393 C   0  0  0  0  0  0  0  0  0  0  0  0
    1.9969  -11.9222  -35.6870 C   0  0  0  0  0  0  0  0  0  0  0  0
   -4.0888   -4.7254  -36.0217 O   0  0  0  0  0  0  0  0  0  0  0  0
    3.9387   -8.8926  -29.1455 O   0  0  0  0  0  0  0  0  0  0  0  0
   -0.8047  -10.5260  -34.6277 H   0  0  0  0  0  0  0  0  0  0  0  0
    3.3333  -11.1175  -36.9806 H   0  0  0  0  0  0  0  0  0  0  0  0
   -1.8574   -7.9179  -33.1615 H   0  0  0  0  0  0  0  0  0  0  0  0
    0.8640   -7.5048  -36.3570 H   0  0  0  0  0  0  0  0  0  0  0  0
    5.6736   -9.4545  -33.7559 H   0  0  0  0  0  0  0  0  0  0  0  0
    3.3468  -12.8881  -32.9919 H   0  0  0  0  0  0  0  0  0  0  0  0
   -0.5902   -5.8542  -37.3859 H   0  0  0  0  0  0  0  0  0  0  0  0
   -3.3161   -6.2698  -34.1888 H   0  0  0  0  0  0  0  0  0  0  0  0
    3.1530  -12.2399  -30.6587 H   0  0  0  0  0  0  0  0  0  0  0  0
    5.4880   -8.8062  -31.4221 H   0  0  0  0  0  0  0  0  0  0  0  0
    0.9697  -10.1982  -36.4462 H   0  0  0  0  0  0  0  0  0  0  0  0
   -0.0304  -11.6505  -36.2890 H   0  0  0  0  0  0  0  0  0  0  0  0
    2.0455  -12.2971  -34.6860 H   0  0  0  0  0  0  0  0  0  0  0  0
    1.9402  -12.7302  -36.3861 H   0  0  0  0  0  0  0  0  0  0  0  0
  1  3  1  0  0  0  0
  1  7  2  0  0  0  0
  1  8  2  0  0  0  0
  1 11  1  0  0  0  0
  2  4  1  0  0  0  0
  2  9  2  0  0  0  0
  2 10  2  0  0  0  0
  2 12  1  0  0  0  0
  3 17  2  0  0  0  0
  3 18  1  0  0  0  0
  4 19  2  0  0  0  0
  4 20  1  0  0  0  0
  5 13  1  0  0  0  0
  5 15  1  0  0  0  0
  5 27  2  0  0  0  0
  6 14  1  0  0  0  0
  6 16  1  0  0  0  0
  6 28  2  0  0  0  0
 11 25  1  0  0  0  0
 11 29  1  0  0  0  0
 12 26  1  0  0  0  0
 12 30  1  0  0  0  0
 13 21  1  0  0  0  0
 13 22  2  0  0  0  0
 14 23  1  0  0  0  0
 14 24  2  0  0  0  0
 17 22  1  0  0  0  0
 17 31  1  0  0  0  0
 18 21  2  0  0  0  0
 18 32  1  0  0  0  0
 19 24  1  0  0  0  0
 19 33  1  0  0  0  0
 20 23  2  0  0  0  0
 20 34  1  0  0  0  0
 21 35  1  0  0  0  0
 22 36  1  0  0  0  0
 23 37  1  0  0  0  0
 24 38  1  0  0  0  0
 25 26  1  0  0  0  0
 25 39  1  0  0  0  0
 25 40  1  0  0  0  0
 26 41  1  0  0  0  0
 26 42  1  0  0  0  0
M  CHG  2  15  -1  16  -1
M  END
$$$$
