HTS1710-05416121-01
 OpenBabel03232612363D

 35 37  0  0  1  0  0  0  0  0999 V2000
    6.3547   -7.4122  -35.1982 O   0  5  0  0  0  0  0  0  0  0  0  0
    6.5337   -6.9436  -34.0864 C   0  0  0  0  0  0  0  0  0  0  0  0
    7.1357   -5.9086  -33.8588 O   0  0  0  0  0  0  0  0  0  0  0  0
    5.9785   -7.6906  -32.9343 C   0  0  0  0  0  0  0  0  0  0  0  0
    6.0450   -7.2734  -31.6401 C   0  0  0  0  0  0  0  0  0  0  0  0
    5.4337   -8.1691  -30.8085 O   0  0  0  0  0  0  0  0  0  0  0  0
    5.0263   -9.1202  -31.7264 C   0  0  0  0  0  0  0  0  0  0  0  0
    5.3257   -8.8795  -32.9955 N   0  0  0  0  0  0  0  0  0  0  0  0
    4.2938  -10.2929  -31.1873 C   0  0  0  0  0  0  0  0  0  0  0  0
    4.1371  -10.4131  -29.7868 C   0  0  0  0  0  0  0  0  0  0  0  0
    3.4437  -11.4951  -29.2280 C   0  0  0  0  0  0  0  0  0  0  0  0
    3.3063  -11.5832  -27.8874 F   0  0  0  0  0  0  0  0  0  0  0  0
    2.8917  -12.4825  -30.0472 C   0  0  0  0  0  0  0  0  0  0  0  0
    3.0374  -12.3903  -31.4371 C   0  0  0  0  0  0  0  0  0  0  0  0
    3.7355  -11.3054  -32.0183 C   0  0  0  0  0  0  0  0  0  0  0  0
    3.8946  -11.2309  -33.3901 O   0  0  0  0  0  0  0  0  0  0  0  0
    3.5649  -12.3064  -34.2920 C   0  0  0  0  0  0  0  0  0  0  0  0
    3.6847  -11.8070  -35.7540 C   0  0  1  0  0  0  0  0  0  0  0  0
    2.3952  -11.1442  -36.2914 C   0  0  0  0  0  0  0  0  0  0  0  0
    2.8946   -9.8539  -36.9564 C   0  0  0  0  0  0  0  0  0  0  0  0
    4.0471   -9.5180  -36.1731 O   0  0  0  0  0  0  0  0  0  0  0  0
    4.7814  -10.7309  -35.9493 C   0  0  0  0  0  0  0  0  0  0  0  0
    6.4960   -6.3989  -31.3290 H   0  0  0  0  0  0  0  0  0  0  0  0
    4.5397   -9.6929  -29.1669 H   0  0  0  0  0  0  0  0  0  0  0  0
    2.3793  -13.2756  -29.6306 H   0  0  0  0  0  0  0  0  0  0  0  0
    2.6318  -13.1205  -32.0431 H   0  0  0  0  0  0  0  0  0  0  0  0
    2.5629  -12.6328  -34.1071 H   0  0  0  0  0  0  0  0  0  0  0  0
    4.2393  -13.1224  -34.1366 H   0  0  0  0  0  0  0  0  0  0  0  0
    3.9134  -12.7086  -36.2828 H   0  0  0  0  0  0  0  0  0  0  0  0
    1.7188  -10.9238  -35.4922 H   0  0  0  0  0  0  0  0  0  0  0  0
    1.8568  -11.7756  -36.9669 H   0  0  0  0  0  0  0  0  0  0  0  0
    2.1550   -9.0823  -36.9042 H   0  0  0  0  0  0  0  0  0  0  0  0
    3.1098   -9.9702  -37.9981 H   0  0  0  0  0  0  0  0  0  0  0  0
    5.3926  -10.6488  -35.0749 H   0  0  0  0  0  0  0  0  0  0  0  0
    5.4453  -10.9634  -36.7555 H   0  0  0  0  0  0  0  0  0  0  0  0
  1  2  1  0  0  0  0
  2  3  2  0  0  0  0
  2  4  1  0  0  0  0
  4  5  2  0  0  0  0
  4  8  1  0  0  0  0
  5  6  1  0  0  0  0
  5 23  1  0  0  0  0
  6  7  1  0  0  0  0
  7  8  2  0  0  0  0
  7  9  1  0  0  0  0
  9 10  2  0  0  0  0
  9 15  1  0  0  0  0
 10 11  1  0  0  0  0
 10 24  1  0  0  0  0
 11 12  1  0  0  0  0
 11 13  2  0  0  0  0
 13 14  1  0  0  0  0
 13 25  1  0  0  0  0
 14 15  2  0  0  0  0
 14 26  1  0  0  0  0
 15 16  1  0  0  0  0
 16 17  1  0  0  0  0
 17 18  1  0  0  0  0
 17 27  1  0  0  0  0
 17 28  1  0  0  0  0
 18 19  1  0  0  0  0
 18 22  1  0  0  0  0
 18 29  1  6  0  0  0
 19 20  1  0  0  0  0
 19 30  1  0  0  0  0
 19 31  1  0  0  0  0
 20 21  1  0  0  0  0
 20 32  1  0  0  0  0
 20 33  1  0  0  0  0
 21 22  1  0  0  0  0
 22 34  1  0  0  0  0
 22 35  1  0  0  0  0
M  CHG  1   1  -1
M  END
$$$$
