HTS1710-00384859-01
 OpenBabel03232612343D

 31 32  0  0  0  0  0  0  0  0999 V2000
    4.1034  -13.8967  -33.0286 C   0  0  0  0  0  0  0  0  0  0  0  0
    3.8196  -12.8077  -33.9828 N   0  0  0  0  0  0  0  0  0  0  0  0
    2.7377  -11.9013  -33.5319 C   0  0  0  0  0  0  0  0  0  0  0  0
    3.1885  -10.9823  -32.4264 C   0  0  0  0  0  0  0  0  0  0  0  0
    2.8621  -11.1431  -31.1069 C   0  0  0  0  0  0  0  0  0  0  0  0
    3.4784  -10.0513  -30.4408 C   0  0  0  0  0  0  0  0  0  0  0  0
    3.4154   -9.7687  -28.9873 C   0  0  0  0  0  0  0  0  0  0  0  0
    3.3614   -8.6080  -28.6220 O   0  5  0  0  0  0  0  0  0  0  0  0
    3.4217  -10.7290  -28.2361 O   0  0  0  0  0  0  0  0  0  0  0  0
    4.1119   -9.3622  -31.4573 C   0  0  0  0  0  0  0  0  0  0  0  0
    4.9282   -8.1047  -31.2898 C   0  0  0  0  0  0  0  0  0  0  0  0
    3.9667   -9.8945  -32.7129 O   0  0  0  0  0  0  0  0  0  0  0  0
    4.5559  -12.5100  -35.1455 C   0  0  0  0  0  0  0  0  0  0  0  0
    5.4516  -13.2434  -35.5302 O   0  0  0  0  0  0  0  0  0  0  0  0
    4.2332  -11.2710  -35.9173 C   0  0  0  0  0  0  0  0  0  0  0  0
    3.1610  -11.1778  -36.8445 C   0  0  0  0  0  0  0  0  0  0  0  0
    3.2120   -9.9101  -37.3530 C   0  0  0  0  0  0  0  0  0  0  0  0
    4.2337   -9.1523  -36.8540 O   0  0  0  0  0  0  0  0  0  0  0  0
    4.8326  -10.0289  -35.9877 C   0  0  0  0  0  0  0  0  0  0  0  0
    3.3774  -13.8806  -32.2428 H   0  0  0  0  0  0  0  0  0  0  0  0
    5.0806  -13.7620  -32.6141 H   0  0  0  0  0  0  0  0  0  0  0  0
    4.0582  -14.8372  -33.5370 H   0  0  0  0  0  0  0  0  0  0  0  0
    1.9191  -12.4919  -33.1768 H   0  0  0  0  0  0  0  0  0  0  0  0
    2.4484  -11.2954  -34.3651 H   0  0  0  0  0  0  0  0  0  0  0  0
    2.2923  -11.8944  -30.6876 H   0  0  0  0  0  0  0  0  0  0  0  0
    4.9424   -7.8236  -30.2575 H   0  0  0  0  0  0  0  0  0  0  0  0
    4.4922   -7.3169  -31.8680 H   0  0  0  0  0  0  0  0  0  0  0  0
    5.9288   -8.2816  -31.6252 H   0  0  0  0  0  0  0  0  0  0  0  0
    2.4820  -11.9168  -37.0851 H   0  0  0  0  0  0  0  0  0  0  0  0
    2.5391   -9.5569  -38.0512 H   0  0  0  0  0  0  0  0  0  0  0  0
    5.6657   -9.7806  -35.4317 H   0  0  0  0  0  0  0  0  0  0  0  0
  1  2  1  0  0  0  0
  1 20  1  0  0  0  0
  1 21  1  0  0  0  0
  1 22  1  0  0  0  0
  2  3  1  0  0  0  0
  2 13  1  0  0  0  0
  3  4  1  0  0  0  0
  3 23  1  0  0  0  0
  3 24  1  0  0  0  0
  4  5  2  0  0  0  0
  4 12  1  0  0  0  0
  5  6  1  0  0  0  0
  5 25  1  0  0  0  0
  6  7  1  0  0  0  0
  6 10  2  0  0  0  0
  7  8  1  0  0  0  0
  7  9  2  0  0  0  0
 10 11  1  0  0  0  0
 10 12  1  0  0  0  0
 11 26  1  0  0  0  0
 11 27  1  0  0  0  0
 11 28  1  0  0  0  0
 13 14  2  0  0  0  0
 13 15  1  0  0  0  0
 15 16  1  0  0  0  0
 15 19  2  0  0  0  0
 16 17  2  0  0  0  0
 16 29  1  0  0  0  0
 17 18  1  0  0  0  0
 17 30  1  0  0  0  0
 18 19  1  0  0  0  0
 19 31  1  0  0  0  0
M  CHG  1   8  -1
M  END
$$$$
