HTS1710-04708885-01
 OpenBabel03232612363D

 38 39  0  0  1  0  0  0  0  0999 V2000
    6.3363   -6.9428  -32.6651 C   0  0  0  0  0  0  0  0  0  0  0  0
    5.5404   -8.1340  -32.1965 C   0  0  0  0  0  0  0  0  0  0  0  0
    5.1859   -8.2141  -30.8741 O   0  0  0  0  0  0  0  0  0  0  0  0
    4.4991   -9.3960  -30.8783 C   0  0  0  0  0  0  0  0  0  0  0  0
    3.8708   -9.9078  -29.6092 C   0  0  0  0  0  0  0  0  0  0  0  0
    3.4923  -11.3159  -29.7824 N   0  0  0  0  0  0  0  0  0  0  0  0
    3.1063  -12.1208  -28.7196 C   0  0  0  0  0  0  0  0  0  0  0  0
    3.0705  -11.6669  -27.5876 O   0  0  0  0  0  0  0  0  0  0  0  0
    2.7312  -13.5764  -29.0095 C   0  0  0  0  0  0  0  0  0  0  0  0
    3.9768  -14.4937  -29.0526 C   0  0  0  0  0  0  0  0  0  0  0  0
    4.7360  -14.5209  -27.7035 C   0  0  1  0  0  0  0  0  0  0  0  0
    5.4550  -15.8549  -27.4125 C   0  0  0  0  0  0  0  0  0  0  0  0
    6.7586  -15.4391  -26.7056 C   0  0  0  0  0  0  0  0  0  0  0  0
    6.6947  -13.9025  -26.6523 C   0  0  0  0  0  0  0  0  0  0  0  0
    5.8128  -13.5710  -27.7341 O   0  0  0  0  0  0  0  0  0  0  0  0
    4.4179  -10.0292  -32.0905 C   0  0  0  0  0  0  0  0  0  0  0  0
    5.1171   -9.1821  -32.9915 C   0  0  0  0  0  0  0  0  0  0  0  0
    5.3094   -9.4180  -34.4426 C   0  0  0  0  0  0  0  0  0  0  0  0
    5.0493  -10.5313  -34.8624 O   0  5  0  0  0  0  0  0  0  0  0  0
    5.7134   -8.4984  -35.1329 O   0  0  0  0  0  0  0  0  0  0  0  0
    6.5232   -6.2908  -31.8375 H   0  0  0  0  0  0  0  0  0  0  0  0
    5.7834   -6.4172  -33.4155 H   0  0  0  0  0  0  0  0  0  0  0  0
    7.2672   -7.2747  -33.0751 H   0  0  0  0  0  0  0  0  0  0  0  0
    2.9991   -9.3294  -29.3845 H   0  0  0  0  0  0  0  0  0  0  0  0
    4.5722   -9.8238  -28.8055 H   0  0  0  0  0  0  0  0  0  0  0  0
    3.5131  -11.7038  -30.6870 H   0  0  0  0  0  0  0  0  0  0  0  0
    2.2333  -13.6240  -29.9554 H   0  0  0  0  0  0  0  0  0  0  0  0
    2.0935  -13.9187  -28.2214 H   0  0  0  0  0  0  0  0  0  0  0  0
    4.6399  -14.1374  -29.8131 H   0  0  0  0  0  0  0  0  0  0  0  0
    3.6425  -15.4888  -29.2593 H   0  0  0  0  0  0  0  0  0  0  0  0
    3.9808  -14.3277  -26.9705 H   0  0  0  0  0  0  0  0  0  0  0  0
    5.6672  -16.3773  -28.3219 H   0  0  0  0  0  0  0  0  0  0  0  0
    4.8615  -16.5178  -26.8182 H   0  0  0  0  0  0  0  0  0  0  0  0
    7.6118  -15.7630  -27.2644 H   0  0  0  0  0  0  0  0  0  0  0  0
    6.8517  -15.8764  -25.7335 H   0  0  0  0  0  0  0  0  0  0  0  0
    7.6633  -13.4731  -26.8020 H   0  0  0  0  0  0  0  0  0  0  0  0
    6.3571  -13.5300  -25.7077 H   0  0  0  0  0  0  0  0  0  0  0  0
    3.9512  -10.9249  -32.3025 H   0  0  0  0  0  0  0  0  0  0  0  0
  1  2  1  0  0  0  0
  1 21  1  0  0  0  0
  1 22  1  0  0  0  0
  1 23  1  0  0  0  0
  2  3  1  0  0  0  0
  2 17  2  0  0  0  0
  3  4  1  0  0  0  0
  4  5  1  0  0  0  0
  4 16  2  0  0  0  0
  5  6  1  0  0  0  0
  5 24  1  0  0  0  0
  5 25  1  0  0  0  0
  6  7  1  0  0  0  0
  6 26  1  0  0  0  0
  7  8  2  0  0  0  0
  7  9  1  0  0  0  0
  9 10  1  0  0  0  0
  9 27  1  0  0  0  0
  9 28  1  0  0  0  0
 10 11  1  0  0  0  0
 10 29  1  0  0  0  0
 10 30  1  0  0  0  0
 11 12  1  0  0  0  0
 11 15  1  0  0  0  0
 11 31  1  1  0  0  0
 12 13  1  0  0  0  0
 12 32  1  0  0  0  0
 12 33  1  0  0  0  0
 13 14  1  0  0  0  0
 13 34  1  0  0  0  0
 13 35  1  0  0  0  0
 14 15  1  0  0  0  0
 14 36  1  0  0  0  0
 14 37  1  0  0  0  0
 16 17  1  0  0  0  0
 16 38  1  0  0  0  0
 17 18  1  0  0  0  0
 18 19  1  0  0  0  0
 18 20  2  0  0  0  0
M  CHG  1  19  -1
M  END
$$$$
