HTS1710-02655468-01
 OpenBabel03232612353D

 39 40  0  0  1  0  0  0  0  0999 V2000
    3.4102   -9.5443  -33.0882 N   0  0  0  0  0  0  0  0  0  0  0  0
    3.9742  -10.2776  -34.1269 C   0  0  0  0  0  0  0  0  0  0  0  0
    2.2678   -8.8304  -33.4479 C   0  0  0  0  0  0  0  0  0  0  0  0
    1.9101   -9.1246  -34.8578 C   0  0  0  0  0  0  0  0  0  0  0  0
    3.0757  -10.1506  -35.6659 S   0  0  0  0  0  0  0  0  0  0  0  0
    3.9904   -9.4557  -31.7197 C   0  0  2  0  0  0  0  0  0  0  0  0
    2.9759   -9.9435  -30.6409 C   0  0  0  0  0  0  0  0  0  0  0  0
    0.8320   -8.6238  -35.5601 C   0  0  0  0  0  0  0  0  0  0  0  0
    4.5919   -8.0484  -31.4848 C   0  0  0  0  0  0  0  0  0  0  0  0
    5.4391  -11.0925  -34.0720 S   0  0  0  0  0  0  0  0  0  0  0  0
    3.5324   -9.8659  -29.2106 C   0  0  0  0  0  0  0  0  0  0  0  0
   -1.7480   -5.8576  -35.9841 C   0  0  0  0  0  0  0  0  0  0  0  0
    1.6996   -8.0454  -32.7100 O   0  0  0  0  0  0  0  0  0  0  0  0
   -0.3483   -7.7514  -35.2806 C   0  0  0  0  0  0  0  0  0  0  0  0
   -2.5804   -6.0624  -34.8697 C   0  0  0  0  0  0  0  0  0  0  0  0
   -0.6447   -6.7164  -36.1914 C   0  0  0  0  0  0  0  0  0  0  0  0
    5.7900   -7.8895  -31.6510 O   0  5  0  0  0  0  0  0  0  0  0  0
    4.1094  -10.8481  -28.7769 O   0  5  0  0  0  0  0  0  0  0  0  0
   -2.3187   -7.1162  -33.9834 C   0  0  0  0  0  0  0  0  0  0  0  0
    3.8148   -7.1737  -31.1424 O   0  0  0  0  0  0  0  0  0  0  0  0
   -1.2179   -7.9599  -34.1913 C   0  0  0  0  0  0  0  0  0  0  0  0
    3.3841   -8.8134  -28.6131 O   0  0  0  0  0  0  0  0  0  0  0  0
   -2.0558   -4.8243  -36.8550 O   0  0  0  0  0  0  0  0  0  0  0  0
   -3.6587   -5.2509  -34.6565 O   0  0  0  0  0  0  0  0  0  0  0  0
   -1.1544   -4.2890  -37.8464 C   0  0  0  0  0  0  0  0  0  0  0  0
   -1.8440   -3.1230  -38.5904 C   0  0  0  0  0  0  0  0  0  0  0  0
    4.8132  -10.1330  -31.6245 H   0  0  0  0  0  0  0  0  0  0  0  0
    2.7181  -10.9605  -30.8511 H   0  0  0  0  0  0  0  0  0  0  0  0
    2.1251   -9.2963  -30.6876 H   0  0  0  0  0  0  0  0  0  0  0  0
    0.8449   -8.9364  -36.5436 H   0  0  0  0  0  0  0  0  0  0  0  0
   -0.0468   -6.5840  -37.0221 H   0  0  0  0  0  0  0  0  0  0  0  0
   -2.9392   -7.2721  -33.1736 H   0  0  0  0  0  0  0  0  0  0  0  0
   -1.0429   -8.7413  -33.5402 H   0  0  0  0  0  0  0  0  0  0  0  0
   -3.9939   -4.7239  -35.3550 H   0  0  0  0  0  0  0  0  0  0  0  0
   -0.8969   -5.0564  -38.5462 H   0  0  0  0  0  0  0  0  0  0  0  0
   -0.2668   -3.9323  -37.3672 H   0  0  0  0  0  0  0  0  0  0  0  0
   -2.7315   -3.4806  -39.0693 H   0  0  0  0  0  0  0  0  0  0  0  0
   -1.1769   -2.7254  -39.3266 H   0  0  0  0  0  0  0  0  0  0  0  0
   -2.1009   -2.3556  -37.8904 H   0  0  0  0  0  0  0  0  0  0  0  0
  1  2  1  0  0  0  0
  1  3  1  0  0  0  0
  1  6  1  0  0  0  0
  2  5  1  0  0  0  0
  2 10  2  0  0  0  0
  3  4  1  0  0  0  0
  3 13  2  0  0  0  0
  4  5  1  0  0  0  0
  4  8  2  0  0  0  0
  6  7  1  0  0  0  0
  6  9  1  0  0  0  0
  6 27  1  1  0  0  0
  7 11  1  0  0  0  0
  7 28  1  0  0  0  0
  7 29  1  0  0  0  0
  8 14  1  0  0  0  0
  8 30  1  0  0  0  0
  9 17  1  0  0  0  0
  9 20  2  0  0  0  0
 11 18  1  0  0  0  0
 11 22  2  0  0  0  0
 12 15  2  0  0  0  0
 12 16  1  0  0  0  0
 12 23  1  0  0  0  0
 14 16  2  0  0  0  0
 14 21  1  0  0  0  0
 15 19  1  0  0  0  0
 15 24  1  0  0  0  0
 16 31  1  0  0  0  0
 19 21  2  0  0  0  0
 19 32  1  0  0  0  0
 21 33  1  0  0  0  0
 23 25  1  0  0  0  0
 24 34  1  0  0  0  0
 25 26  1  0  0  0  0
 25 35  1  0  0  0  0
 25 36  1  0  0  0  0
 26 37  1  0  0  0  0
 26 38  1  0  0  0  0
 26 39  1  0  0  0  0
M  CHG  2  17  -1  18  -1
M  END
$$$$
