HTS1710-00918105-01
 OpenBabel03232612343D

 20 20  0  0  0  0  0  0  0  0999 V2000
    3.9102   -9.2882  -33.4342 C   0  0  0  0  0  0  0  0  0  0  0  0
    3.8090   -8.9455  -32.0592 C   0  0  0  0  0  0  0  0  0  0  0  0
    2.5309   -8.7721  -31.4675 C   0  0  0  0  0  0  0  0  0  0  0  0
    2.7322   -9.4618  -34.2065 C   0  0  0  0  0  0  0  0  0  0  0  0
    5.2640   -9.4529  -34.0736 C   0  0  0  0  0  0  0  0  0  0  0  0
    5.0548   -8.7800  -31.2285 C   0  0  0  0  0  0  0  0  0  0  0  0
    2.3523   -8.3929  -30.0203 C   0  0  0  0  0  0  0  0  0  0  0  0
    2.7673   -9.8418  -35.6644 C   0  0  0  0  0  0  0  0  0  0  0  0
    1.3774   -8.9480  -32.2486 C   0  0  0  0  0  0  0  0  0  0  0  0
    1.4771   -9.2860  -33.6021 C   0  0  0  0  0  0  0  0  0  0  0  0
    5.8732   -7.9580  -31.6067 O   0  5  0  0  0  0  0  0  0  0  0  0
    6.0388  -10.2340  -33.5478 O   0  5  0  0  0  0  0  0  0  0  0  0
    2.1774   -9.2931  -29.2162 O   0  5  0  0  0  0  0  0  0  0  0  0
    3.3202  -10.8869  -35.9643 O   0  5  0  0  0  0  0  0  0  0  0  0
    5.1561   -9.4791  -30.2345 O   0  0  0  0  0  0  0  0  0  0  0  0
    5.4887   -8.7933  -35.0744 O   0  0  0  0  0  0  0  0  0  0  0  0
    2.2104   -9.0875  -36.4447 O   0  0  0  0  0  0  0  0  0  0  0  0
    2.4270   -7.2060  -29.7471 O   0  0  0  0  0  0  0  0  0  0  0  0
    0.4467   -8.8267  -31.8197 H   0  0  0  0  0  0  0  0  0  0  0  0
    0.6191   -9.4076  -34.1625 H   0  0  0  0  0  0  0  0  0  0  0  0
  1  2  2  0  0  0  0
  1  4  1  0  0  0  0
  1  5  1  0  0  0  0
  2  3  1  0  0  0  0
  2  6  1  0  0  0  0
  3  7  1  0  0  0  0
  3  9  2  0  0  0  0
  4  8  1  0  0  0  0
  4 10  2  0  0  0  0
  5 12  1  0  0  0  0
  5 16  2  0  0  0  0
  6 11  1  0  0  0  0
  6 15  2  0  0  0  0
  7 13  1  0  0  0  0
  7 18  2  0  0  0  0
  8 14  1  0  0  0  0
  8 17  2  0  0  0  0
  9 10  1  0  0  0  0
  9 19  1  0  0  0  0
 10 20  1  0  0  0  0
M  CHG  4  11  -1  12  -1  13  -1  14  -1
M  END
$$$$
