HTS1710-02659607-01
 OpenBabel03232612353D

 41 41  0  0  0  0  0  0  0  0999 V2000
    4.2099   -9.3671  -33.4840 C   0  0  0  0  0  0  0  0  0  0  0  0
    4.5025   -9.0367  -32.1774 C   0  0  0  0  0  0  0  0  0  0  0  0
    3.2348  -10.0618  -30.2612 C   0  0  0  0  0  0  0  0  0  0  0  0
    3.5388   -9.0093  -31.0678 C   0  0  0  0  0  0  0  0  0  0  0  0
    3.7825  -11.4523  -30.3007 C   0  0  0  0  0  0  0  0  0  0  0  0
    5.2643   -9.3411  -34.5889 C   0  0  0  0  0  0  0  0  0  0  0  0
    2.7880   -9.7456  -33.8787 C   0  0  0  0  0  0  0  0  0  0  0  0
    3.1743  -12.4502  -29.3571 C   0  0  0  0  0  0  0  0  0  0  0  0
    2.3045  -13.4669  -29.8175 C   0  0  0  0  0  0  0  0  0  0  0  0
    3.4818  -12.3678  -27.9865 C   0  0  0  0  0  0  0  0  0  0  0  0
    1.7687  -14.3873  -28.8966 C   0  0  0  0  0  0  0  0  0  0  0  0
    4.6986  -11.7748  -31.0374 O   0  0  0  0  0  0  0  0  0  0  0  0
    5.7511   -8.3153  -35.0304 O   0  0  0  0  0  0  0  0  0  0  0  0
    2.0480  -10.4292  -33.1891 O   0  0  0  0  0  0  0  0  0  0  0  0
    5.7477   -8.6825  -31.7797 O   0  5  0  0  0  0  0  0  0  0  0  0
    5.7498  -10.5035  -35.1589 N   0  0  0  0  0  0  0  0  0  0  0  0
    2.9558   -7.8083  -30.8461 O   0  5  0  0  0  0  0  0  0  0  0  0
    2.9420  -13.2897  -27.0780 C   0  0  0  0  0  0  0  0  0  0  0  0
    2.0858  -14.3073  -27.5290 C   0  0  0  0  0  0  0  0  0  0  0  0
    2.4179   -9.2653  -35.1043 O   0  0  0  0  0  0  0  0  0  0  0  0
    1.9113  -13.5654  -31.2888 C   0  0  0  0  0  0  0  0  0  0  0  0
    1.5509  -10.0447  -35.9500 C   0  0  0  0  0  0  0  0  0  0  0  0
    1.4965  -15.3068  -26.5444 C   0  0  0  0  0  0  0  0  0  0  0  0
    2.2646  -11.3702  -36.2761 C   0  0  0  0  0  0  0  0  0  0  0  0
    2.5348   -9.8760  -29.5260 H   0  0  0  0  0  0  0  0  0  0  0  0
    4.1098  -11.6227  -27.6469 H   0  0  0  0  0  0  0  0  0  0  0  0
    1.1348  -15.1305  -29.2297 H   0  0  0  0  0  0  0  0  0  0  0  0
    6.4296  -10.4567  -35.8696 H   0  0  0  0  0  0  0  0  0  0  0  0
    5.4159  -11.3780  -34.8541 H   0  0  0  0  0  0  0  0  0  0  0  0
    3.1746  -13.2201  -26.0749 H   0  0  0  0  0  0  0  0  0  0  0  0
    2.4062  -12.7951  -31.8426 H   0  0  0  0  0  0  0  0  0  0  0  0
    0.8520  -13.4483  -31.3836 H   0  0  0  0  0  0  0  0  0  0  0  0
    2.2002  -14.5219  -31.6719 H   0  0  0  0  0  0  0  0  0  0  0  0
    1.3494   -9.5093  -36.8543 H   0  0  0  0  0  0  0  0  0  0  0  0
    0.6228  -10.2362  -35.4530 H   0  0  0  0  0  0  0  0  0  0  0  0
    0.8742  -16.0007  -27.0700 H   0  0  0  0  0  0  0  0  0  0  0  0
    0.9127  -14.7863  -25.8142 H   0  0  0  0  0  0  0  0  0  0  0  0
    2.2882  -15.8362  -26.0567 H   0  0  0  0  0  0  0  0  0  0  0  0
    3.1900  -11.1643  -36.7723 H   0  0  0  0  0  0  0  0  0  0  0  0
    1.6424  -11.9629  -36.9136 H   0  0  0  0  0  0  0  0  0  0  0  0
    2.4573  -11.9041  -35.3691 H   0  0  0  0  0  0  0  0  0  0  0  0
  1  2  2  0  0  0  0
  1  6  1  0  0  0  0
  1  7  1  0  0  0  0
  2  4  1  0  0  0  0
  2 15  1  0  0  0  0
  3  4  2  0  0  0  0
  3  5  1  0  0  0  0
  3 25  1  0  0  0  0
  4 17  1  0  0  0  0
  5  8  1  0  0  0  0
  5 12  2  0  0  0  0
  6 13  2  0  0  0  0
  6 16  1  0  0  0  0
  7 14  2  0  0  0  0
  7 20  1  0  0  0  0
  8  9  2  0  0  0  0
  8 10  1  0  0  0  0
  9 11  1  0  0  0  0
  9 21  1  0  0  0  0
 10 18  2  0  0  0  0
 10 26  1  0  0  0  0
 11 19  2  0  0  0  0
 11 27  1  0  0  0  0
 16 28  1  0  0  0  0
 16 29  1  0  0  0  0
 18 19  1  0  0  0  0
 18 30  1  0  0  0  0
 19 23  1  0  0  0  0
 20 22  1  0  0  0  0
 21 31  1  0  0  0  0
 21 32  1  0  0  0  0
 21 33  1  0  0  0  0
 22 24  1  0  0  0  0
 22 34  1  0  0  0  0
 22 35  1  0  0  0  0
 23 36  1  0  0  0  0
 23 37  1  0  0  0  0
 23 38  1  0  0  0  0
 24 39  1  0  0  0  0
 24 40  1  0  0  0  0
 24 41  1  0  0  0  0
M  CHG  2  15  -1  17  -1
M  END
$$$$
