HTS1710-01161290-01
 OpenBabel03232612353D

 32 33  0  0  1  0  0  0  0  0999 V2000
    2.8535  -10.9670  -33.0674 N   0  0  0  0  0  0  0  0  0  0  0  0
    1.6255  -11.4194  -33.5443 C   0  0  0  0  0  0  0  0  0  0  0  0
    3.3295  -11.6781  -31.9667 C   0  0  0  0  0  0  0  0  0  0  0  0
    3.5928   -9.8013  -33.6256 C   0  0  2  0  0  0  0  0  0  0  0  0
    0.9785  -12.8338  -32.6575 S   0  0  0  0  0  0  0  0  0  0  0  0
    2.3856  -12.7594  -31.6202 C   0  0  0  0  0  0  0  0  0  0  0  0
    4.6562  -10.2530  -34.6737 C   0  0  0  0  0  0  0  0  0  0  0  0
    4.1246   -8.9054  -32.4813 C   0  0  0  0  0  0  0  0  0  0  0  0
    0.7069  -10.6905  -34.7423 S   0  0  0  0  0  0  0  0  0  0  0  0
    5.0136   -9.1765  -35.7134 C   0  0  0  0  0  0  0  0  0  0  0  0
    5.3991  -14.8114  -28.1845 C   0  0  0  0  0  0  0  0  0  0  0  0
    2.6017  -13.6180  -30.5701 C   0  0  0  0  0  0  0  0  0  0  0  0
    4.3703  -11.4357  -31.3773 O   0  0  0  0  0  0  0  0  0  0  0  0
    3.7478  -13.6218  -29.6592 C   0  0  0  0  0  0  0  0  0  0  0  0
    6.1044  -13.6593  -27.9383 O   0  0  0  0  0  0  0  0  0  0  0  0
    4.2617  -14.7414  -29.0966 C   0  0  0  0  0  0  0  0  0  0  0  0
    3.4042   -8.6985  -31.5182 O   0  5  0  0  0  0  0  0  0  0  0  0
    5.8844  -15.9054  -27.5097 C   0  0  0  0  0  0  0  0  0  0  0  0
    7.0675  -14.0950  -27.0660 C   0  0  0  0  0  0  0  0  0  0  0  0
    6.9911  -15.4290  -26.7693 C   0  0  0  0  0  0  0  0  0  0  0  0
    4.5507   -9.2984  -36.8351 O   0  5  0  0  0  0  0  0  0  0  0  0
    5.2510   -8.4588  -32.6178 O   0  0  0  0  0  0  0  0  0  0  0  0
    5.7428   -8.2709  -35.3472 O   0  0  0  0  0  0  0  0  0  0  0  0
    2.9254   -9.1786  -34.1839 H   0  0  0  0  0  0  0  0  0  0  0  0
    4.2742  -11.1072  -35.1927 H   0  0  0  0  0  0  0  0  0  0  0  0
    5.5530  -10.4653  -34.1300 H   0  0  0  0  0  0  0  0  0  0  0  0
    1.8795  -14.3367  -30.4057 H   0  0  0  0  0  0  0  0  0  0  0  0
    4.1905  -12.7175  -29.4324 H   0  0  0  0  0  0  0  0  0  0  0  0
    3.8033  -15.6343  -29.3368 H   0  0  0  0  0  0  0  0  0  0  0  0
    5.5189  -16.8701  -27.5372 H   0  0  0  0  0  0  0  0  0  0  0  0
    7.7872  -13.4719  -26.6677 H   0  0  0  0  0  0  0  0  0  0  0  0
    7.6070  -15.9695  -26.1419 H   0  0  0  0  0  0  0  0  0  0  0  0
  1  2  1  0  0  0  0
  1  3  1  0  0  0  0
  1  4  1  0  0  0  0
  2  5  1  0  0  0  0
  2  9  2  0  0  0  0
  3  6  1  0  0  0  0
  3 13  2  0  0  0  0
  4  7  1  0  0  0  0
  4  8  1  0  0  0  0
  4 24  1  6  0  0  0
  5  6  1  0  0  0  0
  6 12  2  0  0  0  0
  7 10  1  0  0  0  0
  7 25  1  0  0  0  0
  7 26  1  0  0  0  0
  8 17  1  0  0  0  0
  8 22  2  0  0  0  0
 10 21  1  0  0  0  0
 10 23  2  0  0  0  0
 11 16  1  0  0  0  0
 11 15  1  0  0  0  0
 11 18  2  0  0  0  0
 12 14  1  0  0  0  0
 12 27  1  0  0  0  0
 14 16  2  0  0  0  0
 14 28  1  0  0  0  0
 15 19  1  0  0  0  0
 16 29  1  0  0  0  0
 18 20  1  0  0  0  0
 18 30  1  0  0  0  0
 19 20  2  0  0  0  0
 19 31  1  0  0  0  0
 20 32  1  0  0  0  0
M  CHG  2  17  -1  21  -1
M  END
$$$$
