HTS1710-05118261-01
 OpenBabel03232612353D

 35 36  0  0  0  0  0  0  0  0999 V2000
    7.0689  -15.8020  -26.8284 C   0  0  0  0  0  0  0  0  0  0  0  0
    6.7095  -14.4711  -27.2377 O   0  0  0  0  0  0  0  0  0  0  0  0
    5.4516  -14.1942  -27.7040 C   0  0  0  0  0  0  0  0  0  0  0  0
    4.4750  -15.1232  -27.9555 C   0  0  0  0  0  0  0  0  0  0  0  0
    3.0010  -14.3216  -28.4789 S   0  0  0  0  0  0  0  0  0  0  0  0
    3.7783  -12.7329  -28.4333 C   0  0  0  0  0  0  0  0  0  0  0  0
    5.0687  -12.8481  -27.9561 C   0  0  0  0  0  0  0  0  0  0  0  0
    3.0078  -11.5010  -28.7792 C   0  0  0  0  0  0  0  0  0  0  0  0
    2.1726  -11.0628  -28.0045 O   0  0  0  0  0  0  0  0  0  0  0  0
    3.2670  -10.8638  -30.0059 N   0  0  0  0  0  0  0  0  0  0  0  0
    2.8084   -9.5073  -30.3741 C   0  0  0  0  0  0  0  0  0  0  0  0
    4.2859  -11.4135  -30.9271 C   0  0  0  0  0  0  0  0  0  0  0  0
    4.6536  -10.4437  -32.0197 C   0  0  0  0  0  0  0  0  0  0  0  0
    4.2722  -10.5745  -33.3291 C   0  0  0  0  0  0  0  0  0  0  0  0
    4.8451   -9.4560  -33.9897 C   0  0  0  0  0  0  0  0  0  0  0  0
    4.7291   -9.1369  -35.4335 C   0  0  0  0  0  0  0  0  0  0  0  0
    5.6642   -8.5471  -35.9465 O   0  5  0  0  0  0  0  0  0  0  0  0
    3.7201   -9.4766  -36.0252 O   0  0  0  0  0  0  0  0  0  0  0  0
    5.5066   -8.7818  -32.9816 C   0  0  0  0  0  0  0  0  0  0  0  0
    6.3019   -7.5121  -33.1477 C   0  0  0  0  0  0  0  0  0  0  0  0
    5.4183   -9.3467  -31.7352 O   0  0  0  0  0  0  0  0  0  0  0  0
    8.0867  -15.8110  -26.4985 H   0  0  0  0  0  0  0  0  0  0  0  0
    6.9559  -16.4720  -27.6550 H   0  0  0  0  0  0  0  0  0  0  0  0
    6.4314  -16.1131  -26.0274 H   0  0  0  0  0  0  0  0  0  0  0  0
    4.5888  -16.1437  -27.8524 H   0  0  0  0  0  0  0  0  0  0  0  0
    5.6913  -12.0403  -27.7985 H   0  0  0  0  0  0  0  0  0  0  0  0
    2.0763   -9.1745  -29.6683 H   0  0  0  0  0  0  0  0  0  0  0  0
    2.3759   -9.5304  -31.3525 H   0  0  0  0  0  0  0  0  0  0  0  0
    3.6410   -8.8354  -30.3680 H   0  0  0  0  0  0  0  0  0  0  0  0
    3.8994  -12.3053  -31.3746 H   0  0  0  0  0  0  0  0  0  0  0  0
    5.1687  -11.6128  -30.3563 H   0  0  0  0  0  0  0  0  0  0  0  0
    3.6949  -11.3224  -33.7443 H   0  0  0  0  0  0  0  0  0  0  0  0
    6.2721   -7.2040  -34.1719 H   0  0  0  0  0  0  0  0  0  0  0  0
    7.3168   -7.6863  -32.8570 H   0  0  0  0  0  0  0  0  0  0  0  0
    5.8812   -6.7447  -32.5320 H   0  0  0  0  0  0  0  0  0  0  0  0
  1  2  1  0  0  0  0
  1 22  1  0  0  0  0
  1 23  1  0  0  0  0
  1 24  1  0  0  0  0
  2  3  1  0  0  0  0
  3  4  2  0  0  0  0
  3  7  1  0  0  0  0
  4  5  1  0  0  0  0
  4 25  1  0  0  0  0
  5  6  1  0  0  0  0
  6  7  2  0  0  0  0
  6  8  1  0  0  0  0
  7 26  1  0  0  0  0
  8  9  2  0  0  0  0
  8 10  1  0  0  0  0
 10 11  1  0  0  0  0
 10 12  1  0  0  0  0
 11 27  1  0  0  0  0
 11 28  1  0  0  0  0
 11 29  1  0  0  0  0
 12 13  1  0  0  0  0
 12 30  1  0  0  0  0
 12 31  1  0  0  0  0
 13 14  2  0  0  0  0
 13 21  1  0  0  0  0
 14 15  1  0  0  0  0
 14 32  1  0  0  0  0
 15 16  1  0  0  0  0
 15 19  2  0  0  0  0
 16 17  1  0  0  0  0
 16 18  2  0  0  0  0
 19 20  1  0  0  0  0
 19 21  1  0  0  0  0
 20 33  1  0  0  0  0
 20 34  1  0  0  0  0
 20 35  1  0  0  0  0
M  CHG  1  17  -1
M  END
$$$$
