HTS1710-02008132-01
 OpenBabel03232612343D

 33 33  0  0  0  0  0  0  0  0999 V2000
    4.0583  -11.0867  -31.3799 C   0  0  0  0  0  0  0  0  0  0  0  0
    4.6969  -10.1626  -32.2970 C   0  0  0  0  0  0  0  0  0  0  0  0
    4.1098  -10.4245  -30.1622 C   0  0  0  0  0  0  0  0  0  0  0  0
    5.0350   -9.0861  -31.4911 C   0  0  0  0  0  0  0  0  0  0  0  0
    4.6976   -9.1965  -30.1774 O   0  0  0  0  0  0  0  0  0  0  0  0
    4.9591  -10.3050  -33.7671 C   0  0  0  0  0  0  0  0  0  0  0  0
    3.4624  -12.4379  -31.6458 C   0  0  0  0  0  0  0  0  0  0  0  0
    2.0815  -12.5924  -31.6318 N   0  0  0  0  0  0  0  0  0  0  0  0
    3.9532  -10.7813  -34.5995 N   0  0  0  0  0  0  0  0  0  0  0  0
    0.6908  -13.8645  -33.2357 C   0  0  0  0  0  0  0  0  0  0  0  0
    4.0549   -9.6036  -36.7714 C   0  0  0  0  0  0  0  0  0  0  0  0
    4.1291  -13.4296  -31.8765 O   0  0  0  0  0  0  0  0  0  0  0  0
    6.0220  -10.0207  -34.2882 O   0  0  0  0  0  0  0  0  0  0  0  0
    1.0609  -13.0451  -34.0585 O   0  5  0  0  0  0  0  0  0  0  0  0
    4.9980   -8.8458  -36.6221 O   0  5  0  0  0  0  0  0  0  0  0  0
    1.4070  -13.8745  -31.8804 C   0  0  0  0  0  0  0  0  0  0  0  0
    4.1174  -10.9542  -36.0503 C   0  0  0  0  0  0  0  0  0  0  0  0
    3.5657  -10.9109  -28.8402 C   0  0  0  0  0  0  0  0  0  0  0  0
    5.7486   -7.8243  -31.9139 C   0  0  0  0  0  0  0  0  0  0  0  0
    3.0662   -9.3800  -37.4488 O   0  0  0  0  0  0  0  0  0  0  0  0
   -0.1993  -14.6808  -33.3984 O   0  0  0  0  0  0  0  0  0  0  0  0
    1.5257  -11.8015  -31.4455 H   0  0  0  0  0  0  0  0  0  0  0  0
    3.0858  -11.0151  -34.1968 H   0  0  0  0  0  0  0  0  0  0  0  0
    0.6888  -14.0480  -31.1064 H   0  0  0  0  0  0  0  0  0  0  0  0
    2.1431  -14.6510  -31.8894 H   0  0  0  0  0  0  0  0  0  0  0  0
    3.3354  -11.5849  -36.4188 H   0  0  0  0  0  0  0  0  0  0  0  0
    5.0733  -11.3977  -36.2361 H   0  0  0  0  0  0  0  0  0  0  0  0
    3.1340  -11.8816  -28.9677 H   0  0  0  0  0  0  0  0  0  0  0  0
    2.8172  -10.2309  -28.4907 H   0  0  0  0  0  0  0  0  0  0  0  0
    4.3602  -10.9649  -28.1257 H   0  0  0  0  0  0  0  0  0  0  0  0
    5.9543   -7.8653  -32.9631 H   0  0  0  0  0  0  0  0  0  0  0  0
    6.6679   -7.7362  -31.3734 H   0  0  0  0  0  0  0  0  0  0  0  0
    5.1294   -6.9771  -31.7048 H   0  0  0  0  0  0  0  0  0  0  0  0
  1  2  1  0  0  0  0
  1  3  2  0  0  0  0
  1  7  1  0  0  0  0
  2  4  2  0  0  0  0
  2  6  1  0  0  0  0
  3  5  1  0  0  0  0
  3 18  1  0  0  0  0
  4  5  1  0  0  0  0
  4 19  1  0  0  0  0
  6  9  1  0  0  0  0
  6 13  2  0  0  0  0
  7  8  1  0  0  0  0
  7 12  2  0  0  0  0
  8 16  1  0  0  0  0
  8 22  1  0  0  0  0
  9 17  1  0  0  0  0
  9 23  1  0  0  0  0
 10 14  1  0  0  0  0
 10 16  1  0  0  0  0
 10 21  2  0  0  0  0
 11 15  1  0  0  0  0
 11 17  1  0  0  0  0
 11 20  2  0  0  0  0
 16 24  1  0  0  0  0
 16 25  1  0  0  0  0
 17 26  1  0  0  0  0
 17 27  1  0  0  0  0
 18 28  1  0  0  0  0
 18 29  1  0  0  0  0
 18 30  1  0  0  0  0
 19 31  1  0  0  0  0
 19 32  1  0  0  0  0
 19 33  1  0  0  0  0
M  CHG  2  14  -1  15  -1
M  END
$$$$
