HTS1710-00384858-01
 OpenBabel03232612353D

 39 41  0  0  0  0  0  0  0  0999 V2000
    4.8456  -13.4048  -28.9207 C   0  0  0  0  0  0  0  0  0  0  0  0
    4.0282  -12.2683  -29.3918 N   0  0  0  0  0  0  0  0  0  0  0  0
    4.2393  -10.9988  -28.6732 C   0  0  0  0  0  0  0  0  0  0  0  0
    4.1693   -9.8331  -29.6232 C   0  0  0  0  0  0  0  0  0  0  0  0
    3.1675   -8.9006  -29.6219 C   0  0  0  0  0  0  0  0  0  0  0  0
    3.5455   -7.9581  -30.6135 C   0  0  0  0  0  0  0  0  0  0  0  0
    2.7873   -6.7432  -30.9958 C   0  0  0  0  0  0  0  0  0  0  0  0
    2.8007   -5.7875  -30.2399 O   0  5  0  0  0  0  0  0  0  0  0  0
    2.1860   -6.7772  -32.0542 O   0  0  0  0  0  0  0  0  0  0  0  0
    4.7477   -8.4451  -31.0899 C   0  0  0  0  0  0  0  0  0  0  0  0
    5.5915   -7.8058  -32.1615 C   0  0  0  0  0  0  0  0  0  0  0  0
    5.1838   -9.6099  -30.5117 O   0  0  0  0  0  0  0  0  0  0  0  0
    2.9792  -12.3918  -30.3080 C   0  0  0  0  0  0  0  0  0  0  0  0
    2.1476  -11.5135  -30.4615 O   0  0  0  0  0  0  0  0  0  0  0  0
    2.8269  -13.7489  -31.0157 C   0  0  0  0  0  0  0  0  0  0  0  0
    2.0017  -13.6489  -32.2306 N   0  0  0  0  0  0  0  0  0  0  0  0
    0.8442  -14.3909  -32.4146 N   0  0  0  0  0  0  0  0  0  0  0  0
    0.2722  -13.9853  -33.5595 N   0  0  0  0  0  0  0  0  0  0  0  0
    1.0615  -13.0098  -34.0688 C   0  0  0  0  0  0  0  0  0  0  0  0
    0.8794  -12.2863  -35.2532 C   0  0  0  0  0  0  0  0  0  0  0  0
    1.8600  -11.3264  -35.5889 C   0  0  0  0  0  0  0  0  0  0  0  0
    2.9856  -11.1196  -34.7520 C   0  0  0  0  0  0  0  0  0  0  0  0
    3.1360  -11.8628  -33.5625 C   0  0  0  0  0  0  0  0  0  0  0  0
    2.1300  -12.7913  -33.2740 C   0  0  0  0  0  0  0  0  0  0  0  0
    5.5801  -13.0524  -28.2269 H   0  0  0  0  0  0  0  0  0  0  0  0
    5.3341  -13.8629  -29.7552 H   0  0  0  0  0  0  0  0  0  0  0  0
    4.2148  -14.1222  -28.4387 H   0  0  0  0  0  0  0  0  0  0  0  0
    5.2022  -11.0148  -28.2069 H   0  0  0  0  0  0  0  0  0  0  0  0
    3.4721  -10.8886  -27.9356 H   0  0  0  0  0  0  0  0  0  0  0  0
    2.3225   -8.8860  -29.0296 H   0  0  0  0  0  0  0  0  0  0  0  0
    5.1141   -6.9122  -32.5056 H   0  0  0  0  0  0  0  0  0  0  0  0
    5.7057   -8.4866  -32.9791 H   0  0  0  0  0  0  0  0  0  0  0  0
    6.5539   -7.5646  -31.7611 H   0  0  0  0  0  0  0  0  0  0  0  0
    2.3663  -14.4402  -30.3413 H   0  0  0  0  0  0  0  0  0  0  0  0
    3.8018  -14.0812  -31.3054 H   0  0  0  0  0  0  0  0  0  0  0  0
    0.0594  -12.4480  -35.8585 H   0  0  0  0  0  0  0  0  0  0  0  0
    1.7559  -10.7702  -36.4519 H   0  0  0  0  0  0  0  0  0  0  0  0
    3.6988  -10.4214  -35.0146 H   0  0  0  0  0  0  0  0  0  0  0  0
    3.9462  -11.7286  -32.9374 H   0  0  0  0  0  0  0  0  0  0  0  0
  1  2  1  0  0  0  0
  1 25  1  0  0  0  0
  1 26  1  0  0  0  0
  1 27  1  0  0  0  0
  2  3  1  0  0  0  0
  2 13  1  0  0  0  0
  3  4  1  0  0  0  0
  3 28  1  0  0  0  0
  3 29  1  0  0  0  0
  4  5  2  0  0  0  0
  4 12  1  0  0  0  0
  5  6  1  0  0  0  0
  5 30  1  0  0  0  0
  6  7  1  0  0  0  0
  6 10  2  0  0  0  0
  7  8  1  0  0  0  0
  7  9  2  0  0  0  0
 10 11  1  0  0  0  0
 10 12  1  0  0  0  0
 11 31  1  0  0  0  0
 11 32  1  0  0  0  0
 11 33  1  0  0  0  0
 13 14  2  0  0  0  0
 13 15  1  0  0  0  0
 15 16  1  0  0  0  0
 15 34  1  0  0  0  0
 15 35  1  0  0  0  0
 16 17  1  0  0  0  0
 16 24  1  0  0  0  0
 17 18  2  0  0  0  0
 18 19  1  0  0  0  0
 19 20  2  0  0  0  0
 19 24  1  0  0  0  0
 20 21  1  0  0  0  0
 20 36  1  0  0  0  0
 21 22  2  0  0  0  0
 21 37  1  0  0  0  0
 22 23  1  0  0  0  0
 22 38  1  0  0  0  0
 23 24  2  0  0  0  0
 23 39  1  0  0  0  0
M  CHG  1   8  -1
M  END
$$$$
