HTS1710-01816850-01
 OpenBabel03232612353D

 57 60  0  0  1  0  0  0  0  0999 V2000
    4.2134  -10.5012  -33.3654 C   0  0  0  0  0  0  0  0  0  0  0  0
    4.3666  -11.0434  -31.9292 C   0  0  1  0  0  0  0  0  0  0  0  0
    3.6149  -10.2144  -30.8144 C   0  0  1  0  0  0  0  0  0  0  0  0
   -0.4452   -6.8750  -34.7980 C   0  0  1  0  0  0  0  0  0  0  0  0
    3.7243  -12.4572  -31.7792 C   0  0  2  0  0  0  0  0  0  0  0  0
   -1.9377   -7.2407  -34.4872 C   0  0  1  0  0  0  0  0  0  0  0  0
    2.7119  -11.2974  -30.1475 C   0  0  1  0  0  0  0  0  0  0  0  0
   -2.0224   -7.0020  -32.9462 C   0  0  1  0  0  0  0  0  0  0  0  0
    0.1479   -6.6243  -33.3752 C   0  0  2  0  0  0  0  0  0  0  0  0
    0.2648   -7.9783  -35.6002 C   0  0  0  0  0  0  0  0  0  0  0  0
   -2.9952   -6.4978  -35.3338 C   0  0  0  0  0  0  0  0  0  0  0  0
    4.4985   -9.4420  -29.8078 C   0  0  0  0  0  0  0  0  0  0  0  0
    2.9968  -10.7173  -34.0013 N   0  0  0  0  0  0  0  0  0  0  0  0
    2.2875  -12.1256  -31.3636 C   0  0  0  0  0  0  0  0  0  0  0  0
   -0.6742   -7.5684  -32.4900 C   0  0  0  0  0  0  0  0  0  0  0  0
    0.5116   -9.1818  -34.9572 N   0  0  0  0  0  0  0  0  0  0  0  0
    5.1020   -9.9056  -33.9515 O   0  0  0  0  0  0  0  0  0  0  0  0
    4.2800  -13.1208  -30.4901 C   0  0  0  0  0  0  0  0  0  0  0  0
   -0.3438   -5.2380  -32.8826 C   0  0  0  0  0  0  0  0  0  0  0  0
   -1.8492   -5.4901  -32.6083 C   0  0  0  0  0  0  0  0  0  0  0  0
    3.5800  -12.3209  -29.3613 C   0  0  0  0  0  0  0  0  0  0  0  0
    0.5884   -7.8387  -36.7690 O   0  0  0  0  0  0  0  0  0  0  0  0
   -3.9765   -7.1287  -35.6862 O   0  5  0  0  0  0  0  0  0  0  0  0
    4.1950   -9.4629  -28.6270 O   0  5  0  0  0  0  0  0  0  0  0  0
    5.4618   -8.8550  -30.2697 O   0  0  0  0  0  0  0  0  0  0  0  0
   -2.7947   -5.3213  -35.5814 O   0  0  0  0  0  0  0  0  0  0  0  0
    1.1817  -10.3042  -35.6230 C   0  0  0  0  0  0  0  0  0  0  0  0
    2.7092  -10.2573  -35.3689 C   0  0  2  0  0  0  0  0  0  0  0  0
    3.4688  -11.1627  -36.3618 C   0  0  0  0  0  0  0  0  0  0  0  0
    5.4271  -11.0112  -31.7905 H   0  0  0  0  0  0  0  0  0  0  0  0
    3.0794   -9.3919  -31.2406 H   0  0  0  0  0  0  0  0  0  0  0  0
   -0.3259   -6.0218  -35.4326 H   0  0  0  0  0  0  0  0  0  0  0  0
    3.8703  -13.0600  -32.6511 H   0  0  0  0  0  0  0  0  0  0  0  0
   -2.1844   -8.2441  -34.7654 H   0  0  0  0  0  0  0  0  0  0  0  0
    1.9624  -10.8576  -29.5233 H   0  0  0  0  0  0  0  0  0  0  0  0
   -2.9309   -7.3906  -32.5358 H   0  0  0  0  0  0  0  0  0  0  0  0
    1.2130   -6.7256  -33.3611 H   0  0  0  0  0  0  0  0  0  0  0  0
    2.2929  -11.2021  -33.5127 H   0  0  0  0  0  0  0  0  0  0  0  0
    1.7144  -12.9910  -31.1040 H   0  0  0  0  0  0  0  0  0  0  0  0
    1.6456  -11.6678  -32.0870 H   0  0  0  0  0  0  0  0  0  0  0  0
   -0.4919   -7.4304  -31.4447 H   0  0  0  0  0  0  0  0  0  0  0  0
   -0.5102   -8.6214  -32.5862 H   0  0  0  0  0  0  0  0  0  0  0  0
    0.2271   -9.2868  -34.0206 H   0  0  0  0  0  0  0  0  0  0  0  0
    5.3436  -13.0186  -30.4320 H   0  0  0  0  0  0  0  0  0  0  0  0
    4.0930  -14.1732  -30.4416 H   0  0  0  0  0  0  0  0  0  0  0  0
   -0.2085   -4.4903  -33.6360 H   0  0  0  0  0  0  0  0  0  0  0  0
    0.1895   -4.8765  -32.0283 H   0  0  0  0  0  0  0  0  0  0  0  0
   -2.4619   -4.8826  -33.2411 H   0  0  0  0  0  0  0  0  0  0  0  0
   -2.1407   -5.2467  -31.6080 H   0  0  0  0  0  0  0  0  0  0  0  0
    4.2960  -11.8226  -28.7416 H   0  0  0  0  0  0  0  0  0  0  0  0
    3.0097  -12.9371  -28.6980 H   0  0  0  0  0  0  0  0  0  0  0  0
    0.9987  -10.2483  -36.6758 H   0  0  0  0  0  0  0  0  0  0  0  0
    0.7946  -11.2201  -35.2276 H   0  0  0  0  0  0  0  0  0  0  0  0
    3.0338   -9.2464  -35.5018 H   0  0  0  0  0  0  0  0  0  0  0  0
    3.1502  -12.1763  -36.2358 H   0  0  0  0  0  0  0  0  0  0  0  0
    4.5201  -11.0934  -36.1751 H   0  0  0  0  0  0  0  0  0  0  0  0
    3.2627  -10.8459  -37.3628 H   0  0  0  0  0  0  0  0  0  0  0  0
  1  2  1  0  0  0  0
  1 13  1  0  0  0  0
  1 17  2  0  0  0  0
  2  3  1  0  0  0  0
  2  5  1  0  0  0  0
  2 30  1  1  0  0  0
  3  7  1  0  0  0  0
  3 12  1  0  0  0  0
  3 31  1  6  0  0  0
  4 10  1  0  0  0  0
  4  6  1  0  0  0  0
  4  9  1  0  0  0  0
  4 32  1  6  0  0  0
  5 14  1  0  0  0  0
  5 18  1  0  0  0  0
  5 33  1  6  0  0  0
  6  8  1  0  0  0  0
  6 11  1  0  0  0  0
  6 34  1  6  0  0  0
  7 14  1  0  0  0  0
  7 21  1  0  0  0  0
  7 35  1  1  0  0  0
  8 15  1  0  0  0  0
  8 20  1  0  0  0  0
  8 36  1  1  0  0  0
  9 15  1  0  0  0  0
  9 19  1  0  0  0  0
  9 37  1  1  0  0  0
 10 16  1  0  0  0  0
 10 22  2  0  0  0  0
 11 23  1  0  0  0  0
 11 26  2  0  0  0  0
 12 24  1  0  0  0  0
 12 25  2  0  0  0  0
 13 28  1  0  0  0  0
 13 38  1  0  0  0  0
 14 39  1  0  0  0  0
 14 40  1  0  0  0  0
 15 41  1  0  0  0  0
 15 42  1  0  0  0  0
 16 27  1  0  0  0  0
 16 43  1  0  0  0  0
 18 21  1  0  0  0  0
 18 44  1  0  0  0  0
 18 45  1  0  0  0  0
 19 20  1  0  0  0  0
 19 46  1  0  0  0  0
 19 47  1  0  0  0  0
 20 48  1  0  0  0  0
 20 49  1  0  0  0  0
 21 50  1  0  0  0  0
 21 51  1  0  0  0  0
 27 28  1  0  0  0  0
 27 52  1  0  0  0  0
 27 53  1  0  0  0  0
 28 29  1  0  0  0  0
 28 54  1  6  0  0  0
 29 55  1  0  0  0  0
 29 56  1  0  0  0  0
 29 57  1  0  0  0  0
M  CHG  2  23  -1  24  -1
M  END
$$$$
