HTS1710-02912306-01
 OpenBabel03232612363D

 35 35  0  0  0  0  0  0  0  0999 V2000
    5.0469  -13.8037  -28.4569 C   0  0  0  0  0  0  0  0  0  0  0  0
    5.1297  -13.7423  -29.7572 N   0  0  0  0  0  0  0  0  0  0  0  0
    6.3099  -13.9095  -27.6097 C   0  0  0  0  0  0  0  0  0  0  0  0
    2.1786  -11.2353  -32.6871 C   0  0  0  0  0  0  0  0  0  0  0  0
    3.8650  -10.0002  -31.3946 C   0  0  0  0  0  0  0  0  0  0  0  0
    3.6301  -13.7719  -27.9145 C   0  0  0  0  0  0  0  0  0  0  0  0
    1.0450  -11.2512  -33.6894 C   0  0  0  0  0  0  0  0  0  0  0  0
    4.5211   -8.6950  -31.0045 C   0  0  0  0  0  0  0  0  0  0  0  0
    2.8050  -10.0229  -32.3261 C   0  0  0  0  0  0  0  0  0  0  0  0
    4.0935  -13.6464  -30.6346 N   0  0  0  0  0  0  0  0  0  0  0  0
    3.6886  -12.4330  -31.1769 C   0  0  0  0  0  0  0  0  0  0  0  0
    4.3043  -11.2131  -30.8285 C   0  0  0  0  0  0  0  0  0  0  0  0
    2.6292  -12.4359  -32.0987 C   0  0  0  0  0  0  0  0  0  0  0  0
    7.1910  -13.0656  -27.5402 O   0  0  0  0  0  0  0  0  0  0  0  0
    0.6493  -12.3383  -34.0755 O   0  5  0  0  0  0  0  0  0  0  0  0
    5.7224   -8.7076  -30.7942 O   0  5  0  0  0  0  0  0  0  0  0  0
    3.2594  -12.9543  -27.0897 O   0  0  0  0  0  0  0  0  0  0  0  0
    0.5958  -10.1772  -34.0509 O   0  0  0  0  0  0  0  0  0  0  0  0
    3.8086   -7.7092  -30.9225 O   0  0  0  0  0  0  0  0  0  0  0  0
    6.3616  -15.0830  -26.9104 O   0  0  0  0  0  0  0  0  0  0  0  0
    2.6318  -14.8233  -28.4347 C   0  0  0  0  0  0  0  0  0  0  0  0
    1.3001  -15.1343  -27.2532 Cl  0  0  0  0  0  0  0  0  0  0  0  0
    5.4431  -16.1446  -27.2298 C   0  0  0  0  0  0  0  0  0  0  0  0
    5.8678  -17.4013  -26.4480 C   0  0  0  0  0  0  0  0  0  0  0  0
    2.4827   -9.1390  -32.7501 H   0  0  0  0  0  0  0  0  0  0  0  0
    3.6137  -14.4659  -30.8941 H   0  0  0  0  0  0  0  0  0  0  0  0
    5.0840  -11.2088  -30.1524 H   0  0  0  0  0  0  0  0  0  0  0  0
    2.1743  -13.3277  -32.3490 H   0  0  0  0  0  0  0  0  0  0  0  0
    3.1560  -15.7388  -28.6134 H   0  0  0  0  0  0  0  0  0  0  0  0
    2.1937  -14.4463  -29.3351 H   0  0  0  0  0  0  0  0  0  0  0  0
    5.4724  -16.3448  -28.2805 H   0  0  0  0  0  0  0  0  0  0  0  0
    4.4460  -15.8630  -26.9625 H   0  0  0  0  0  0  0  0  0  0  0  0
    6.8653  -17.6727  -26.7237 H   0  0  0  0  0  0  0  0  0  0  0  0
    5.2024  -18.2068  -26.6788 H   0  0  0  0  0  0  0  0  0  0  0  0
    5.8307  -17.1978  -25.3982 H   0  0  0  0  0  0  0  0  0  0  0  0
  1  2  2  0  0  0  0
  1  3  1  0  0  0  0
  1  6  1  0  0  0  0
  2 10  1  0  0  0  0
  3 14  2  0  0  0  0
  3 20  1  0  0  0  0
  4  7  1  0  0  0  0
  4  9  2  0  0  0  0
  4 13  1  0  0  0  0
  5  8  1  0  0  0  0
  5  9  1  0  0  0  0
  5 12  2  0  0  0  0
  6 17  2  0  0  0  0
  6 21  1  0  0  0  0
  7 15  1  0  0  0  0
  7 18  2  0  0  0  0
  8 16  1  0  0  0  0
  8 19  2  0  0  0  0
  9 25  1  0  0  0  0
 10 11  1  0  0  0  0
 10 26  1  0  0  0  0
 11 12  1  0  0  0  0
 11 13  2  0  0  0  0
 12 27  1  0  0  0  0
 13 28  1  0  0  0  0
 20 23  1  0  0  0  0
 21 22  1  0  0  0  0
 21 29  1  0  0  0  0
 21 30  1  0  0  0  0
 23 24  1  0  0  0  0
 23 31  1  0  0  0  0
 23 32  1  0  0  0  0
 24 33  1  0  0  0  0
 24 34  1  0  0  0  0
 24 35  1  0  0  0  0
M  CHG  2  15  -1  16  -1
M  END
$$$$
