HTS1710-02659608-01
 OpenBabel03232612353D

 38 37  0  0  0  0  0  0  0  0999 V2000
    4.2330  -11.3947  -29.7958 C   0  0  0  0  0  0  0  0  0  0  0  0
    4.7730   -9.9626  -32.4546 C   0  0  0  0  0  0  0  0  0  0  0  0
    4.3570  -10.0487  -29.9827 C   0  0  0  0  0  0  0  0  0  0  0  0
    4.9200   -9.4249  -31.2049 C   0  0  0  0  0  0  0  0  0  0  0  0
    5.2543   -9.5017  -33.8025 C   0  0  0  0  0  0  0  0  0  0  0  0
    3.6786  -12.1087  -28.5991 C   0  0  0  0  0  0  0  0  0  0  0  0
    6.0739   -8.6007  -33.8714 O   0  0  0  0  0  0  0  0  0  0  0  0
    3.0448  -11.5449  -27.7230 O   0  0  0  0  0  0  0  0  0  0  0  0
    3.9514   -9.1923  -29.0144 O   0  5  0  0  0  0  0  0  0  0  0  0
    5.5934   -8.2681  -31.0048 O   0  5  0  0  0  0  0  0  0  0  0  0
    4.7051  -10.1883  -35.0722 C   0  0  0  0  0  0  0  0  0  0  0  0
    3.9690  -13.6135  -28.5258 C   0  0  0  0  0  0  0  0  0  0  0  0
    2.7448  -14.4846  -28.9226 C   0  0  0  0  0  0  0  0  0  0  0  0
    3.2469  -10.7249  -34.9448 C   0  0  0  0  0  0  0  0  0  0  0  0
    2.0715  -13.9671  -30.2185 C   0  0  0  0  0  0  0  0  0  0  0  0
    2.7744  -11.4267  -36.2453 C   0  0  0  0  0  0  0  0  0  0  0  0
    2.2742   -9.5785  -34.5742 C   0  0  0  0  0  0  0  0  0  0  0  0
    1.7214  -14.5462  -27.7639 C   0  0  0  0  0  0  0  0  0  0  0  0
    4.5597  -11.9929  -30.5707 H   0  0  0  0  0  0  0  0  0  0  0  0
    4.2350  -10.8431  -32.4758 H   0  0  0  0  0  0  0  0  0  0  0  0
    5.3443  -11.0135  -35.3077 H   0  0  0  0  0  0  0  0  0  0  0  0
    4.6854   -9.4391  -35.8359 H   0  0  0  0  0  0  0  0  0  0  0  0
    4.2519  -13.8584  -27.5233 H   0  0  0  0  0  0  0  0  0  0  0  0
    4.7530  -13.8240  -29.2229 H   0  0  0  0  0  0  0  0  0  0  0  0
    3.1018  -15.4744  -29.1170 H   0  0  0  0  0  0  0  0  0  0  0  0
    3.2439  -11.4531  -34.1608 H   0  0  0  0  0  0  0  0  0  0  0  0
    1.7023  -12.9759  -30.0572 H   0  0  0  0  0  0  0  0  0  0  0  0
    1.2589  -14.6122  -30.4803 H   0  0  0  0  0  0  0  0  0  0  0  0
    2.7883  -13.9560  -31.0129 H   0  0  0  0  0  0  0  0  0  0  0  0
    2.7673  -10.7207  -37.0492 H   0  0  0  0  0  0  0  0  0  0  0  0
    1.7875  -11.8148  -36.1027 H   0  0  0  0  0  0  0  0  0  0  0  0
    3.4425  -12.2287  -36.4809 H   0  0  0  0  0  0  0  0  0  0  0  0
    2.2722   -8.8462  -35.3543 H   0  0  0  0  0  0  0  0  0  0  0  0
    2.5911   -9.1236  -33.6590 H   0  0  0  0  0  0  0  0  0  0  0  0
    1.2871   -9.9733  -34.4531 H   0  0  0  0  0  0  0  0  0  0  0  0
    1.3556  -13.5619  -27.5585 H   0  0  0  0  0  0  0  0  0  0  0  0
    2.1960  -14.9400  -26.8895 H   0  0  0  0  0  0  0  0  0  0  0  0
    0.9049  -15.1793  -28.0424 H   0  0  0  0  0  0  0  0  0  0  0  0
  1  3  2  0  0  0  0
  1  6  1  0  0  0  0
  1 19  1  0  0  0  0
  2  4  2  0  0  0  0
  2  5  1  0  0  0  0
  2 20  1  0  0  0  0
  3  4  1  0  0  0  0
  3  9  1  0  0  0  0
  4 10  1  0  0  0  0
  5  7  2  0  0  0  0
  5 11  1  0  0  0  0
  6  8  2  0  0  0  0
  6 12  1  0  0  0  0
 11 14  1  0  0  0  0
 11 21  1  0  0  0  0
 11 22  1  0  0  0  0
 12 13  1  0  0  0  0
 12 23  1  0  0  0  0
 12 24  1  0  0  0  0
 13 15  1  0  0  0  0
 13 18  1  0  0  0  0
 13 25  1  0  0  0  0
 14 16  1  0  0  0  0
 14 17  1  0  0  0  0
 14 26  1  0  0  0  0
 15 27  1  0  0  0  0
 15 28  1  0  0  0  0
 15 29  1  0  0  0  0
 16 30  1  0  0  0  0
 16 31  1  0  0  0  0
 16 32  1  0  0  0  0
 17 33  1  0  0  0  0
 17 34  1  0  0  0  0
 17 35  1  0  0  0  0
 18 36  1  0  0  0  0
 18 37  1  0  0  0  0
 18 38  1  0  0  0  0
M  CHG  2   9  -1  10  -1
M  END
$$$$
