HTS1710-02743408-01
 OpenBabel03232612353D

 54 57  0  0  0  0  0  0  0  0999 V2000
   -0.2442   -7.8238  -35.6144 N   0  0  0  0  0  0  0  0  0  0  0  0
    0.3945   -8.9108  -34.9952 C   0  0  0  0  0  0  0  0  0  0  0  0
    1.4445   -9.5489  -35.6407 C   0  0  0  0  0  0  0  0  0  0  0  0
    3.7815  -11.9567  -32.6069 N   0  0  0  0  0  0  0  0  0  0  0  0
    4.1406  -10.8907  -31.8302 N   0  0  0  0  0  0  0  0  0  0  0  0
    0.1794   -7.3655  -36.8694 C   0  0  0  0  0  0  0  0  0  0  0  0
    3.9290  -10.8678  -30.5158 C   0  0  0  0  0  0  0  0  0  0  0  0
    1.2289   -7.9888  -37.5249 N   0  0  0  0  0  0  0  0  0  0  0  0
    1.8779   -9.0776  -36.9765 C   0  0  0  0  0  0  0  0  0  0  0  0
    3.1709  -13.1130  -32.1452 C   0  0  0  0  0  0  0  0  0  0  0  0
    4.1017  -11.7828  -34.0399 C   0  0  0  0  0  0  0  0  0  0  0  0
    2.1321  -10.6453  -35.0981 N   0  0  0  0  0  0  0  0  0  0  0  0
    3.4415  -10.5105  -34.6153 C   0  0  0  0  0  0  0  0  0  0  0  0
    3.2702  -12.0419  -29.8555 C   0  0  0  0  0  0  0  0  0  0  0  0
    2.8994  -13.1434  -30.6693 C   0  0  0  0  0  0  0  0  0  0  0  0
    4.3935   -9.6159  -29.8165 C   0  0  0  0  0  0  0  0  0  0  0  0
   -1.3958   -7.1529  -34.9531 C   0  0  0  0  0  0  0  0  0  0  0  0
   -0.3371   -6.4212  -37.4419 O   0  0  0  0  0  0  0  0  0  0  0  0
    2.7619   -9.6011  -37.6336 O   0  0  0  0  0  0  0  0  0  0  0  0
    0.0215   -9.3118  -33.7281 N   0  0  0  0  0  0  0  0  0  0  0  0
    2.8706  -14.0405  -32.8805 O   0  0  0  0  0  0  0  0  0  0  0  0
    4.0406   -9.4476  -34.6695 O   0  0  0  0  0  0  0  0  0  0  0  0
    3.8108   -9.2203  -28.8253 O   0  5  0  0  0  0  0  0  0  0  0  0
    5.3603   -9.0372  -30.2875 O   0  0  0  0  0  0  0  0  0  0  0  0
   -0.9578   -6.0871  -33.9547 C   0  0  0  0  0  0  0  0  0  0  0  0
    2.9873  -12.1343  -28.4660 C   0  0  0  0  0  0  0  0  0  0  0  0
    1.4395  -11.9537  -35.0564 C   0  0  0  0  0  0  0  0  0  0  0  0
    2.2715  -14.2762  -30.1107 C   0  0  0  0  0  0  0  0  0  0  0  0
   -0.9090   -6.3755  -32.5774 C   0  0  0  0  0  0  0  0  0  0  0  0
   -0.5959   -4.8016  -34.4028 C   0  0  0  0  0  0  0  0  0  0  0  0
    2.0036  -14.3386  -28.7407 C   0  0  0  0  0  0  0  0  0  0  0  0
    2.3635  -13.2670  -27.9211 C   0  0  0  0  0  0  0  0  0  0  0  0
   -0.1966   -3.8167  -33.4853 C   0  0  0  0  0  0  0  0  0  0  0  0
   -0.5099   -5.3898  -31.6605 C   0  0  0  0  0  0  0  0  0  0  0  0
   -0.1545   -4.1098  -32.1139 C   0  0  0  0  0  0  0  0  0  0  0  0
    1.5187   -7.6477  -38.4018 H   0  0  0  0  0  0  0  0  0  0  0  0
    3.7467  -12.6345  -34.5817 H   0  0  0  0  0  0  0  0  0  0  0  0
    5.1627  -11.6850  -34.1381 H   0  0  0  0  0  0  0  0  0  0  0  0
   -1.9718   -7.8914  -34.4355 H   0  0  0  0  0  0  0  0  0  0  0  0
   -1.9699   -6.6679  -35.7146 H   0  0  0  0  0  0  0  0  0  0  0  0
   -0.7230   -8.8607  -33.2682 H   0  0  0  0  0  0  0  0  0  0  0  0
    0.4999  -10.0489  -33.2844 H   0  0  0  0  0  0  0  0  0  0  0  0
    3.2460  -11.3521  -27.8447 H   0  0  0  0  0  0  0  0  0  0  0  0
    0.4571  -11.8505  -35.4677 H   0  0  0  0  0  0  0  0  0  0  0  0
    1.3684  -12.2873  -34.0422 H   0  0  0  0  0  0  0  0  0  0  0  0
    1.9926  -12.6685  -35.6290 H   0  0  0  0  0  0  0  0  0  0  0  0
    2.0073  -15.0664  -30.7197 H   0  0  0  0  0  0  0  0  0  0  0  0
   -1.1678   -7.3159  -32.2402 H   0  0  0  0  0  0  0  0  0  0  0  0
   -0.6245   -4.5825  -35.4108 H   0  0  0  0  0  0  0  0  0  0  0  0
    1.5436  -15.1700  -28.3380 H   0  0  0  0  0  0  0  0  0  0  0  0
    2.1696  -13.3082  -26.9084 H   0  0  0  0  0  0  0  0  0  0  0  0
    0.0662   -2.8765  -33.8199 H   0  0  0  0  0  0  0  0  0  0  0  0
   -0.4778   -5.6066  -30.6521 H   0  0  0  0  0  0  0  0  0  0  0  0
    0.1374   -3.3853  -31.4395 H   0  0  0  0  0  0  0  0  0  0  0  0
  1  2  1  0  0  0  0
  1  6  1  0  0  0  0
  1 17  1  0  0  0  0
  2  3  2  0  0  0  0
  2 20  1  0  0  0  0
  3  9  1  0  0  0  0
  3 12  1  0  0  0  0
  4  5  1  0  0  0  0
  4 10  1  0  0  0  0
  4 11  1  0  0  0  0
  5  7  2  0  0  0  0
  6  8  1  0  0  0  0
  6 18  2  0  0  0  0
  7 14  1  0  0  0  0
  7 16  1  0  0  0  0
  8  9  1  0  0  0  0
  8 36  1  0  0  0  0
  9 19  2  0  0  0  0
 10 15  1  0  0  0  0
 10 21  2  0  0  0  0
 11 13  1  0  0  0  0
 11 37  1  0  0  0  0
 11 38  1  0  0  0  0
 12 13  1  0  0  0  0
 12 27  1  0  0  0  0
 13 22  2  0  0  0  0
 14 15  2  0  0  0  0
 14 26  1  0  0  0  0
 15 28  1  0  0  0  0
 16 23  1  0  0  0  0
 16 24  2  0  0  0  0
 17 25  1  0  0  0  0
 17 39  1  0  0  0  0
 17 40  1  0  0  0  0
 20 41  1  0  0  0  0
 20 42  1  0  0  0  0
 25 29  2  0  0  0  0
 25 30  1  0  0  0  0
 26 32  2  0  0  0  0
 26 43  1  0  0  0  0
 27 44  1  0  0  0  0
 27 45  1  0  0  0  0
 27 46  1  0  0  0  0
 28 31  2  0  0  0  0
 28 47  1  0  0  0  0
 29 34  1  0  0  0  0
 29 48  1  0  0  0  0
 30 33  2  0  0  0  0
 30 49  1  0  0  0  0
 31 32  1  0  0  0  0
 31 50  1  0  0  0  0
 32 51  1  0  0  0  0
 33 35  1  0  0  0  0
 33 52  1  0  0  0  0
 34 35  2  0  0  0  0
 34 53  1  0  0  0  0
 35 54  1  0  0  0  0
M  CHG  1  23  -1
M  END
$$$$
