HTS1710-00489587-01
 OpenBabel03232612353D

 36 37  0  0  0  0  0  0  0  0999 V2000
    2.8781  -11.5782  -29.3423 C   0  0  0  0  0  0  0  0  0  0  0  0
    2.4673  -12.3501  -30.4544 C   0  0  0  0  0  0  0  0  0  0  0  0
    2.8834  -12.1553  -28.0591 C   0  0  0  0  0  0  0  0  0  0  0  0
    3.4296   -9.8424  -29.5308 P   0  0  0  0  0  0  0  0  0  0  0  0
    2.4295  -11.7664  -31.7090 O   0  0  0  0  0  0  0  0  0  0  0  0
    2.0872  -13.6986  -30.2603 C   0  0  0  0  0  0  0  0  0  0  0  0
    2.4948  -13.4905  -27.8749 C   0  0  0  0  0  0  0  0  0  0  0  0
    2.4829   -8.9954  -30.3074 O   0  0  0  0  0  1  0  0  0  0  0  0
    4.7289   -9.7462  -30.2478 O   0  0  0  0  0  1  0  0  0  0  0  0
    3.6772   -9.1552  -28.2336 O   0  0  0  0  0  0  0  0  0  0  0  0
    1.4624  -12.1248  -32.7138 C   0  0  0  0  0  0  0  0  0  0  0  0
    2.1016  -14.2611  -28.9760 C   0  0  0  0  0  0  0  0  0  0  0  0
    1.8900  -11.5005  -34.0647 C   0  0  0  0  0  0  0  0  0  0  0  0
    1.9540  -10.0628  -33.9347 O   0  0  0  0  0  0  0  0  0  0  0  0
    1.1518   -9.1759  -34.6387 C   0  0  0  0  0  0  0  0  0  0  0  0
    1.4855   -8.8532  -35.9753 C   0  0  0  0  0  0  0  0  0  0  0  0
    0.0059   -8.5897  -34.0521 C   0  0  0  0  0  0  0  0  0  0  0  0
    0.6889   -7.9412  -36.6932 C   0  0  0  0  0  0  0  0  0  0  0  0
    2.9386   -9.5965  -36.8012 P   0  0  0  0  0  0  0  0  0  0  0  0
   -0.7804   -7.6842  -34.7793 C   0  0  0  0  0  0  0  0  0  0  0  0
   -0.4369   -7.3567  -36.0979 C   0  0  0  0  0  0  0  0  0  0  0  0
    3.2677   -8.9213  -38.0848 O   0  0  0  0  0  1  0  0  0  0  0  0
    2.7827  -11.0444  -37.1122 O   0  0  0  0  0  1  0  0  0  0  0  0
    4.1838   -9.4625  -35.9970 O   0  0  0  0  0  0  0  0  0  0  0  0
    3.1759  -11.5912  -27.2460 H   0  0  0  0  0  0  0  0  0  0  0  0
    1.7977  -14.2715  -31.0684 H   0  0  0  0  0  0  0  0  0  0  0  0
    2.4988  -13.9042  -26.9295 H   0  0  0  0  0  0  0  0  0  0  0  0
    0.4990  -11.7522  -32.4347 H   0  0  0  0  0  0  0  0  0  0  0  0
    1.4118  -13.1896  -32.8058 H   0  0  0  0  0  0  0  0  0  0  0  0
    1.8217  -15.2454  -28.8419 H   0  0  0  0  0  0  0  0  0  0  0  0
    1.1756  -11.7586  -34.8184 H   0  0  0  0  0  0  0  0  0  0  0  0
    2.8531  -11.8759  -34.3410 H   0  0  0  0  0  0  0  0  0  0  0  0
   -0.2533   -8.8300  -33.0825 H   0  0  0  0  0  0  0  0  0  0  0  0
    0.9362   -7.7012  -37.6660 H   0  0  0  0  0  0  0  0  0  0  0  0
   -1.6130   -7.2584  -34.3428 H   0  0  0  0  0  0  0  0  0  0  0  0
   -1.0125   -6.6856  -36.6300 H   0  0  0  0  0  0  0  0  0  0  0  0
  1  2  2  0  0  0  0
  1  3  1  0  0  0  0
  1  4  1  0  0  0  0
  2  5  1  0  0  0  0
  2  6  1  0  0  0  0
  3  7  2  0  0  0  0
  3 25  1  0  0  0  0
  4  8  1  0  0  0  0
  4  9  1  0  0  0  0
  4 10  2  0  0  0  0
  5 11  1  0  0  0  0
  6 12  2  0  0  0  0
  6 26  1  0  0  0  0
  7 12  1  0  0  0  0
  7 27  1  0  0  0  0
 11 13  1  0  0  0  0
 11 28  1  0  0  0  0
 11 29  1  0  0  0  0
 12 30  1  0  0  0  0
 13 14  1  0  0  0  0
 13 31  1  0  0  0  0
 13 32  1  0  0  0  0
 14 15  1  0  0  0  0
 15 16  2  0  0  0  0
 15 17  1  0  0  0  0
 16 18  1  0  0  0  0
 16 19  1  0  0  0  0
 17 20  2  0  0  0  0
 17 33  1  0  0  0  0
 18 21  2  0  0  0  0
 18 34  1  0  0  0  0
 19 22  1  0  0  0  0
 19 23  1  0  0  0  0
 19 24  2  0  0  0  0
 20 21  1  0  0  0  0
 20 35  1  0  0  0  0
 21 36  1  0  0  0  0
M  END
$$$$
