HTS1710-01264686-01
 OpenBabel03232612343D

 51 53  0  0  1  0  0  0  0  0999 V2000
    1.8022   -8.8125  -32.9748 C   0  0  0  0  0  0  0  0  0  0  0  0
    3.9799   -7.9531  -32.0432 C   0  0  0  0  0  0  0  0  0  0  0  0
    2.8305   -8.9386  -31.8625 C   0  0  2  0  0  0  0  0  0  0  0  0
    0.4962   -8.4444  -32.6908 C   0  0  0  0  0  0  0  0  0  0  0  0
    5.1255   -8.2707  -32.7657 C   0  0  0  0  0  0  0  0  0  0  0  0
    3.2532  -10.4063  -31.6190 C   0  0  0  0  0  0  0  0  0  0  0  0
    6.2190   -7.3023  -32.9404 C   0  0  0  0  0  0  0  0  0  0  0  0
   -0.5155   -8.3176  -33.7524 C   0  0  0  0  0  0  0  0  0  0  0  0
    3.7770   -6.7206  -31.4523 O   0  0  0  0  0  0  0  0  0  0  0  0
    2.2568   -9.0825  -34.2516 O   0  0  0  0  0  0  0  0  0  0  0  0
    5.9472   -6.0200  -32.2950 C   0  0  0  0  0  0  0  0  0  0  0  0
    0.0220   -8.6060  -35.0809 C   0  0  0  0  0  0  0  0  0  0  0  0
    3.8920  -10.7510  -30.3989 C   0  0  0  0  0  0  0  0  0  0  0  0
    1.3411   -8.9588  -35.2721 C   0  0  0  0  0  0  0  0  0  0  0  0
    4.7794   -5.7873  -31.6030 C   0  0  0  0  0  0  0  0  0  0  0  0
    7.2489   -7.5277  -33.5554 O   0  0  0  0  0  0  0  0  0  0  0  0
   -1.6798   -8.0049  -33.5611 O   0  0  0  0  0  0  0  0  0  0  0  0
    4.2726  -12.1030  -30.1547 C   0  0  0  0  0  0  0  0  0  0  0  0
    5.3658   -9.4671  -33.3501 O   0  0  0  0  0  0  0  0  0  0  0  0
    0.0321   -8.1679  -31.4499 O   0  0  0  0  0  0  0  0  0  0  0  0
    4.1104   -9.7158  -29.4952 O   0  0  0  0  0  0  0  0  0  0  0  0
    3.0145  -11.4091  -32.5821 C   0  0  0  0  0  0  0  0  0  0  0  0
    4.8969  -12.4585  -28.9711 O   0  0  0  0  0  0  0  0  0  0  0  0
    1.8493   -9.2391  -36.6606 C   0  0  0  0  0  0  0  0  0  0  0  0
    4.5503   -4.4464  -30.9572 C   0  0  0  0  0  0  0  0  0  0  0  0
    1.4018   -8.2428  -37.5752 O   0  0  0  0  0  0  0  0  0  0  0  0
    5.6943   -4.0363  -30.2146 O   0  0  0  0  0  0  0  0  0  0  0  0
    3.3868  -12.7347  -32.3384 C   0  0  0  0  0  0  0  0  0  0  0  0
    4.0081  -13.0839  -31.1357 C   0  0  0  0  0  0  0  0  0  0  0  0
    3.3276   -9.4010  -28.3307 C   0  0  0  0  0  0  0  0  0  0  0  0
    4.8225  -13.7696  -28.3825 C   0  0  0  0  0  0  0  0  0  0  0  0
    2.3656   -8.6474  -30.9438 H   0  0  0  0  0  0  0  0  0  0  0  0
    6.6503   -5.2673  -32.3594 H   0  0  0  0  0  0  0  0  0  0  0  0
   -0.6038   -8.5439  -35.8991 H   0  0  0  0  0  0  0  0  0  0  0  0
    4.7155  -10.1411  -33.3224 H   0  0  0  0  0  0  0  0  0  0  0  0
   -0.8284   -7.8140  -31.3397 H   0  0  0  0  0  0  0  0  0  0  0  0
    2.5606  -11.1619  -33.4754 H   0  0  0  0  0  0  0  0  0  0  0  0
    1.4892  -10.1948  -36.9794 H   0  0  0  0  0  0  0  0  0  0  0  0
    2.9192   -9.2308  -36.6417 H   0  0  0  0  0  0  0  0  0  0  0  0
    3.7107   -4.5145  -30.2973 H   0  0  0  0  0  0  0  0  0  0  0  0
    4.3653   -3.7248  -31.7253 H   0  0  0  0  0  0  0  0  0  0  0  0
    1.6704   -8.4859  -38.4751 H   0  0  0  0  0  0  0  0  0  0  0  0
    5.5232   -3.1723  -29.8080 H   0  0  0  0  0  0  0  0  0  0  0  0
    3.2019  -13.4590  -33.0499 H   0  0  0  0  0  0  0  0  0  0  0  0
    4.2754  -14.0657  -30.9635 H   0  0  0  0  0  0  0  0  0  0  0  0
    3.7475   -8.5488  -27.8383 H   0  0  0  0  0  0  0  0  0  0  0  0
    3.3307  -10.2365  -27.6623 H   0  0  0  0  0  0  0  0  0  0  0  0
    2.3221   -9.1834  -28.6249 H   0  0  0  0  0  0  0  0  0  0  0  0
    5.3885  -13.7855  -27.4746 H   0  0  0  0  0  0  0  0  0  0  0  0
    5.2226  -14.4901  -29.0650 H   0  0  0  0  0  0  0  0  0  0  0  0
    3.8012  -14.0079  -28.1704 H   0  0  0  0  0  0  0  0  0  0  0  0
  1  3  1  0  0  0  0
  1  4  2  0  0  0  0
  1 10  1  0  0  0  0
  2  3  1  0  0  0  0
  2  5  2  0  0  0  0
  2  9  1  0  0  0  0
  3  6  1  0  0  0  0
  3 32  1  1  0  0  0
  4  8  1  0  0  0  0
  4 20  1  0  0  0  0
  5  7  1  0  0  0  0
  5 19  1  0  0  0  0
  6 13  2  0  0  0  0
  6 22  1  0  0  0  0
  7 16  2  0  0  0  0
  7 11  1  0  0  0  0
  8 17  2  0  0  0  0
  8 12  1  0  0  0  0
  9 15  1  0  0  0  0
 10 14  1  0  0  0  0
 11 15  2  0  0  0  0
 11 33  1  0  0  0  0
 12 14  2  0  0  0  0
 12 34  1  0  0  0  0
 13 18  1  0  0  0  0
 13 21  1  0  0  0  0
 14 24  1  0  0  0  0
 15 25  1  0  0  0  0
 18 23  1  0  0  0  0
 18 29  2  0  0  0  0
 19 35  1  0  0  0  0
 20 36  1  0  0  0  0
 21 30  1  0  0  0  0
 22 28  2  0  0  0  0
 22 37  1  0  0  0  0
 23 31  1  0  0  0  0
 24 26  1  0  0  0  0
 24 38  1  0  0  0  0
 24 39  1  0  0  0  0
 25 27  1  0  0  0  0
 25 40  1  0  0  0  0
 25 41  1  0  0  0  0
 26 42  1  0  0  0  0
 27 43  1  0  0  0  0
 28 29  1  0  0  0  0
 28 44  1  0  0  0  0
 29 45  1  0  0  0  0
 30 46  1  0  0  0  0
 30 47  1  0  0  0  0
 30 48  1  0  0  0  0
 31 49  1  0  0  0  0
 31 50  1  0  0  0  0
 31 51  1  0  0  0  0
M  END
$$$$
