HTS1710-00086415-01
 OpenBabel03232612353D

 20 19  0  0  1  0  0  0  0  0999 V2000
    5.7996   -8.6929  -34.2215 C   0  0  0  0  0  0  0  0  0  0  0  0
    3.3190   -9.9193  -35.8176 C   0  0  0  0  0  0  0  0  0  0  0  0
    5.0119   -9.9623  -33.8336 C   0  0  2  0  0  0  0  0  0  0  0  0
    4.5935   -9.1687  -30.3826 C   0  0  0  0  0  0  0  0  0  0  0  0
    4.4739  -10.6591  -35.1230 C   0  0  0  0  0  0  0  0  0  0  0  0
    6.4210   -8.1214  -33.3404 O   0  5  0  0  0  0  0  0  0  0  0  0
    2.1931  -10.1280  -35.4006 O   0  5  0  0  0  0  0  0  0  0  0  0
    5.6153   -8.5648  -30.6621 O   0  5  0  0  0  0  0  0  0  0  0  0
    3.8972   -9.5922  -32.8059 C   0  0  0  0  0  0  0  0  0  0  0  0
    4.0911  -10.2073  -31.3960 C   0  0  0  0  0  0  0  0  0  0  0  0
    5.7472   -8.3396  -35.3871 O   0  0  0  0  0  0  0  0  0  0  0  0
    3.6053   -9.1630  -36.7295 O   0  0  0  0  0  0  0  0  0  0  0  0
    3.9309   -9.0058  -29.3731 O   0  0  0  0  0  0  0  0  0  0  0  0
    5.6477  -10.6731  -33.3482 H   0  0  0  0  0  0  0  0  0  0  0  0
    5.2824  -10.7431  -35.8188 H   0  0  0  0  0  0  0  0  0  0  0  0
    4.0843  -11.6068  -34.8147 H   0  0  0  0  0  0  0  0  0  0  0  0
    2.9596   -9.9329  -33.1930 H   0  0  0  0  0  0  0  0  0  0  0  0
    3.9383   -8.5301  -32.6823 H   0  0  0  0  0  0  0  0  0  0  0  0
    3.1541  -10.5968  -31.0567 H   0  0  0  0  0  0  0  0  0  0  0  0
    4.8263  -10.9812  -31.4700 H   0  0  0  0  0  0  0  0  0  0  0  0
  1  3  1  0  0  0  0
  1  6  1  0  0  0  0
  1 11  2  0  0  0  0
  2  5  1  0  0  0  0
  2  7  1  0  0  0  0
  2 12  2  0  0  0  0
  3  5  1  0  0  0  0
  3  9  1  0  0  0  0
  3 14  1  1  0  0  0
  4 10  1  0  0  0  0
  4  8  1  0  0  0  0
  4 13  2  0  0  0  0
  5 15  1  0  0  0  0
  5 16  1  0  0  0  0
  9 10  1  0  0  0  0
  9 17  1  0  0  0  0
  9 18  1  0  0  0  0
 10 19  1  0  0  0  0
 10 20  1  0  0  0  0
M  CHG  3   6  -1   7  -1   8  -1
M  END
$$$$
