HTS1710-01227211-01
 OpenBabel03232612363D

 36 37  0  0  0  0  0  0  0  0999 V2000
    3.4119   -9.2356  -29.8232 S   0  0  0  0  0  0  0  0  0  0  0  0
    3.1041  -10.0253  -36.5093 S   0  0  0  0  0  0  0  0  0  0  0  0
    1.6084   -9.1243  -35.9796 C   0  0  0  0  0  0  0  0  0  0  0  0
    3.0843  -10.9601  -30.3239 C   0  0  0  0  0  0  0  0  0  0  0  0
    1.9343  -10.2547  -32.5131 C   0  0  0  0  0  0  0  0  0  0  0  0
    1.4349  -10.4246  -33.7677 C   0  0  0  0  0  0  0  0  0  0  0  0
    3.9402   -9.3935  -28.4638 O   0  0  0  0  0  1  0  0  0  0  0  0
    3.7064   -9.1036  -37.4777 O   0  0  0  0  0  1  0  0  0  0  0  0
    3.5144  -11.9945  -29.4617 C   0  0  0  0  0  0  0  0  0  0  0  0
    1.0968   -8.1242  -36.8393 C   0  0  0  0  0  0  0  0  0  0  0  0
    0.9510   -9.3828  -34.7371 C   0  0  0  0  0  0  0  0  0  0  0  0
    2.4182  -11.2951  -31.5435 C   0  0  0  0  0  0  0  0  0  0  0  0
    4.3812   -8.7363  -30.8044 O   0  0  0  0  0  0  0  0  0  0  0  0
    2.0849   -8.6162  -29.9004 O   0  0  0  0  0  0  0  0  0  0  0  0
    2.6058  -11.2792  -37.0826 O   0  0  0  0  0  0  0  0  0  0  0  0
    3.8518  -10.1788  -35.2566 O   0  0  0  0  0  0  0  0  0  0  0  0
   -0.1957   -8.6201  -34.4128 C   0  0  0  0  0  0  0  0  0  0  0  0
    2.2094  -12.6627  -31.8397 C   0  0  0  0  0  0  0  0  0  0  0  0
   -0.0386   -7.3820  -36.4907 C   0  0  0  0  0  0  0  0  0  0  0  0
    3.2941  -13.3408  -29.7811 C   0  0  0  0  0  0  0  0  0  0  0  0
    3.7182  -14.3321  -28.9286 N   0  0  0  0  0  0  0  0  0  0  0  0
   -0.5160   -6.4090  -37.3366 N   0  0  0  0  0  0  0  0  0  0  0  0
    2.6391  -13.6731  -30.9705 C   0  0  0  0  0  0  0  0  0  0  0  0
   -0.6845   -7.6319  -35.2768 C   0  0  0  0  0  0  0  0  0  0  0  0
    1.9878   -9.2784  -32.1829 H   0  0  0  0  0  0  0  0  0  0  0  0
    1.3813  -11.4008  -34.0981 H   0  0  0  0  0  0  0  0  0  0  0  0
    3.9986  -11.7541  -28.5826 H   0  0  0  0  0  0  0  0  0  0  0  0
    1.5681   -7.9384  -37.7384 H   0  0  0  0  0  0  0  0  0  0  0  0
   -0.6827   -8.7957  -33.5200 H   0  0  0  0  0  0  0  0  0  0  0  0
    1.7297  -12.9215  -32.7160 H   0  0  0  0  0  0  0  0  0  0  0  0
    4.1794  -14.0971  -28.0912 H   0  0  0  0  0  0  0  0  0  0  0  0
    3.5607  -15.2770  -29.1554 H   0  0  0  0  0  0  0  0  0  0  0  0
   -1.3143   -5.8893  -37.0883 H   0  0  0  0  0  0  0  0  0  0  0  0
   -0.0594   -6.2321  -38.1907 H   0  0  0  0  0  0  0  0  0  0  0  0
    2.4722  -14.6634  -31.2081 H   0  0  0  0  0  0  0  0  0  0  0  0
   -1.5222   -7.0880  -35.0169 H   0  0  0  0  0  0  0  0  0  0  0  0
  1  4  1  0  0  0  0
  1  7  1  0  0  0  0
  1 13  2  0  0  0  0
  1 14  2  0  0  0  0
  2  3  1  0  0  0  0
  2  8  1  0  0  0  0
  2 15  2  0  0  0  0
  2 16  2  0  0  0  0
  3 11  2  0  0  0  0
  3 10  1  0  0  0  0
  4  9  2  0  0  0  0
  4 12  1  0  0  0  0
  5 12  1  0  0  0  0
  5  6  2  0  0  0  0
  5 25  1  0  0  0  0
  6 11  1  0  0  0  0
  6 26  1  0  0  0  0
  9 20  1  0  0  0  0
  9 27  1  0  0  0  0
 10 19  2  0  0  0  0
 10 28  1  0  0  0  0
 11 17  1  0  0  0  0
 12 18  2  0  0  0  0
 17 24  2  0  0  0  0
 17 29  1  0  0  0  0
 18 23  1  0  0  0  0
 18 30  1  0  0  0  0
 19 24  1  0  0  0  0
 19 22  1  0  0  0  0
 20 21  1  0  0  0  0
 20 23  2  0  0  0  0
 21 31  1  0  0  0  0
 21 32  1  0  0  0  0
 22 33  1  0  0  0  0
 22 34  1  0  0  0  0
 23 35  1  0  0  0  0
 24 36  1  0  0  0  0
M  END
$$$$
