HTS1710-02585265-01
 OpenBabel03232612353D

 39 40  0  0  1  0  0  0  0  0999 V2000
    3.8600  -11.8664  -30.8909 N   0  0  0  0  0  0  0  0  0  0  0  0
    4.0366  -10.8616  -31.8242 C   0  0  0  0  0  0  0  0  0  0  0  0
    4.0305  -12.9592  -31.8554 C   0  0  2  0  0  0  0  0  0  0  0  0
    4.2908  -11.8820  -32.9683 C   0  0  1  0  0  0  0  0  0  0  0  0
    3.4960  -12.1060  -29.5032 C   0  0  0  0  0  0  0  0  0  0  0  0
    2.4361  -13.8717  -31.7728 S   0  0  0  0  0  0  0  0  0  0  0  0
    3.0145  -13.3442  -29.1387 C   0  0  0  0  0  0  0  0  0  0  0  0
    3.2299  -11.8203  -33.9809 N   0  0  0  0  0  0  0  0  0  0  0  0
    3.6698  -10.9475  -28.5304 C   0  0  0  0  0  0  0  0  0  0  0  0
    2.8474  -14.5197  -30.1067 C   0  0  0  0  0  0  0  0  0  0  0  0
    3.4219  -12.2593  -35.2825 C   0  0  0  0  0  0  0  0  0  0  0  0
    3.9437   -9.6589  -31.6585 O   0  0  0  0  0  0  0  0  0  0  0  0
    2.2262   -9.5491  -36.2042 C   0  0  0  0  0  0  0  0  0  0  0  0
    2.6281  -13.7644  -27.7205 C   0  0  0  0  0  0  0  0  0  0  0  0
    4.9984  -14.0754  -27.3431 C   0  0  0  0  0  0  0  0  0  0  0  0
    2.7327  -10.6043  -27.8337 O   0  5  0  0  0  0  0  0  0  0  0  0
    3.7874  -13.6557  -26.8725 O   0  0  0  0  0  0  0  0  0  0  0  0
    4.5019  -12.7229  -35.6108 O   0  0  0  0  0  0  0  0  0  0  0  0
    2.7119   -9.0871  -35.1859 O   0  5  0  0  0  0  0  0  0  0  0  0
    5.8885  -13.3393  -27.7372 O   0  0  0  0  0  0  0  0  0  0  0  0
    4.7612  -10.4093  -28.4890 O   0  0  0  0  0  0  0  0  0  0  0  0
    2.2360  -12.1429  -36.2500 C   0  0  0  0  0  0  0  0  0  0  0  0
    1.4012  -10.8432  -36.0868 C   0  0  0  0  0  0  0  0  0  0  0  0
    2.3241   -9.0599  -37.3165 O   0  0  0  0  0  0  0  0  0  0  0  0
    5.1050  -15.5985  -27.3138 C   0  0  0  0  0  0  0  0  0  0  0  0
    4.7351  -13.7645  -31.8499 H   0  0  0  0  0  0  0  0  0  0  0  0
    5.1600  -11.8927  -33.5922 H   0  0  0  0  0  0  0  0  0  0  0  0
    2.3517  -11.4546  -33.7274 H   0  0  0  0  0  0  0  0  0  0  0  0
    3.7595  -15.0772  -30.1542 H   0  0  0  0  0  0  0  0  0  0  0  0
    2.0608  -15.1594  -29.7645 H   0  0  0  0  0  0  0  0  0  0  0  0
    2.2809  -14.7765  -27.7271 H   0  0  0  0  0  0  0  0  0  0  0  0
    1.8481  -13.1307  -27.3532 H   0  0  0  0  0  0  0  0  0  0  0  0
    1.5884  -12.9792  -36.0882 H   0  0  0  0  0  0  0  0  0  0  0  0
    2.6479  -12.1198  -37.2372 H   0  0  0  0  0  0  0  0  0  0  0  0
    0.6465  -10.8308  -36.8453 H   0  0  0  0  0  0  0  0  0  0  0  0
    0.9923  -10.8604  -35.0981 H   0  0  0  0  0  0  0  0  0  0  0  0
    4.1969  -16.0122  -26.9278 H   0  0  0  0  0  0  0  0  0  0  0  0
    5.9230  -15.8869  -26.6872 H   0  0  0  0  0  0  0  0  0  0  0  0
    5.2698  -15.9637  -28.3060 H   0  0  0  0  0  0  0  0  0  0  0  0
  1  2  1  0  0  0  0
  1  3  1  0  0  0  0
  1  5  1  0  0  0  0
  2  4  1  0  0  0  0
  2 12  2  0  0  0  0
  3  4  1  0  0  0  0
  3  6  1  0  0  0  0
  3 26  1  1  0  0  0
  4  8  1  0  0  0  0
  4 27  1  6  0  0  0
  5  7  2  0  0  0  0
  5  9  1  0  0  0  0
  6 10  1  0  0  0  0
  7 10  1  0  0  0  0
  7 14  1  0  0  0  0
  8 11  1  0  0  0  0
  8 28  1  0  0  0  0
  9 16  1  0  0  0  0
  9 21  2  0  0  0  0
 10 29  1  0  0  0  0
 10 30  1  0  0  0  0
 11 18  2  0  0  0  0
 11 22  1  0  0  0  0
 13 19  1  0  0  0  0
 13 23  1  0  0  0  0
 13 24  2  0  0  0  0
 14 17  1  0  0  0  0
 14 31  1  0  0  0  0
 14 32  1  0  0  0  0
 15 17  1  0  0  0  0
 15 20  2  0  0  0  0
 15 25  1  0  0  0  0
 22 23  1  0  0  0  0
 22 33  1  0  0  0  0
 22 34  1  0  0  0  0
 23 35  1  0  0  0  0
 23 36  1  0  0  0  0
 25 37  1  0  0  0  0
 25 38  1  0  0  0  0
 25 39  1  0  0  0  0
M  CHG  2  16  -1  19  -1
M  END
$$$$
