HTS1710-00617296-01
 OpenBabel03232612363D

 40 41  0  0  1  0  0  0  0  0999 V2000
    4.2265  -11.4337  -31.1177 C   0  0  2  0  0  0  0  0  0  0  0  0
    3.7401  -10.7186  -29.8554 C   0  0  0  0  0  0  0  0  0  0  0  0
    4.5834  -10.2965  -32.0018 N   0  0  0  0  0  0  0  0  0  0  0  0
    3.1646  -12.3513  -31.7169 C   0  0  0  0  0  0  0  0  0  0  0  0
    3.7748   -9.3901  -30.0838 C   0  0  0  0  0  0  0  0  0  0  0  0
    3.1478  -11.5062  -28.7337 C   0  0  0  0  0  0  0  0  0  0  0  0
    4.3173   -9.0740  -31.4124 C   0  0  0  0  0  0  0  0  0  0  0  0
    5.1413  -10.5176  -33.3473 C   0  0  0  0  0  0  0  0  0  0  0  0
    2.2221  -11.8388  -32.6249 C   0  0  0  0  0  0  0  0  0  0  0  0
    3.1207  -13.7149  -31.3738 C   0  0  0  0  0  0  0  0  0  0  0  0
    3.3674   -8.4056  -29.2508 O   0  5  0  0  0  0  0  0  0  0  0  0
    3.9741  -12.6877  -28.2204 C   0  0  0  0  0  0  0  0  0  0  0  0
    2.1424  -11.1374  -28.1505 O   0  0  0  0  0  0  0  0  0  0  0  0
    4.4953   -7.9737  -31.9071 O   0  0  0  0  0  0  0  0  0  0  0  0
    4.2285   -9.9732  -34.4709 C   0  0  0  0  0  0  0  0  0  0  0  0
    1.2444  -12.6770  -33.1836 C   0  0  0  0  0  0  0  0  0  0  0  0
    2.1442  -14.5571  -31.9283 C   0  0  0  0  0  0  0  0  0  0  0  0
    4.9258   -9.9532  -35.8530 C   0  0  0  0  0  0  0  0  0  0  0  0
    1.1964  -14.0451  -32.8399 C   0  0  0  0  0  0  0  0  0  0  0  0
    4.0066   -9.3920  -36.9435 C   0  0  0  0  0  0  0  0  0  0  0  0
    0.1576  -14.9393  -33.4334 N   0  0  0  0  0  0  0  0  0  0  0  0
    2.8071   -9.5478  -36.7937 O   0  5  0  0  0  0  0  0  0  0  0  0
    4.5358   -8.8433  -37.8933 O   0  0  0  0  0  0  0  0  0  0  0  0
    0.1776  -16.1310  -33.1349 O   0  0  0  0  0  0  0  0  0  0  0  0
   -0.6697  -14.4432  -34.1948 O   0  5  0  0  0  0  0  0  0  0  0  0
    5.0440  -12.1021  -30.9450 H   0  0  0  0  0  0  0  0  0  0  0  0
    5.2742  -11.5691  -33.4940 H   0  0  0  0  0  0  0  0  0  0  0  0
    6.0701   -9.9890  -33.4020 H   0  0  0  0  0  0  0  0  0  0  0  0
    2.2490  -10.8399  -32.8825 H   0  0  0  0  0  0  0  0  0  0  0  0
    3.8113  -14.0988  -30.7099 H   0  0  0  0  0  0  0  0  0  0  0  0
    4.8092  -12.8479  -28.8699 H   0  0  0  0  0  0  0  0  0  0  0  0
    3.3646  -13.5669  -28.1996 H   0  0  0  0  0  0  0  0  0  0  0  0
    4.3262  -12.4744  -27.2328 H   0  0  0  0  0  0  0  0  0  0  0  0
    3.9368   -8.9747  -34.2207 H   0  0  0  0  0  0  0  0  0  0  0  0
    3.3844  -10.6264  -34.5453 H   0  0  0  0  0  0  0  0  0  0  0  0
    0.5570  -12.2908  -33.8494 H   0  0  0  0  0  0  0  0  0  0  0  0
    2.1191  -15.5554  -31.6679 H   0  0  0  0  0  0  0  0  0  0  0  0
    5.2049  -10.9524  -36.1151 H   0  0  0  0  0  0  0  0  0  0  0  0
    5.7860   -9.3206  -35.7836 H   0  0  0  0  0  0  0  0  0  0  0  0
    1.0187  -15.1427  -33.0018 H   0  0  0  0  0  0  0  0  0  0  0  0
  1  2  1  0  0  0  0
  1  3  1  0  0  0  0
  1  4  1  0  0  0  0
  1 26  1  1  0  0  0
  2  5  2  0  0  0  0
  2  6  1  0  0  0  0
  3  7  1  0  0  0  0
  3  8  1  0  0  0  0
  4  9  2  0  0  0  0
  4 10  1  0  0  0  0
  5 11  1  0  0  0  0
  5  7  1  0  0  0  0
  6 12  1  0  0  0  0
  6 13  2  0  0  0  0
  7 14  2  0  0  0  0
  8 15  1  0  0  0  0
  8 27  1  0  0  0  0
  8 28  1  0  0  0  0
  9 16  1  0  0  0  0
  9 29  1  0  0  0  0
 10 17  2  0  0  0  0
 10 30  1  0  0  0  0
 12 31  1  0  0  0  0
 12 32  1  0  0  0  0
 12 33  1  0  0  0  0
 15 18  1  0  0  0  0
 15 34  1  0  0  0  0
 15 35  1  0  0  0  0
 16 19  2  0  0  0  0
 16 36  1  0  0  0  0
 17 19  1  0  0  0  0
 17 37  1  0  0  0  0
 18 20  1  0  0  0  0
 18 38  1  0  0  0  0
 18 39  1  0  0  0  0
 19 21  1  0  0  0  0
 20 22  1  0  0  0  0
 20 23  2  0  0  0  0
 21 24  2  0  0  0  0
 21 25  1  0  0  0  0
 21 40  1  0  0  0  0
M  CHG  3  11  -1  22  -1  25  -1
M  END
$$$$
