HTS1710-00206800-01
 OpenBabel03232612353D

 27 28  0  0  0  0  0  0  0  0999 V2000
    3.3755   -7.5216  -30.7826 C   0  0  0  0  0  0  0  0  0  0  0  0
    2.9933   -8.5695  -30.0076 N   0  0  0  0  0  0  0  0  0  0  0  0
    4.5002   -7.8768  -31.4777 C   0  0  0  0  0  0  0  0  0  0  0  0
    3.9011   -9.4921  -30.2770 C   0  0  0  0  0  0  0  0  0  0  0  0
    4.8847   -9.1580  -31.1853 O   0  0  0  0  0  0  0  0  0  0  0  0
    2.6587   -6.2199  -30.8341 C   0  0  0  0  0  0  0  0  0  0  0  0
    3.9497  -10.8396  -29.6852 C   0  0  0  0  0  0  0  0  0  0  0  0
    1.6670   -6.0749  -30.1404 O   0  5  0  0  0  0  0  0  0  0  0  0
    5.1734   -7.0655  -32.3513 O   0  0  0  0  0  0  0  0  0  0  0  0
    4.5154  -11.9133  -30.4066 C   0  0  0  0  0  0  0  0  0  0  0  0
    3.4339  -11.0841  -28.3930 C   0  0  0  0  0  0  0  0  0  0  0  0
    3.1095   -5.3625  -31.5756 O   0  0  0  0  0  0  0  0  0  0  0  0
    4.0476  -13.4279  -28.5667 C   0  0  0  0  0  0  0  0  0  0  0  0
    3.4839  -12.3722  -27.8360 C   0  0  0  0  0  0  0  0  0  0  0  0
    4.5635  -13.2025  -29.8501 C   0  0  0  0  0  0  0  0  0  0  0  0
    4.0946  -14.6661  -28.0314 F   0  0  0  0  0  0  0  0  0  0  0  0
    6.3485   -7.5589  -33.0143 C   0  0  0  0  0  0  0  0  0  0  0  0
    6.9103   -6.4348  -33.9049 C   0  0  0  0  0  0  0  0  0  0  0  0
    4.8971  -11.7496  -31.3514 H   0  0  0  0  0  0  0  0  0  0  0  0
    3.0168  -10.3094  -27.8537 H   0  0  0  0  0  0  0  0  0  0  0  0
    3.1064  -12.5416  -26.8906 H   0  0  0  0  0  0  0  0  0  0  0  0
    4.9778  -13.9816  -30.3851 H   0  0  0  0  0  0  0  0  0  0  0  0
    6.0949   -8.4056  -33.6174 H   0  0  0  0  0  0  0  0  0  0  0  0
    7.0802   -7.8579  -32.2930 H   0  0  0  0  0  0  0  0  0  0  0  0
    6.1707   -6.1442  -34.6216 H   0  0  0  0  0  0  0  0  0  0  0  0
    7.7827   -6.7863  -34.4151 H   0  0  0  0  0  0  0  0  0  0  0  0
    7.1678   -5.5929  -33.2968 H   0  0  0  0  0  0  0  0  0  0  0  0
  1  2  1  0  0  0  0
  1  3  2  0  0  0  0
  1  6  1  0  0  0  0
  2  4  2  0  0  0  0
  3  5  1  0  0  0  0
  3  9  1  0  0  0  0
  4  7  1  0  0  0  0
  4  5  1  0  0  0  0
  6  8  1  0  0  0  0
  6 12  2  0  0  0  0
  7 10  2  0  0  0  0
  7 11  1  0  0  0  0
  9 17  1  0  0  0  0
 10 15  1  0  0  0  0
 10 19  1  0  0  0  0
 11 14  2  0  0  0  0
 11 20  1  0  0  0  0
 13 14  1  0  0  0  0
 13 16  1  0  0  0  0
 13 15  2  0  0  0  0
 14 21  1  0  0  0  0
 15 22  1  0  0  0  0
 17 18  1  0  0  0  0
 17 23  1  0  0  0  0
 17 24  1  0  0  0  0
 18 25  1  0  0  0  0
 18 26  1  0  0  0  0
 18 27  1  0  0  0  0
M  CHG  1   8  -1
M  END
$$$$
