HTS1710-01152662-01
 OpenBabel03232612353D

 51 53  0  0  1  0  0  0  0  0999 V2000
    2.4697   -5.9004  -30.6449 C   0  0  0  0  0  0  0  0  0  0  0  0
    2.8324   -8.3802  -31.1061 C   0  0  0  0  0  0  0  0  0  0  0  0
    1.8380   -7.2316  -31.0339 C   0  0  2  0  0  0  0  0  0  0  0  0
    2.9186   -9.3021  -30.0735 C   0  0  0  0  0  0  0  0  0  0  0  0
    1.8979   -5.0267  -29.7239 C   0  0  0  0  0  0  0  0  0  0  0  0
    3.8923  -10.4048  -30.1042 C   0  0  0  0  0  0  0  0  0  0  0  0
    2.5425   -3.7503  -29.3704 C   0  0  0  0  0  0  0  0  0  0  0  0
    3.6613   -5.6363  -31.2935 O   0  0  0  0  0  0  0  0  0  0  0  0
    3.6372   -8.4188  -32.2279 O   0  0  0  0  0  0  0  0  0  0  0  0
    0.9486   -7.1177  -32.2830 C   0  0  0  0  0  0  0  0  0  0  0  0
    4.7266  -10.3864  -31.3051 C   0  0  0  0  0  0  0  0  0  0  0  0
    3.7947   -3.5292  -30.0877 C   0  0  0  0  0  0  0  0  0  0  0  0
    4.2855   -4.4456  -30.9909 C   0  0  0  0  0  0  0  0  0  0  0  0
    4.5780   -9.4245  -32.2804 C   0  0  0  0  0  0  0  0  0  0  0  0
    0.6854   -8.2322  -33.1034 C   0  0  0  0  0  0  0  0  0  0  0  0
   -0.1421   -8.1265  -34.2450 C   0  0  0  0  0  0  0  0  0  0  0  0
    0.3758   -5.8793  -32.6192 C   0  0  0  0  0  0  0  0  0  0  0  0
    4.0073  -11.2485  -29.2304 O   0  0  0  0  0  0  0  0  0  0  0  0
    2.0932   -2.9504  -28.5661 O   0  0  0  0  0  0  0  0  0  0  0  0
   -0.7087   -6.8634  -34.5745 C   0  0  0  0  0  0  0  0  0  0  0  0
    2.1488   -9.2772  -28.9606 O   0  0  0  0  0  0  0  0  0  0  0  0
    0.7338   -5.2338  -29.0651 O   0  0  0  0  0  0  0  0  0  0  0  0
   -0.4388   -5.7571  -33.7524 C   0  0  0  0  0  0  0  0  0  0  0  0
   -0.3976   -9.2406  -35.0263 O   0  0  0  0  0  0  0  0  0  0  0  0
   -1.5317   -6.6268  -35.6676 O   0  0  0  0  0  0  0  0  0  0  0  0
    5.4676   -9.4399  -33.4947 C   0  0  0  0  0  0  0  0  0  0  0  0
    5.5823   -4.1682  -31.7052 C   0  0  0  0  0  0  0  0  0  0  0  0
    6.0150   -8.1489  -33.7378 O   0  0  0  0  0  0  0  0  0  0  0  0
    5.5995   -4.7869  -32.9877 O   0  0  0  0  0  0  0  0  0  0  0  0
    0.3982  -10.4392  -35.0028 C   0  0  0  0  0  0  0  0  0  0  0  0
   -2.2961   -5.4328  -35.9151 C   0  0  0  0  0  0  0  0  0  0  0  0
    1.1841   -7.4884  -30.2268 H   0  0  0  0  0  0  0  0  0  0  0  0
    5.4476  -11.1149  -31.4256 H   0  0  0  0  0  0  0  0  0  0  0  0
    4.3267   -2.6623  -29.9133 H   0  0  0  0  0  0  0  0  0  0  0  0
    1.1053   -9.1446  -32.8662 H   0  0  0  0  0  0  0  0  0  0  0  0
    0.5566   -5.0537  -32.0270 H   0  0  0  0  0  0  0  0  0  0  0  0
    1.4484   -8.6589  -28.8891 H   0  0  0  0  0  0  0  0  0  0  0  0
    0.4953   -6.0991  -28.7961 H   0  0  0  0  0  0  0  0  0  0  0  0
   -0.8474   -4.8389  -33.9871 H   0  0  0  0  0  0  0  0  0  0  0  0
    4.8943   -9.7435  -34.3456 H   0  0  0  0  0  0  0  0  0  0  0  0
    6.2708  -10.1255  -33.3221 H   0  0  0  0  0  0  0  0  0  0  0  0
    6.3927   -4.5510  -31.1208 H   0  0  0  0  0  0  0  0  0  0  0  0
    5.6812   -3.1106  -31.8349 H   0  0  0  0  0  0  0  0  0  0  0  0
    6.7054   -8.2130  -34.4162 H   0  0  0  0  0  0  0  0  0  0  0  0
    6.4688   -4.6566  -33.3979 H   0  0  0  0  0  0  0  0  0  0  0  0
   -0.0053  -11.1488  -35.6947 H   0  0  0  0  0  0  0  0  0  0  0  0
    0.3866  -10.8558  -34.0173 H   0  0  0  0  0  0  0  0  0  0  0  0
    1.4049  -10.2045  -35.2790 H   0  0  0  0  0  0  0  0  0  0  0  0
   -2.8340   -5.5377  -36.8341 H   0  0  0  0  0  0  0  0  0  0  0  0
   -1.6355   -4.5939  -35.9822 H   0  0  0  0  0  0  0  0  0  0  0  0
   -2.9873   -5.2792  -35.1128 H   0  0  0  0  0  0  0  0  0  0  0  0
  1  3  1  0  0  0  0
  1  5  2  0  0  0  0
  1  8  1  0  0  0  0
  2  3  1  0  0  0  0
  2  4  2  0  0  0  0
  2  9  1  0  0  0  0
  3 10  1  0  0  0  0
  3 32  1  1  0  0  0
  4  6  1  0  0  0  0
  4 21  1  0  0  0  0
  5  7  1  0  0  0  0
  5 22  1  0  0  0  0
  6 18  2  0  0  0  0
  6 11  1  0  0  0  0
  7 19  2  0  0  0  0
  7 12  1  0  0  0  0
  8 13  1  0  0  0  0
  9 14  1  0  0  0  0
 10 15  2  0  0  0  0
 10 17  1  0  0  0  0
 11 14  2  0  0  0  0
 11 33  1  0  0  0  0
 12 13  2  0  0  0  0
 12 34  1  0  0  0  0
 13 27  1  0  0  0  0
 14 26  1  0  0  0  0
 15 16  1  0  0  0  0
 15 35  1  0  0  0  0
 16 24  1  0  0  0  0
 16 20  2  0  0  0  0
 17 23  2  0  0  0  0
 17 36  1  0  0  0  0
 20 23  1  0  0  0  0
 20 25  1  0  0  0  0
 21 37  1  0  0  0  0
 22 38  1  0  0  0  0
 23 39  1  0  0  0  0
 24 30  1  0  0  0  0
 25 31  1  0  0  0  0
 26 28  1  0  0  0  0
 26 40  1  0  0  0  0
 26 41  1  0  0  0  0
 27 29  1  0  0  0  0
 27 42  1  0  0  0  0
 27 43  1  0  0  0  0
 28 44  1  0  0  0  0
 29 45  1  0  0  0  0
 30 46  1  0  0  0  0
 30 47  1  0  0  0  0
 30 48  1  0  0  0  0
 31 49  1  0  0  0  0
 31 50  1  0  0  0  0
 31 51  1  0  0  0  0
M  END
$$$$
