HTS1710-05397431-01
 OpenBabel03232612353D

 38 38  0  0  1  0  0  0  0  0999 V2000
    3.4996  -12.9205  -27.6011 C   0  0  0  0  0  0  0  0  0  0  0  0
    3.2558  -12.5521  -29.0867 C   0  0  0  0  0  0  0  0  0  0  0  0
    3.7755  -13.6785  -30.0206 C   0  0  0  0  0  0  0  0  0  0  0  0
    3.8451  -11.1468  -29.4248 C   0  0  1  0  0  0  0  0  0  0  0  0
    3.8729  -10.9221  -30.8806 N   0  0  0  0  0  0  0  0  0  0  0  0
    4.5442   -9.8529  -31.4585 C   0  0  0  0  0  0  0  0  0  0  0  0
    5.1446   -9.0591  -30.7539 O   0  0  0  0  0  0  0  0  0  0  0  0
    4.5104   -9.7184  -32.9255 C   0  0  0  0  0  0  0  0  0  0  0  0
    5.3022   -8.9294  -33.7194 C   0  0  0  0  0  0  0  0  0  0  0  0
    5.0223   -9.0173  -35.0592 O   0  0  0  0  0  0  0  0  0  0  0  0
    3.9906   -9.9234  -35.0672 C   0  0  0  0  0  0  0  0  0  0  0  0
    3.6387  -10.3791  -33.8239 C   0  0  0  0  0  0  0  0  0  0  0  0
    3.2062  -10.4060  -36.6027 S   0  0  0  0  0  0  0  0  0  0  0  0
    3.4794  -11.8378  -36.7632 O   0  0  0  0  0  0  0  0  0  0  0  0
    3.5310   -9.4199  -37.6387 O   0  0  0  0  0  0  0  0  0  0  0  0
    1.5410  -10.2648  -36.2544 N   0  0  0  0  0  0  0  0  0  0  0  0
    0.8328  -11.5043  -35.8833 C   0  0  0  0  0  0  0  0  0  0  0  0
    1.1796   -9.1242  -35.3950 C   0  0  0  0  0  0  0  0  0  0  0  0
    3.0995  -10.0101  -28.6979 C   0  0  0  0  0  0  0  0  0  0  0  0
    3.7880   -9.1498  -28.1781 O   0  5  0  0  0  0  0  0  0  0  0  0
    1.8803  -10.0179  -28.7163 O   0  0  0  0  0  0  0  0  0  0  0  0
    3.0854  -13.8865  -27.4005 H   0  0  0  0  0  0  0  0  0  0  0  0
    3.0302  -12.1935  -26.9717 H   0  0  0  0  0  0  0  0  0  0  0  0
    4.5514  -12.9357  -27.4055 H   0  0  0  0  0  0  0  0  0  0  0  0
    2.2021  -12.4760  -29.2570 H   0  0  0  0  0  0  0  0  0  0  0  0
    4.8308  -13.7941  -29.8869 H   0  0  0  0  0  0  0  0  0  0  0  0
    3.5711  -13.4205  -31.0387 H   0  0  0  0  0  0  0  0  0  0  0  0
    3.2827  -14.5973  -29.7798 H   0  0  0  0  0  0  0  0  0  0  0  0
    4.8530  -11.1343  -29.0658 H   0  0  0  0  0  0  0  0  0  0  0  0
    3.3972  -11.5545  -31.4662 H   0  0  0  0  0  0  0  0  0  0  0  0
    6.0454   -8.3214  -33.3412 H   0  0  0  0  0  0  0  0  0  0  0  0
    2.8972  -11.0584  -33.5922 H   0  0  0  0  0  0  0  0  0  0  0  0
    1.1326  -12.2959  -36.5378 H   0  0  0  0  0  0  0  0  0  0  0  0
   -0.2227  -11.3513  -35.9688 H   0  0  0  0  0  0  0  0  0  0  0  0
    1.0749  -11.7649  -34.8742 H   0  0  0  0  0  0  0  0  0  0  0  0
    1.7207   -8.2560  -35.7084 H   0  0  0  0  0  0  0  0  0  0  0  0
    1.4266   -9.3510  -34.3790 H   0  0  0  0  0  0  0  0  0  0  0  0
    0.1290   -8.9373  -35.4735 H   0  0  0  0  0  0  0  0  0  0  0  0
  1  2  1  0  0  0  0
  1 22  1  0  0  0  0
  1 23  1  0  0  0  0
  1 24  1  0  0  0  0
  2  3  1  0  0  0  0
  2  4  1  0  0  0  0
  2 25  1  0  0  0  0
  3 26  1  0  0  0  0
  3 27  1  0  0  0  0
  3 28  1  0  0  0  0
  4  5  1  0  0  0  0
  4 19  1  0  0  0  0
  4 29  1  1  0  0  0
  5  6  1  0  0  0  0
  5 30  1  0  0  0  0
  6  7  2  0  0  0  0
  6  8  1  0  0  0  0
  8  9  2  0  0  0  0
  8 12  1  0  0  0  0
  9 10  1  0  0  0  0
  9 31  1  0  0  0  0
 10 11  1  0  0  0  0
 11 12  2  0  0  0  0
 11 13  1  0  0  0  0
 12 32  1  0  0  0  0
 13 14  2  0  0  0  0
 13 15  2  0  0  0  0
 13 16  1  0  0  0  0
 16 17  1  0  0  0  0
 16 18  1  0  0  0  0
 17 33  1  0  0  0  0
 17 34  1  0  0  0  0
 17 35  1  0  0  0  0
 18 36  1  0  0  0  0
 18 37  1  0  0  0  0
 18 38  1  0  0  0  0
 19 20  1  0  0  0  0
 19 21  2  0  0  0  0
M  CHG  1  20  -1
M  END
$$$$
