HTS1710-05390505-01
 OpenBabel03232612343D

 39 41  0  0  1  0  0  0  0  0999 V2000
   -2.9945   -5.8758  -35.4701 O   0  5  0  0  0  0  0  0  0  0  0  0
   -2.5635   -6.9763  -35.1724 C   0  0  0  0  0  0  0  0  0  0  0  0
   -3.1348   -7.7789  -34.4547 O   0  0  0  0  0  0  0  0  0  0  0  0
   -1.2512   -7.3659  -35.7226 C   0  0  0  0  0  0  0  0  0  0  0  0
   -0.5552   -6.7496  -36.7321 C   0  0  0  0  0  0  0  0  0  0  0  0
    0.6423   -7.3415  -37.0385 O   0  0  0  0  0  0  0  0  0  0  0  0
    0.6665   -8.3875  -36.1496 C   0  0  0  0  0  0  0  0  0  0  0  0
   -0.4340   -8.4569  -35.3325 C   0  0  0  0  0  0  0  0  0  0  0  0
    1.7999   -9.3340  -36.1295 C   0  0  0  0  0  0  0  0  0  0  0  0
    2.6410   -9.3652  -37.0137 O   0  0  0  0  0  0  0  0  0  0  0  0
    1.8936  -10.2101  -35.0561 N   0  0  0  0  0  0  0  0  0  0  0  0
    2.9737  -11.1999  -34.9190 C   0  0  1  0  0  0  0  0  0  0  0  0
    4.3065  -10.4938  -34.6301 C   0  0  0  0  0  0  0  0  0  0  0  0
    4.3050   -9.7485  -33.2745 C   0  0  0  0  0  0  0  0  0  0  0  0
    3.7345  -10.4922  -32.1074 N   0  0  0  0  0  0  0  0  0  0  0  0
    2.6468  -11.4732  -32.3836 C   0  0  0  0  0  0  0  0  0  0  0  0
    2.6899  -12.1729  -33.7638 C   0  0  0  0  0  0  0  0  0  0  0  0
    4.0676  -10.0186  -30.8188 C   0  0  0  0  0  0  0  0  0  0  0  0
    4.7938   -9.0478  -30.6776 O   0  0  0  0  0  0  0  0  0  0  0  0
    3.5357  -10.7092  -29.6000 C   0  0  0  0  0  0  0  0  0  0  0  0
    3.6938  -12.1024  -29.3650 C   0  0  0  0  0  0  0  0  0  0  0  0
    3.1109  -12.3523  -28.1540 C   0  0  0  0  0  0  0  0  0  0  0  0
    2.5872  -11.2452  -27.5520 O   0  0  0  0  0  0  0  0  0  0  0  0
    2.8817  -10.2662  -28.4661 C   0  0  0  0  0  0  0  0  0  0  0  0
   -0.9046   -5.9100  -37.2200 H   0  0  0  0  0  0  0  0  0  0  0  0
   -0.6253   -9.1523  -34.5944 H   0  0  0  0  0  0  0  0  0  0  0  0
    1.2050  -10.1669  -34.3538 H   0  0  0  0  0  0  0  0  0  0  0  0
    3.0289  -11.7427  -35.8394 H   0  0  0  0  0  0  0  0  0  0  0  0
    4.4950   -9.7858  -35.4099 H   0  0  0  0  0  0  0  0  0  0  0  0
    5.0673  -11.2449  -34.5854 H   0  0  0  0  0  0  0  0  0  0  0  0
    3.7370   -8.8501  -33.3974 H   0  0  0  0  0  0  0  0  0  0  0  0
    5.3360   -9.5912  -33.0352 H   0  0  0  0  0  0  0  0  0  0  0  0
    1.7136  -10.9549  -32.3096 H   0  0  0  0  0  0  0  0  0  0  0  0
    2.7764  -12.2539  -31.6634 H   0  0  0  0  0  0  0  0  0  0  0  0
    1.7446  -12.6431  -33.9378 H   0  0  0  0  0  0  0  0  0  0  0  0
    3.4895  -12.8834  -33.7387 H   0  0  0  0  0  0  0  0  0  0  0  0
    4.1555  -12.7871  -29.9840 H   0  0  0  0  0  0  0  0  0  0  0  0
    3.0705  -13.2936  -27.7329 H   0  0  0  0  0  0  0  0  0  0  0  0
    2.6341   -9.2753  -28.3186 H   0  0  0  0  0  0  0  0  0  0  0  0
  1  2  1  0  0  0  0
  2  3  2  0  0  0  0
  2  4  1  0  0  0  0
  4  5  2  0  0  0  0
  4  8  1  0  0  0  0
  5  6  1  0  0  0  0
  5 25  1  0  0  0  0
  6  7  1  0  0  0  0
  7  8  2  0  0  0  0
  7  9  1  0  0  0  0
  8 26  1  0  0  0  0
  9 10  2  0  0  0  0
  9 11  1  0  0  0  0
 11 12  1  0  0  0  0
 11 27  1  0  0  0  0
 12 13  1  0  0  0  0
 12 17  1  0  0  0  0
 12 28  1  6  0  0  0
 13 14  1  0  0  0  0
 13 29  1  0  0  0  0
 13 30  1  0  0  0  0
 14 15  1  0  0  0  0
 14 31  1  0  0  0  0
 14 32  1  0  0  0  0
 15 16  1  0  0  0  0
 15 18  1  0  0  0  0
 16 17  1  0  0  0  0
 16 33  1  0  0  0  0
 16 34  1  0  0  0  0
 17 35  1  0  0  0  0
 17 36  1  0  0  0  0
 18 19  2  0  0  0  0
 18 20  1  0  0  0  0
 20 21  1  0  0  0  0
 20 24  2  0  0  0  0
 21 22  2  0  0  0  0
 21 37  1  0  0  0  0
 22 23  1  0  0  0  0
 22 38  1  0  0  0  0
 23 24  1  0  0  0  0
 24 39  1  0  0  0  0
M  CHG  1   1  -1
M  END
$$$$
