HTS1710-04206650-01
 OpenBabel03232612353D

 43 44  0  0  0  0  0  0  0  0999 V2000
    1.4135  -11.8942  -34.9762 S   0  0  0  0  0  0  0  0  0  0  0  0
    2.9269  -12.0002  -32.6482 C   0  0  0  0  0  0  0  0  0  0  0  0
    2.8141  -12.0693  -34.0241 N   0  0  0  0  0  0  0  0  0  0  0  0
    2.4821  -13.0812  -31.8570 C   0  0  0  0  0  0  0  0  0  0  0  0
    3.6457  -10.7864  -30.6541 C   0  0  0  0  0  0  0  0  0  0  0  0
    2.6317  -13.0150  -30.4422 C   0  0  0  0  0  0  0  0  0  0  0  0
    3.4815  -10.8588  -32.0462 C   0  0  0  0  0  0  0  0  0  0  0  0
    4.2735   -9.5668  -30.0232 C   0  0  0  0  0  0  0  0  0  0  0  0
    0.8691  -10.1981  -34.6999 C   0  0  0  0  0  0  0  0  0  0  0  0
    3.2196  -11.8679  -29.8604 C   0  0  0  0  0  0  0  0  0  0  0  0
    1.9636  -11.9466  -36.3336 O   0  0  0  0  0  0  0  0  0  0  0  0
    0.4431  -12.8715  -34.4721 O   0  0  0  0  0  0  0  0  0  0  0  0
    0.9653   -5.0285  -32.3045 C   0  0  0  0  0  0  0  0  0  0  0  0
    5.1413   -8.9917  -30.6574 O   0  5  0  0  0  0  0  0  0  0  0  0
    1.6853   -5.8145  -31.7135 O   0  5  0  0  0  0  0  0  0  0  0  0
    0.4293   -9.7859  -33.4296 C   0  0  0  0  0  0  0  0  0  0  0  0
    0.9264   -9.2698  -35.7540 C   0  0  0  0  0  0  0  0  0  0  0  0
   -0.2403   -6.1941  -34.1038 O   0  0  0  0  0  0  0  0  0  0  0  0
   -0.3787   -5.5729  -32.8087 C   0  0  0  0  0  0  0  0  0  0  0  0
    1.9301  -14.1654  -32.5342 O   0  0  0  0  0  0  0  0  0  0  0  0
    0.1140   -7.5176  -34.2684 C   0  0  0  0  0  0  0  0  0  0  0  0
    3.8728   -9.2357  -28.9205 O   0  0  0  0  0  0  0  0  0  0  0  0
    2.2144  -14.0641  -29.6408 O   0  0  0  0  0  0  0  0  0  0  0  0
    1.2482   -3.8703  -32.5605 O   0  0  0  0  0  0  0  0  0  0  0  0
    0.5462   -7.9358  -35.5374 C   0  0  0  0  0  0  0  0  0  0  0  0
    0.0556   -8.4500  -33.2101 C   0  0  0  0  0  0  0  0  0  0  0  0
    1.1473  -15.2289  -31.9625 C   0  0  0  0  0  0  0  0  0  0  0  0
    2.7794  -14.3659  -28.3525 C   0  0  0  0  0  0  0  0  0  0  0  0
    3.6494  -12.2415  -34.5158 H   0  0  0  0  0  0  0  0  0  0  0  0
    3.7721  -10.0629  -32.6353 H   0  0  0  0  0  0  0  0  0  0  0  0
    3.3383  -11.8230  -28.8362 H   0  0  0  0  0  0  0  0  0  0  0  0
    0.3809  -10.4672  -32.6560 H   0  0  0  0  0  0  0  0  0  0  0  0
    1.2480   -9.5691  -36.6878 H   0  0  0  0  0  0  0  0  0  0  0  0
   -1.0764   -4.7650  -32.8824 H   0  0  0  0  0  0  0  0  0  0  0  0
   -0.7255   -6.3107  -32.1157 H   0  0  0  0  0  0  0  0  0  0  0  0
    0.5847   -7.2586  -36.3151 H   0  0  0  0  0  0  0  0  0  0  0  0
   -0.2617   -8.1499  -32.2751 H   0  0  0  0  0  0  0  0  0  0  0  0
    0.8636  -15.9163  -32.7318 H   0  0  0  0  0  0  0  0  0  0  0  0
    0.2691  -14.8205  -31.5076 H   0  0  0  0  0  0  0  0  0  0  0  0
    1.7270  -15.7406  -31.2229 H   0  0  0  0  0  0  0  0  0  0  0  0
    2.2858  -15.2199  -27.9378 H   0  0  0  0  0  0  0  0  0  0  0  0
    2.6493  -13.5274  -27.7007 H   0  0  0  0  0  0  0  0  0  0  0  0
    3.8231  -14.5749  -28.4609 H   0  0  0  0  0  0  0  0  0  0  0  0
  1  3  1  0  0  0  0
  1  9  1  0  0  0  0
  1 11  2  0  0  0  0
  1 12  2  0  0  0  0
  2  3  1  0  0  0  0
  2  4  2  0  0  0  0
  2  7  1  0  0  0  0
  3 29  1  0  0  0  0
  4  6  1  0  0  0  0
  4 20  1  0  0  0  0
  5  7  2  0  0  0  0
  5  8  1  0  0  0  0
  5 10  1  0  0  0  0
  6 10  2  0  0  0  0
  6 23  1  0  0  0  0
  7 30  1  0  0  0  0
  8 14  1  0  0  0  0
  8 22  2  0  0  0  0
  9 16  2  0  0  0  0
  9 17  1  0  0  0  0
 10 31  1  0  0  0  0
 13 19  1  0  0  0  0
 13 15  1  0  0  0  0
 13 24  2  0  0  0  0
 16 26  1  0  0  0  0
 16 32  1  0  0  0  0
 17 25  2  0  0  0  0
 17 33  1  0  0  0  0
 18 21  1  0  0  0  0
 18 19  1  0  0  0  0
 19 34  1  0  0  0  0
 19 35  1  0  0  0  0
 20 27  1  0  0  0  0
 21 26  2  0  0  0  0
 21 25  1  0  0  0  0
 23 28  1  0  0  0  0
 25 36  1  0  0  0  0
 26 37  1  0  0  0  0
 27 38  1  0  0  0  0
 27 39  1  0  0  0  0
 27 40  1  0  0  0  0
 28 41  1  0  0  0  0
 28 42  1  0  0  0  0
 28 43  1  0  0  0  0
M  CHG  2  14  -1  15  -1
M  END
$$$$
