HTS1710-01401898-01
 OpenBabel03232612353D

 43 44  0  0  1  0  0  0  0  0999 V2000
    4.7417   -9.7875  -32.4269 C   0  0  0  0  0  0  0  0  0  0  0  0
    3.3277  -11.1742  -31.1674 N   0  0  0  0  0  0  0  0  0  0  0  0
    4.9233   -9.5582  -31.1101 C   0  0  0  0  0  0  0  0  0  0  0  0
    4.0845  -10.4320  -30.2783 C   0  0  0  0  0  0  0  0  0  0  0  0
    3.6529  -10.8505  -32.5798 C   0  0  1  0  0  0  0  0  0  0  0  0
    2.4466  -10.3775  -33.3945 C   0  0  0  0  0  0  0  0  0  0  0  0
    5.2494   -9.0620  -33.6291 C   0  0  0  0  0  0  0  0  0  0  0  0
    4.0503  -10.4994  -29.0611 O   0  0  0  0  0  0  0  0  0  0  0  0
    1.8323  -11.1949  -34.3694 C   0  0  0  0  0  0  0  0  0  0  0  0
    6.0154  -14.2665  -27.2634 C   0  0  0  0  0  0  0  0  0  0  0  0
    5.7480   -8.6465  -30.5456 O   0  5  0  0  0  0  0  0  0  0  0  0
    5.7729   -7.9648  -33.5378 O   0  0  0  0  0  0  0  0  0  0  0  0
    6.2631  -13.2197  -27.8387 O   0  5  0  0  0  0  0  0  0  0  0  0
    2.4143  -12.2797  -30.8233 C   0  0  0  0  0  0  0  0  0  0  0  0
    2.2903  -12.4424  -34.6114 F   0  0  0  0  0  0  0  0  0  0  0  0
    6.7016  -14.7663  -26.3899 O   0  0  0  0  0  0  0  0  0  0  0  0
    1.9410   -9.0818  -33.1766 C   0  0  0  0  0  0  0  0  0  0  0  0
    4.7381  -15.0332  -27.6523 C   0  0  0  0  0  0  0  0  0  0  0  0
    5.2544   -9.8372  -34.9483 C   0  0  0  0  0  0  0  0  0  0  0  0
    0.7378  -10.7220  -35.1101 C   0  0  0  0  0  0  0  0  0  0  0  0
    3.0815  -13.6770  -30.9001 C   0  0  0  0  0  0  0  0  0  0  0  0
    3.7041  -14.2048  -28.4621 C   0  0  0  0  0  0  0  0  0  0  0  0
    4.2290  -13.8581  -29.8758 C   0  0  0  0  0  0  0  0  0  0  0  0
    0.8451   -8.6093  -33.9171 C   0  0  0  0  0  0  0  0  0  0  0  0
    0.2438   -9.4292  -34.8842 C   0  0  0  0  0  0  0  0  0  0  0  0
    3.9730  -11.7026  -33.1422 H   0  0  0  0  0  0  0  0  0  0  0  0
    1.5879  -12.2607  -31.5027 H   0  0  0  0  0  0  0  0  0  0  0  0
    2.1076  -12.1316  -29.8089 H   0  0  0  0  0  0  0  0  0  0  0  0
    2.3793   -8.4741  -32.4669 H   0  0  0  0  0  0  0  0  0  0  0  0
    4.2649  -15.3696  -26.7536 H   0  0  0  0  0  0  0  0  0  0  0  0
    5.0491  -15.8340  -28.2902 H   0  0  0  0  0  0  0  0  0  0  0  0
    4.7467  -10.7698  -34.8160 H   0  0  0  0  0  0  0  0  0  0  0  0
    6.2644  -10.0207  -35.2504 H   0  0  0  0  0  0  0  0  0  0  0  0
    4.7557   -9.2633  -35.7013 H   0  0  0  0  0  0  0  0  0  0  0  0
    0.2964  -11.3259  -35.8211 H   0  0  0  0  0  0  0  0  0  0  0  0
    3.4791  -13.8112  -31.8844 H   0  0  0  0  0  0  0  0  0  0  0  0
    2.3300  -14.4031  -30.6698 H   0  0  0  0  0  0  0  0  0  0  0  0
    3.4994  -13.2960  -27.9358 H   0  0  0  0  0  0  0  0  0  0  0  0
    2.8170  -14.7933  -28.5708 H   0  0  0  0  0  0  0  0  0  0  0  0
    4.8668  -14.6496  -30.2098 H   0  0  0  0  0  0  0  0  0  0  0  0
    4.7590  -12.9309  -29.8102 H   0  0  0  0  0  0  0  0  0  0  0  0
    0.4818   -7.6581  -33.7498 H   0  0  0  0  0  0  0  0  0  0  0  0
   -0.5609   -9.0812  -35.4286 H   0  0  0  0  0  0  0  0  0  0  0  0
  1  3  2  0  0  0  0
  1  5  1  0  0  0  0
  1  7  1  0  0  0  0
  2  5  1  0  0  0  0
  2 14  1  0  0  0  0
  2  4  1  0  0  0  0
  3  4  1  0  0  0  0
  3 11  1  0  0  0  0
  4  8  2  0  0  0  0
  5  6  1  0  0  0  0
  5 26  1  6  0  0  0
  6  9  2  0  0  0  0
  6 17  1  0  0  0  0
  7 12  2  0  0  0  0
  7 19  1  0  0  0  0
  9 15  1  0  0  0  0
  9 20  1  0  0  0  0
 10 18  1  0  0  0  0
 10 13  1  0  0  0  0
 10 16  2  0  0  0  0
 14 21  1  0  0  0  0
 14 27  1  0  0  0  0
 14 28  1  0  0  0  0
 17 24  2  0  0  0  0
 17 29  1  0  0  0  0
 18 22  1  0  0  0  0
 18 30  1  0  0  0  0
 18 31  1  0  0  0  0
 19 32  1  0  0  0  0
 19 33  1  0  0  0  0
 19 34  1  0  0  0  0
 20 25  2  0  0  0  0
 20 35  1  0  0  0  0
 21 23  1  0  0  0  0
 21 36  1  0  0  0  0
 21 37  1  0  0  0  0
 22 23  1  0  0  0  0
 22 38  1  0  0  0  0
 22 39  1  0  0  0  0
 23 40  1  0  0  0  0
 23 41  1  0  0  0  0
 24 25  1  0  0  0  0
 24 42  1  0  0  0  0
 25 43  1  0  0  0  0
M  CHG  2  11  -1  13  -1
M  END
$$$$
