HTS1710-00172314-01
 OpenBabel03232612353D

 19 20  0  0  0  0  0  0  0  0999 V2000
    4.1457  -12.1435  -33.7213 C   0  0  0  0  0  0  0  0  0  0  0  0
    4.2385  -12.1351  -35.1303 C   0  0  0  0  0  0  0  0  0  0  0  0
    4.7775  -11.0193  -35.7956 C   0  0  0  0  0  0  0  0  0  0  0  0
    4.5869  -11.0362  -32.9674 C   0  0  0  0  0  0  0  0  0  0  0  0
    5.1201   -9.9262  -33.6497 C   0  0  0  0  0  0  0  0  0  0  0  0
    5.2080   -9.9373  -35.0202 C   0  0  0  0  0  0  0  0  0  0  0  0
    5.7566   -8.7918  -35.4986 O   0  0  0  0  0  0  0  0  0  0  0  0
    6.0214   -8.0283  -34.3728 C   0  0  0  0  0  0  0  0  0  0  0  0
    5.6563   -8.6566  -33.1599 C   0  0  0  0  0  0  0  0  0  0  0  0
    6.6304   -6.6833  -34.6240 C   0  0  0  0  0  0  0  0  0  0  0  0
    5.7497   -8.2380  -31.7226 C   0  0  0  0  0  0  0  0  0  0  0  0
    6.2290   -7.1433  -31.4898 O   0  5  0  0  0  0  0  0  0  0  0  0
    5.3523   -8.9840  -30.8502 O   0  0  0  0  0  0  0  0  0  0  0  0
    6.9608   -6.4393  -35.7726 O   0  5  0  0  0  0  0  0  0  0  0  0
    6.7730   -5.8942  -33.7102 O   0  0  0  0  0  0  0  0  0  0  0  0
    3.7518  -12.9666  -33.2392 H   0  0  0  0  0  0  0  0  0  0  0  0
    3.9101  -12.9492  -35.6729 H   0  0  0  0  0  0  0  0  0  0  0  0
    4.8531  -10.9994  -36.8247 H   0  0  0  0  0  0  0  0  0  0  0  0
    4.5203  -11.0395  -31.9376 H   0  0  0  0  0  0  0  0  0  0  0  0
  1  2  2  0  0  0  0
  1  4  1  0  0  0  0
  1 16  1  0  0  0  0
  2  3  1  0  0  0  0
  2 17  1  0  0  0  0
  3  6  2  0  0  0  0
  3 18  1  0  0  0  0
  4  5  2  0  0  0  0
  4 19  1  0  0  0  0
  5  6  1  0  0  0  0
  5  9  1  0  0  0  0
  6  7  1  0  0  0  0
  7  8  1  0  0  0  0
  8  9  2  0  0  0  0
  8 10  1  0  0  0  0
  9 11  1  0  0  0  0
 10 14  1  0  0  0  0
 10 15  2  0  0  0  0
 11 12  1  0  0  0  0
 11 13  2  0  0  0  0
M  CHG  2  12  -1  14  -1
M  END
$$$$
