HTS1710-00526357-01
 OpenBabel03232612363D

 34 33  0  0  0  0  0  0  0  0999 V2000
    2.8307  -10.9690  -31.4540 N   0  3  0  0  0  0  0  0  0  0  0  0
    4.2063  -10.7328  -31.9588 C   0  0  0  0  0  0  0  0  0  0  0  0
    2.8256  -11.9114  -30.3218 C   0  0  0  0  0  0  0  0  0  0  0  0
    1.8680  -11.4125  -32.4849 C   0  0  0  0  0  0  0  0  0  0  0  0
    4.7966   -8.9772  -31.8487 P   0  0  0  0  0  0  0  0  0  0  0  0
    3.0717  -10.9565  -28.7772 P   0  0  0  0  0  0  0  0  0  0  0  0
    1.4699  -10.2446  -33.4148 C   0  0  0  0  0  0  0  0  0  0  0  0
    3.6206   -8.0692  -31.8899 O   0  0  0  0  0  1  0  0  0  0  0  0
    5.6952   -8.7594  -33.0115 O   0  0  0  0  0  1  0  0  0  0  0  0
    5.5335   -8.8482  -30.5638 O   0  0  0  0  0  0  0  0  0  0  0  0
    2.4558  -11.7398  -27.6744 O   0  0  0  0  0  1  0  0  0  0  0  0
    2.3891   -9.6504  -28.9771 O   0  0  0  0  0  1  0  0  0  0  0  0
    4.5357  -10.7864  -28.5890 O   0  0  0  0  0  0  0  0  0  0  0  0
    1.3800  -10.7129  -34.8865 C   0  0  0  0  0  0  0  0  0  0  0  0
    2.7420  -11.1452  -35.4874 C   0  0  0  0  0  0  0  0  0  0  0  0
    3.6833   -9.9566  -35.8127 C   0  0  0  0  0  0  0  0  0  0  0  0
    3.3270   -9.2862  -37.1468 C   0  0  0  0  0  0  0  0  0  0  0  0
    2.1481   -9.2368  -37.4492 O   0  5  0  0  0  0  0  0  0  0  0  0
    4.2469   -8.8436  -37.8139 O   0  0  0  0  0  0  0  0  0  0  0  0
    2.5112  -10.0531  -31.1386 H   0  0  0  0  0  0  0  0  0  0  0  0
    4.2372  -11.0287  -32.9866 H   0  0  0  0  0  0  0  0  0  0  0  0
    4.8561  -11.3049  -31.3299 H   0  0  0  0  0  0  0  0  0  0  0  0
    3.6177  -12.6212  -30.4384 H   0  0  0  0  0  0  0  0  0  0  0  0
    1.8952  -12.4384  -30.2851 H   0  0  0  0  0  0  0  0  0  0  0  0
    0.9903  -11.7905  -32.0036 H   0  0  0  0  0  0  0  0  0  0  0  0
    2.3311  -12.1746  -33.0762 H   0  0  0  0  0  0  0  0  0  0  0  0
    2.2046   -9.4705  -33.3384 H   0  0  0  0  0  0  0  0  0  0  0  0
    0.5096   -9.8814  -33.1136 H   0  0  0  0  0  0  0  0  0  0  0  0
    0.9920   -9.9073  -35.4742 H   0  0  0  0  0  0  0  0  0  0  0  0
    0.7439  -11.5732  -34.9025 H   0  0  0  0  0  0  0  0  0  0  0  0
    2.5561  -11.6866  -36.3914 H   0  0  0  0  0  0  0  0  0  0  0  0
    3.2349  -11.7425  -34.7490 H   0  0  0  0  0  0  0  0  0  0  0  0
    4.6891  -10.3176  -35.8657 H   0  0  0  0  0  0  0  0  0  0  0  0
    3.5729   -9.2273  -35.0376 H   0  0  0  0  0  0  0  0  0  0  0  0
  1  2  1  0  0  0  0
  1  3  1  0  0  0  0
  1  4  1  0  0  0  0
  1 20  1  0  0  0  0
  2  5  1  0  0  0  0
  2 21  1  0  0  0  0
  2 22  1  0  0  0  0
  3  6  1  0  0  0  0
  3 23  1  0  0  0  0
  3 24  1  0  0  0  0
  4  7  1  0  0  0  0
  4 25  1  0  0  0  0
  4 26  1  0  0  0  0
  5  8  1  0  0  0  0
  5  9  1  0  0  0  0
  5 10  2  0  0  0  0
  6 11  1  0  0  0  0
  6 12  1  0  0  0  0
  6 13  2  0  0  0  0
  7 14  1  0  0  0  0
  7 27  1  0  0  0  0
  7 28  1  0  0  0  0
 14 15  1  0  0  0  0
 14 29  1  0  0  0  0
 14 30  1  0  0  0  0
 15 16  1  0  0  0  0
 15 31  1  0  0  0  0
 15 32  1  0  0  0  0
 16 17  1  0  0  0  0
 16 33  1  0  0  0  0
 16 34  1  0  0  0  0
 17 18  1  0  0  0  0
 17 19  2  0  0  0  0
M  CHG  2   1   1  18  -1
M  END
$$$$
