HTS1710-00617361-01
 OpenBabel03232612363D

 43 45  0  0  1  0  0  0  0  0999 V2000
    2.5568   -9.3490  -33.4652 C   0  0  2  0  0  0  0  0  0  0  0  0
    1.6867   -8.2926  -32.8790 N   0  0  0  0  0  0  0  0  0  0  0  0
    1.8037  -10.6542  -33.7048 C   0  0  0  0  0  0  0  0  0  0  0  0
    3.6801   -9.4822  -32.4354 C   0  0  0  0  0  0  0  0  0  0  0  0
    0.4386   -7.9372  -33.4734 C   0  0  0  0  0  0  0  0  0  0  0  0
    2.1762   -7.8813  -31.6449 C   0  0  0  0  0  0  0  0  0  0  0  0
    1.5349  -11.5206  -32.6292 C   0  0  0  0  0  0  0  0  0  0  0  0
    1.3879  -11.0066  -35.0023 C   0  0  0  0  0  0  0  0  0  0  0  0
    3.3978   -8.6608  -31.4111 C   0  0  0  0  0  0  0  0  0  0  0  0
    4.7279  -10.5417  -32.5440 C   0  0  0  0  0  0  0  0  0  0  0  0
   -0.6917   -7.7122  -32.6665 C   0  0  0  0  0  0  0  0  0  0  0  0
    0.3251   -7.7694  -34.8663 C   0  0  0  0  0  0  0  0  0  0  0  0
    1.6834   -7.0435  -30.9078 O   0  0  0  0  0  0  0  0  0  0  0  0
    0.8446  -12.7332  -32.8463 C   0  0  0  0  0  0  0  0  0  0  0  0
    0.7052  -12.2115  -35.2227 C   0  0  0  0  0  0  0  0  0  0  0  0
    4.0906   -8.5408  -30.2556 O   0  5  0  0  0  0  0  0  0  0  0  0
    5.4940  -10.6086  -33.8689 C   0  0  0  0  0  0  0  0  0  0  0  0
    5.0571  -11.2235  -31.5889 O   0  0  0  0  0  0  0  0  0  0  0  0
   -1.9171   -7.3417  -33.2421 C   0  0  0  0  0  0  0  0  0  0  0  0
   -0.8998   -7.3974  -35.4435 C   0  0  0  0  0  0  0  0  0  0  0  0
    0.4317  -13.0725  -34.1483 C   0  0  0  0  0  0  0  0  0  0  0  0
    0.5565  -13.6068  -31.8116 O   0  0  0  0  0  0  0  0  0  0  0  0
   -2.0379   -7.1818  -34.6383 C   0  0  0  0  0  0  0  0  0  0  0  0
   -0.2364  -14.2426  -34.3751 O   0  0  0  0  0  0  0  0  0  0  0  0
    1.4859  -13.9113  -30.7570 C   0  0  0  0  0  0  0  0  0  0  0  0
   -3.3592   -6.7835  -35.2590 C   0  0  0  0  0  0  0  0  0  0  0  0
   -4.2160   -7.6457  -35.3628 O   0  5  0  0  0  0  0  0  0  0  0  0
   -3.4885   -5.6255  -35.6186 O   0  0  0  0  0  0  0  0  0  0  0  0
    2.9244   -9.0997  -34.4386 H   0  0  0  0  0  0  0  0  0  0  0  0
    1.8437  -11.2687  -31.6773 H   0  0  0  0  0  0  0  0  0  0  0  0
    1.5862  -10.3758  -35.7947 H   0  0  0  0  0  0  0  0  0  0  0  0
   -0.6193   -7.8204  -31.6428 H   0  0  0  0  0  0  0  0  0  0  0  0
    1.1494   -7.9209  -35.4687 H   0  0  0  0  0  0  0  0  0  0  0  0
    0.4033  -12.4656  -36.1763 H   0  0  0  0  0  0  0  0  0  0  0  0
    5.0480   -9.9376  -34.5731 H   0  0  0  0  0  0  0  0  0  0  0  0
    5.4553  -11.6065  -34.2533 H   0  0  0  0  0  0  0  0  0  0  0  0
    6.5137  -10.3285  -33.7057 H   0  0  0  0  0  0  0  0  0  0  0  0
   -2.7384   -7.1847  -32.6373 H   0  0  0  0  0  0  0  0  0  0  0  0
   -0.9681   -7.2807  -36.4666 H   0  0  0  0  0  0  0  0  0  0  0  0
   -0.2593  -14.9049  -33.7127 H   0  0  0  0  0  0  0  0  0  0  0  0
    1.0396  -14.6077  -30.0782 H   0  0  0  0  0  0  0  0  0  0  0  0
    1.7371  -13.0131  -30.2326 H   0  0  0  0  0  0  0  0  0  0  0  0
    2.3726  -14.3397  -31.1757 H   0  0  0  0  0  0  0  0  0  0  0  0
  1  2  1  0  0  0  0
  1  3  1  0  0  0  0
  1  4  1  0  0  0  0
  1 29  1  6  0  0  0
  2  5  1  0  0  0  0
  2  6  1  0  0  0  0
  3  7  2  0  0  0  0
  3  8  1  0  0  0  0
  4  9  2  0  0  0  0
  4 10  1  0  0  0  0
  5 11  2  0  0  0  0
  5 12  1  0  0  0  0
  6 13  2  0  0  0  0
  6  9  1  0  0  0  0
  7 14  1  0  0  0  0
  7 30  1  0  0  0  0
  8 15  2  0  0  0  0
  8 31  1  0  0  0  0
  9 16  1  0  0  0  0
 10 17  1  0  0  0  0
 10 18  2  0  0  0  0
 11 19  1  0  0  0  0
 11 32  1  0  0  0  0
 12 20  2  0  0  0  0
 12 33  1  0  0  0  0
 14 21  2  0  0  0  0
 14 22  1  0  0  0  0
 15 21  1  0  0  0  0
 15 34  1  0  0  0  0
 17 35  1  0  0  0  0
 17 36  1  0  0  0  0
 17 37  1  0  0  0  0
 19 23  2  0  0  0  0
 19 38  1  0  0  0  0
 20 23  1  0  0  0  0
 20 39  1  0  0  0  0
 21 24  1  0  0  0  0
 22 25  1  0  0  0  0
 23 26  1  0  0  0  0
 24 40  1  0  0  0  0
 25 41  1  0  0  0  0
 25 42  1  0  0  0  0
 25 43  1  0  0  0  0
 26 27  1  0  0  0  0
 26 28  2  0  0  0  0
M  CHG  2  16  -1  27  -1
M  END
$$$$
