HTS1710-00561125-01
 OpenBabel03232612353D

 39 39  0  0  0  0  0  0  0  0999 V2000
    4.3532  -10.3474  -31.4276 C   0  0  0  0  0  0  0  0  0  0  0  0
    4.0950  -11.7370  -31.2442 C   0  0  0  0  0  0  0  0  0  0  0  0
    4.4564   -9.8529  -32.7514 C   0  0  0  0  0  0  0  0  0  0  0  0
    4.5170   -9.3672  -30.2666 C   0  0  0  0  0  0  0  0  0  0  0  0
    3.9537  -12.5786  -32.3703 C   0  0  0  0  0  0  0  0  0  0  0  0
    3.9766  -12.2588  -29.9669 O   0  0  0  0  0  0  0  0  0  0  0  0
    4.3153  -10.6991  -33.8651 C   0  0  0  0  0  0  0  0  0  0  0  0
    4.1002   -9.6830  -29.1648 O   0  5  0  0  0  0  0  0  0  0  0  0
    5.0638   -8.3042  -30.5068 O   0  0  0  0  0  0  0  0  0  0  0  0
    4.0596  -12.0632  -33.6673 C   0  0  0  0  0  0  0  0  0  0  0  0
    2.7645  -12.8131  -29.4276 C   0  0  0  0  0  0  0  0  0  0  0  0
    4.4091  -10.0288  -35.5417 S   0  0  0  0  0  0  0  0  0  0  0  0
    3.0790  -14.2133  -28.8537 C   0  0  0  0  0  0  0  0  0  0  0  0
    5.3134   -8.8884  -35.3613 O   0  0  0  0  0  1  0  0  0  0  0  0
    3.0214   -9.6704  -35.8495 O   0  0  0  0  0  0  0  0  0  0  0  0
    4.9638  -11.1361  -36.3268 O   0  0  0  0  0  0  0  0  0  0  0  0
    4.1201  -14.1665  -27.7038 C   0  0  0  0  0  0  0  0  0  0  0  0
    5.5892  -14.1273  -28.1982 C   0  0  0  0  0  0  0  0  0  0  0  0
    6.6158  -14.6029  -27.1385 C   0  0  0  0  0  0  0  0  0  0  0  0
    6.6056  -16.1417  -26.9742 C   0  0  0  0  0  0  0  0  0  0  0  0
    7.7996  -16.6475  -26.1379 C   0  0  0  0  0  0  0  0  0  0  0  0
    4.6394   -8.8483  -32.9014 H   0  0  0  0  0  0  0  0  0  0  0  0
    3.7702  -13.5851  -32.2350 H   0  0  0  0  0  0  0  0  0  0  0  0
    3.9491  -12.6892  -34.4803 H   0  0  0  0  0  0  0  0  0  0  0  0
    2.0301  -12.8966  -30.2013 H   0  0  0  0  0  0  0  0  0  0  0  0
    2.3822  -12.1778  -28.6561 H   0  0  0  0  0  0  0  0  0  0  0  0
    3.4646  -14.8274  -29.6404 H   0  0  0  0  0  0  0  0  0  0  0  0
    2.1703  -14.6108  -28.4522 H   0  0  0  0  0  0  0  0  0  0  0  0
    3.9912  -15.0368  -27.0950 H   0  0  0  0  0  0  0  0  0  0  0  0
    3.9474  -13.2608  -27.1606 H   0  0  0  0  0  0  0  0  0  0  0  0
    5.8270  -13.1204  -28.4710 H   0  0  0  0  0  0  0  0  0  0  0  0
    5.6587  -14.8017  -29.0260 H   0  0  0  0  0  0  0  0  0  0  0  0
    6.3754  -14.1531  -26.1978 H   0  0  0  0  0  0  0  0  0  0  0  0
    7.5911  -14.3111  -27.4677 H   0  0  0  0  0  0  0  0  0  0  0  0
    6.6491  -16.5919  -27.9440 H   0  0  0  0  0  0  0  0  0  0  0  0
    5.7071  -16.4108  -26.4594 H   0  0  0  0  0  0  0  0  0  0  0  0
    8.7142  -16.3914  -26.6307 H   0  0  0  0  0  0  0  0  0  0  0  0
    7.7366  -17.7105  -26.0328 H   0  0  0  0  0  0  0  0  0  0  0  0
    7.7760  -16.1915  -25.1703 H   0  0  0  0  0  0  0  0  0  0  0  0
  1  2  2  0  0  0  0
  1  3  1  0  0  0  0
  1  4  1  0  0  0  0
  2  5  1  0  0  0  0
  2  6  1  0  0  0  0
  3  7  2  0  0  0  0
  3 22  1  0  0  0  0
  4  8  1  0  0  0  0
  4  9  2  0  0  0  0
  5 10  2  0  0  0  0
  5 23  1  0  0  0  0
  6 11  1  0  0  0  0
  7 12  1  0  0  0  0
  7 10  1  0  0  0  0
 10 24  1  0  0  0  0
 11 13  1  0  0  0  0
 11 25  1  0  0  0  0
 11 26  1  0  0  0  0
 12 14  1  0  0  0  0
 12 15  2  0  0  0  0
 12 16  2  0  0  0  0
 13 17  1  0  0  0  0
 13 27  1  0  0  0  0
 13 28  1  0  0  0  0
 17 18  1  0  0  0  0
 17 29  1  0  0  0  0
 17 30  1  0  0  0  0
 18 19  1  0  0  0  0
 18 31  1  0  0  0  0
 18 32  1  0  0  0  0
 19 20  1  0  0  0  0
 19 33  1  0  0  0  0
 19 34  1  0  0  0  0
 20 21  1  0  0  0  0
 20 35  1  0  0  0  0
 20 36  1  0  0  0  0
 21 37  1  0  0  0  0
 21 38  1  0  0  0  0
 21 39  1  0  0  0  0
M  CHG  1   8  -1
M  END
$$$$
