HTS1710-00278354-01
 OpenBabel03232612343D

 34 35  0  0  0  0  0  0  0  0999 V2000
    5.1325   -8.5392  -32.5914 C   0  0  0  0  0  0  0  0  0  0  0  0
    4.7149   -9.1755  -33.7427 C   0  0  0  0  0  0  0  0  0  0  0  0
    3.7637  -10.2589  -33.4085 C   0  0  0  0  0  0  0  0  0  0  0  0
    3.6340  -10.2240  -31.9297 C   0  0  0  0  0  0  0  0  0  0  0  0
    4.5036   -9.1403  -31.4119 C   0  0  0  0  0  0  0  0  0  0  0  0
    2.8548  -11.0571  -31.1416 C   0  0  0  0  0  0  0  0  0  0  0  0
    1.9930  -12.1525  -31.6215 C   0  0  0  0  0  0  0  0  0  0  0  0
    1.9159  -13.3912  -31.0670 C   0  0  0  0  0  0  0  0  0  0  0  0
    2.6489  -13.9307  -29.8882 C   0  0  0  0  0  0  0  0  0  0  0  0
    1.9219  -14.3339  -28.7507 C   0  0  0  0  0  0  0  0  0  0  0  0
    2.5836  -14.8453  -27.6228 C   0  0  0  0  0  0  0  0  0  0  0  0
    3.9810  -14.9619  -27.6205 C   0  0  0  0  0  0  0  0  0  0  0  0
    4.7163  -14.5638  -28.7476 C   0  0  0  0  0  0  0  0  0  0  0  0
    4.0551  -14.0501  -29.8751 C   0  0  0  0  0  0  0  0  0  0  0  0
    4.6739   -8.8012  -30.2526 O   0  0  0  0  0  0  0  0  0  0  0  0
    3.2166  -11.0228  -34.1845 O   0  0  0  0  0  0  0  0  0  0  0  0
    2.8488  -10.8732  -29.7987 O   0  5  0  0  0  0  0  0  0  0  0  0
    6.0127   -7.4874  -32.4788 O   0  0  0  0  0  0  0  0  0  0  0  0
    5.1380   -8.8444  -35.0095 O   0  0  0  0  0  0  0  0  0  0  0  0
    6.6567   -6.8686  -33.6055 C   0  0  0  0  0  0  0  0  0  0  0  0
    4.6942   -9.5338  -36.1898 C   0  0  0  0  0  0  0  0  0  0  0  0
    1.4003  -11.9637  -32.4450 H   0  0  0  0  0  0  0  0  0  0  0  0
    1.2616  -14.0454  -31.5242 H   0  0  0  0  0  0  0  0  0  0  0  0
    0.8930  -14.2526  -28.7464 H   0  0  0  0  0  0  0  0  0  0  0  0
    2.0408  -15.1358  -26.7945 H   0  0  0  0  0  0  0  0  0  0  0  0
    4.4673  -15.3394  -26.7922 H   0  0  0  0  0  0  0  0  0  0  0  0
    5.7448  -14.6488  -28.7479 H   0  0  0  0  0  0  0  0  0  0  0  0
    4.6016  -13.7577  -30.7002 H   0  0  0  0  0  0  0  0  0  0  0  0
    7.2913   -6.0779  -33.2635 H   0  0  0  0  0  0  0  0  0  0  0  0
    5.9150   -6.4705  -34.2659 H   0  0  0  0  0  0  0  0  0  0  0  0
    7.2431   -7.5971  -34.1254 H   0  0  0  0  0  0  0  0  0  0  0  0
    5.1572   -9.1000  -37.0515 H   0  0  0  0  0  0  0  0  0  0  0  0
    3.6311   -9.4476  -36.2747 H   0  0  0  0  0  0  0  0  0  0  0  0
    4.9640  -10.5670  -36.1221 H   0  0  0  0  0  0  0  0  0  0  0  0
  1  2  2  0  0  0  0
  1  5  1  0  0  0  0
  1 18  1  0  0  0  0
  2  3  1  0  0  0  0
  2 19  1  0  0  0  0
  3  4  1  0  0  0  0
  3 16  2  0  0  0  0
  4  5  1  0  0  0  0
  4  6  2  0  0  0  0
  5 15  2  0  0  0  0
  6  7  1  0  0  0  0
  6 17  1  0  0  0  0
  7  8  2  0  0  0  0
  7 22  1  0  0  0  0
  8  9  1  0  0  0  0
  8 23  1  0  0  0  0
  9 10  2  0  0  0  0
  9 14  1  0  0  0  0
 10 11  1  0  0  0  0
 10 24  1  0  0  0  0
 11 12  2  0  0  0  0
 11 25  1  0  0  0  0
 12 13  1  0  0  0  0
 12 26  1  0  0  0  0
 13 14  2  0  0  0  0
 13 27  1  0  0  0  0
 14 28  1  0  0  0  0
 18 20  1  0  0  0  0
 19 21  1  0  0  0  0
 20 29  1  0  0  0  0
 20 30  1  0  0  0  0
 20 31  1  0  0  0  0
 21 32  1  0  0  0  0
 21 33  1  0  0  0  0
 21 34  1  0  0  0  0
M  CHG  1  17  -1
M  END
$$$$
