HTS1710-02445892-01
 OpenBabel03232612353D

 38 37  0  0  0  0  0  0  0  0999 V2000
    3.5322  -11.6151  -29.9560 C   0  0  0  0  0  0  0  0  0  0  0  0
    4.1968  -10.3668  -32.6258 C   0  0  0  0  0  0  0  0  0  0  0  0
    4.6061   -9.8668  -31.4173 C   0  0  0  0  0  0  0  0  0  0  0  0
    4.1145  -10.3901  -30.1178 C   0  0  0  0  0  0  0  0  0  0  0  0
    4.5124  -10.0480  -34.0718 C   0  0  0  0  0  0  0  0  0  0  0  0
    3.0073  -12.2249  -28.6846 C   0  0  0  0  0  0  0  0  0  0  0  0
    3.2278  -13.7523  -28.4875 C   0  0  0  0  0  0  0  0  0  0  0  0
    3.9446  -10.8748  -35.2747 C   0  0  0  0  0  0  0  0  0  0  0  0
    2.4306  -11.5521  -27.8453 O   0  0  0  0  0  0  0  0  0  0  0  0
    5.2284   -9.0829  -34.2870 O   0  0  0  0  0  0  0  0  0  0  0  0
    4.2648   -9.5664  -29.0539 O   0  5  0  0  0  0  0  0  0  0  0  0
    5.4819   -8.8435  -31.3176 O   0  5  0  0  0  0  0  0  0  0  0  0
    2.2787  -14.5588  -29.4228 C   0  0  0  0  0  0  0  0  0  0  0  0
    2.9165  -14.1454  -27.0149 C   0  0  0  0  0  0  0  0  0  0  0  0
    3.7263   -9.9467  -36.5078 C   0  0  0  0  0  0  0  0  0  0  0  0
    2.6404  -11.6405  -34.8774 C   0  0  0  0  0  0  0  0  0  0  0  0
    4.9964  -11.9457  -35.7141 C   0  0  0  0  0  0  0  0  0  0  0  0
    4.6955  -14.1294  -28.8376 C   0  0  0  0  0  0  0  0  0  0  0  0
    3.4415  -12.1911  -30.8075 H   0  0  0  0  0  0  0  0  0  0  0  0
    3.5176  -11.1375  -32.5276 H   0  0  0  0  0  0  0  0  0  0  0  0
    1.2621  -14.3129  -29.1972 H   0  0  0  0  0  0  0  0  0  0  0  0
    2.4343  -15.6065  -29.2712 H   0  0  0  0  0  0  0  0  0  0  0  0
    2.4878  -14.3110  -30.4425 H   0  0  0  0  0  0  0  0  0  0  0  0
    1.9058  -13.8830  -26.7818 H   0  0  0  0  0  0  0  0  0  0  0  0
    3.5810  -13.6235  -26.3583 H   0  0  0  0  0  0  0  0  0  0  0  0
    3.0487  -15.2001  -26.8917 H   0  0  0  0  0  0  0  0  0  0  0  0
    3.0109   -9.1898  -36.2623 H   0  0  0  0  0  0  0  0  0  0  0  0
    3.3639  -10.5265  -37.3308 H   0  0  0  0  0  0  0  0  0  0  0  0
    4.6542   -9.4867  -36.7767 H   0  0  0  0  0  0  0  0  0  0  0  0
    1.8941  -10.9381  -34.5697 H   0  0  0  0  0  0  0  0  0  0  0  0
    2.8523  -12.3117  -34.0715 H   0  0  0  0  0  0  0  0  0  0  0  0
    2.2822  -12.1956  -35.7191 H   0  0  0  0  0  0  0  0  0  0  0  0
    5.9064  -11.4577  -35.9945 H   0  0  0  0  0  0  0  0  0  0  0  0
    4.6161  -12.4979  -36.5479 H   0  0  0  0  0  0  0  0  0  0  0  0
    5.1861  -12.6141  -34.9003 H   0  0  0  0  0  0  0  0  0  0  0  0
    4.9019  -13.8561  -29.8513 H   0  0  0  0  0  0  0  0  0  0  0  0
    4.8310  -15.1839  -28.7178 H   0  0  0  0  0  0  0  0  0  0  0  0
    5.3634  -13.6075  -28.1845 H   0  0  0  0  0  0  0  0  0  0  0  0
  1  4  2  0  0  0  0
  1  6  1  0  0  0  0
  1 19  1  0  0  0  0
  2  3  2  0  0  0  0
  2  5  1  0  0  0  0
  2 20  1  0  0  0  0
  3  4  1  0  0  0  0
  3 12  1  0  0  0  0
  4 11  1  0  0  0  0
  5  8  1  0  0  0  0
  5 10  2  0  0  0  0
  6  7  1  0  0  0  0
  6  9  2  0  0  0  0
  7 13  1  0  0  0  0
  7 14  1  0  0  0  0
  7 18  1  0  0  0  0
  8 15  1  0  0  0  0
  8 16  1  0  0  0  0
  8 17  1  0  0  0  0
 13 21  1  0  0  0  0
 13 22  1  0  0  0  0
 13 23  1  0  0  0  0
 14 24  1  0  0  0  0
 14 25  1  0  0  0  0
 14 26  1  0  0  0  0
 15 27  1  0  0  0  0
 15 28  1  0  0  0  0
 15 29  1  0  0  0  0
 16 30  1  0  0  0  0
 16 31  1  0  0  0  0
 16 32  1  0  0  0  0
 17 33  1  0  0  0  0
 17 34  1  0  0  0  0
 17 35  1  0  0  0  0
 18 36  1  0  0  0  0
 18 37  1  0  0  0  0
 18 38  1  0  0  0  0
M  CHG  2  11  -1  12  -1
M  END
$$$$
