HTS1710-02905540-01
 OpenBabel03232612353D

 41 43  0  0  1  0  0  0  0  0999 V2000
    0.7523  -10.4911  -34.9467 S   0  0  0  0  0  0  0  0  0  0  0  0
    2.9807  -12.7772  -29.8498 N   0  0  0  0  0  0  0  0  0  0  0  0
    3.3833  -11.5916  -29.2287 C   0  0  0  0  0  0  0  0  0  0  0  0
    2.4091  -12.4512  -31.1062 C   0  0  0  0  0  0  0  0  0  0  0  0
    2.4499  -11.0926  -31.2843 C   0  0  0  0  0  0  0  0  0  0  0  0
    3.0254  -10.4969  -30.1887 C   0  0  0  0  0  0  0  0  0  0  0  0
    1.4104  -11.2213  -33.4285 C   0  0  0  0  0  0  0  0  0  0  0  0
    2.0904   -9.6493  -35.5846 N   0  0  0  0  0  0  0  0  0  0  0  0
    2.9750  -10.3086  -36.5675 C   0  0  2  0  0  0  0  0  0  0  0  0
    1.9758  -10.4211  -32.3986 C   0  0  0  0  0  0  0  0  0  0  0  0
    4.0710  -11.1186  -35.8211 C   0  0  0  0  0  0  0  0  0  0  0  0
    3.5838   -9.3027  -37.5689 C   0  0  0  0  0  0  0  0  0  0  0  0
    1.8528  -13.2688  -32.0939 C   0  0  0  0  0  0  0  0  0  0  0  0
    1.3518  -12.6378  -33.2590 C   0  0  0  0  0  0  0  0  0  0  0  0
    0.4894  -11.5342  -35.9423 O   0  0  0  0  0  0  0  0  0  0  0  0
   -0.2568   -9.4888  -34.5868 O   0  0  0  0  0  0  0  0  0  0  0  0
    4.6965  -10.3784  -34.6269 C   0  0  0  0  0  0  0  0  0  0  0  0
    3.9130  -11.4756  -28.1379 O   0  0  0  0  0  0  0  0  0  0  0  0
    2.9632   -9.0560  -38.5902 O   0  5  0  0  0  0  0  0  0  0  0  0
    4.6350   -9.1613  -34.6284 O   0  5  0  0  0  0  0  0  0  0  0  0
    3.0974  -14.1331  -29.2942 C   0  0  0  0  0  0  0  0  0  0  0  0
    4.6770   -8.8432  -37.2843 O   0  0  0  0  0  0  0  0  0  0  0  0
    3.1653   -9.1059  -30.1397 C   0  0  0  0  0  0  0  0  0  0  0  0
    2.1010   -9.0103  -32.3736 C   0  0  0  0  0  0  0  0  0  0  0  0
    5.1745  -11.0605  -33.7355 O   0  0  0  0  0  0  0  0  0  0  0  0
    2.6932   -8.3658  -31.2521 C   0  0  0  0  0  0  0  0  0  0  0  0
    1.8982  -14.4934  -28.3968 C   0  0  0  0  0  0  0  0  0  0  0  0
    2.6760   -9.3829  -34.7930 H   0  0  0  0  0  0  0  0  0  0  0  0
    2.3869  -10.9853  -37.1515 H   0  0  0  0  0  0  0  0  0  0  0  0
    4.8495  -11.3510  -36.5173 H   0  0  0  0  0  0  0  0  0  0  0  0
    3.5942  -11.9916  -35.4269 H   0  0  0  0  0  0  0  0  0  0  0  0
    1.8086  -14.2934  -31.9787 H   0  0  0  0  0  0  0  0  0  0  0  0
    0.9340  -13.2166  -34.0042 H   0  0  0  0  0  0  0  0  0  0  0  0
    3.9939  -14.1926  -28.7132 H   0  0  0  0  0  0  0  0  0  0  0  0
    3.1192  -14.8245  -30.1106 H   0  0  0  0  0  0  0  0  0  0  0  0
    3.5948   -8.6378  -29.3265 H   0  0  0  0  0  0  0  0  0  0  0  0
    1.7620   -8.4489  -33.1704 H   0  0  0  0  0  0  0  0  0  0  0  0
    2.7808   -7.3375  -31.2485 H   0  0  0  0  0  0  0  0  0  0  0  0
    1.8542  -13.8147  -27.5708 H   0  0  0  0  0  0  0  0  0  0  0  0
    2.0133  -15.4926  -28.0318 H   0  0  0  0  0  0  0  0  0  0  0  0
    0.9940  -14.4231  -28.9647 H   0  0  0  0  0  0  0  0  0  0  0  0
  1  7  1  0  0  0  0
  1  8  1  0  0  0  0
  1 15  2  0  0  0  0
  1 16  2  0  0  0  0
  2  3  1  0  0  0  0
  2  4  1  0  0  0  0
  2 21  1  0  0  0  0
  3  6  1  0  0  0  0
  3 18  2  0  0  0  0
  4  5  2  0  0  0  0
  4 13  1  0  0  0  0
  5  6  1  0  0  0  0
  5 10  1  0  0  0  0
  6 23  2  0  0  0  0
  7 10  2  0  0  0  0
  7 14  1  0  0  0  0
  8  9  1  0  0  0  0
  8 28  1  0  0  0  0
  9 11  1  0  0  0  0
  9 12  1  0  0  0  0
  9 29  1  6  0  0  0
 10 24  1  0  0  0  0
 11 17  1  0  0  0  0
 11 30  1  0  0  0  0
 11 31  1  0  0  0  0
 12 19  1  0  0  0  0
 12 22  2  0  0  0  0
 13 14  2  0  0  0  0
 13 32  1  0  0  0  0
 14 33  1  0  0  0  0
 17 20  1  0  0  0  0
 17 25  2  0  0  0  0
 21 27  1  0  0  0  0
 21 34  1  0  0  0  0
 21 35  1  0  0  0  0
 23 26  1  0  0  0  0
 23 36  1  0  0  0  0
 24 26  2  0  0  0  0
 24 37  1  0  0  0  0
 26 38  1  0  0  0  0
 27 39  1  0  0  0  0
 27 40  1  0  0  0  0
 27 41  1  0  0  0  0
M  CHG  2  19  -1  20  -1
M  END
$$$$
