HTS1710-04525361-01
 OpenBabel03232612363D

 31 32  0  0  1  0  0  0  0  0999 V2000
    2.9213  -12.5305  -31.2385 S   0  0  0  0  0  0  0  0  0  0  0  0
    6.0609  -13.3636  -27.7629 S   0  0  0  0  0  0  0  0  0  0  0  0
    2.8490  -13.4839  -29.7058 C   0  0  0  0  0  0  0  0  0  0  0  0
    3.9474  -13.5699  -28.8292 C   0  0  0  0  0  0  0  0  0  0  0  0
    5.1587  -13.0042  -28.9819 N   0  0  0  0  0  0  0  0  0  0  0  0
    3.0982  -10.9046  -30.7584 N   0  0  0  0  0  0  0  0  0  0  0  0
    5.0292  -14.2236  -26.9723 N   0  0  0  0  0  0  0  0  0  0  0  0
    3.8981  -10.0054  -31.6192 C   0  0  2  0  0  0  0  0  0  0  0  0
    3.8749  -14.2744  -27.6566 C   0  0  0  0  0  0  0  0  0  0  0  0
    4.4792   -8.8331  -30.8031 C   0  0  0  0  0  0  0  0  0  0  0  0
    4.2016  -12.7879  -31.9059 O   0  0  0  0  0  0  0  0  0  0  0  0
    1.6557  -12.5956  -31.9767 O   0  0  0  0  0  0  0  0  0  0  0  0
    4.6264   -9.2543  -34.7641 C   0  0  0  0  0  0  0  0  0  0  0  0
    3.0176   -9.5179  -32.8000 C   0  0  0  0  0  0  0  0  0  0  0  0
    3.7016   -7.9609  -30.4549 O   0  5  0  0  0  0  0  0  0  0  0  0
    5.4470   -8.7908  -33.9899 O   0  5  0  0  0  0  0  0  0  0  0  0
    3.4834  -10.0832  -34.1639 C   0  0  0  0  0  0  0  0  0  0  0  0
    1.6594  -14.1458  -29.3312 C   0  0  0  0  0  0  0  0  0  0  0  0
    5.6756   -8.8453  -30.5645 O   0  0  0  0  0  0  0  0  0  0  0  0
    4.6530   -9.1362  -35.9764 O   0  0  0  0  0  0  0  0  0  0  0  0
    2.7089  -14.9427  -27.2664 C   0  0  0  0  0  0  0  0  0  0  0  0
    1.5907  -14.8724  -28.1200 C   0  0  0  0  0  0  0  0  0  0  0  0
    3.5338  -10.9071  -29.8361 H   0  0  0  0  0  0  0  0  0  0  0  0
    4.7345  -10.5392  -32.0196 H   0  0  0  0  0  0  0  0  0  0  0  0
    3.0590   -8.4494  -32.8400 H   0  0  0  0  0  0  0  0  0  0  0  0
    2.0215   -9.8685  -32.6274 H   0  0  0  0  0  0  0  0  0  0  0  0
    3.8210  -11.0890  -34.0248 H   0  0  0  0  0  0  0  0  0  0  0  0
    2.6548  -10.0456  -34.8399 H   0  0  0  0  0  0  0  0  0  0  0  0
    0.8325  -14.0989  -29.9468 H   0  0  0  0  0  0  0  0  0  0  0  0
    2.6695  -15.4708  -26.3806 H   0  0  0  0  0  0  0  0  0  0  0  0
    0.7159  -15.3540  -27.8599 H   0  0  0  0  0  0  0  0  0  0  0  0
  1  3  1  0  0  0  0
  1  6  1  0  0  0  0
  1 11  2  0  0  0  0
  1 12  2  0  0  0  0
  2  5  2  0  0  0  0
  2  7  2  0  0  0  0
  3  4  2  0  0  0  0
  3 18  1  0  0  0  0
  4  5  1  0  0  0  0
  4  9  1  0  0  0  0
  6  8  1  0  0  0  0
  6 23  1  0  0  0  0
  7  9  1  0  0  0  0
  8 10  1  0  0  0  0
  8 14  1  0  0  0  0
  8 24  1  6  0  0  0
  9 21  2  0  0  0  0
 10 15  1  0  0  0  0
 10 19  2  0  0  0  0
 13 17  1  0  0  0  0
 13 16  1  0  0  0  0
 13 20  2  0  0  0  0
 14 17  1  0  0  0  0
 14 25  1  0  0  0  0
 14 26  1  0  0  0  0
 17 27  1  0  0  0  0
 17 28  1  0  0  0  0
 18 22  2  0  0  0  0
 18 29  1  0  0  0  0
 21 22  1  0  0  0  0
 21 30  1  0  0  0  0
 22 31  1  0  0  0  0
M  CHG  2  15  -1  16  -1
M  END
$$$$
