HTS1710-00384154-01
 OpenBabel03232612363D

 41 43  0  0  0  0  0  0  0  0999 V2000
    3.9060   -9.1215  -37.4457 O   0  5  0  0  0  0  0  0  0  0  0  0
    4.5497   -9.3619  -36.4388 C   0  0  0  0  0  0  0  0  0  0  0  0
    5.3237   -8.5941  -35.8940 O   0  0  0  0  0  0  0  0  0  0  0  0
    4.3667  -10.7487  -35.8112 C   0  0  0  0  0  0  0  0  0  0  0  0
    4.0579  -10.6313  -34.3634 N   0  0  0  0  0  0  0  0  0  0  0  0
    2.6364  -10.8674  -33.9532 C   0  0  0  0  0  0  0  0  0  0  0  0
    1.6696   -9.7143  -34.3641 C   0  0  0  0  0  0  0  0  0  0  0  0
    0.9452   -9.9399  -35.7126 C   0  0  0  0  0  0  0  0  0  0  0  0
    0.3527  -11.2528  -35.6997 O   0  0  0  0  0  0  0  0  0  0  0  0
    1.3063  -12.3302  -35.6809 C   0  0  0  0  0  0  0  0  0  0  0  0
    2.0978  -12.2799  -34.3480 C   0  0  0  0  0  0  0  0  0  0  0  0
    5.1330  -10.5924  -33.4557 C   0  0  0  0  0  0  0  0  0  0  0  0
    6.2733  -10.3687  -33.8314 O   0  0  0  0  0  0  0  0  0  0  0  0
    4.8420  -10.7973  -32.0062 C   0  0  0  0  0  0  0  0  0  0  0  0
    4.9067   -9.8807  -30.9927 C   0  0  0  0  0  0  0  0  0  0  0  0
    4.6299  -10.4575  -29.7837 O   0  0  0  0  0  0  0  0  0  0  0  0
    4.4285  -11.7608  -30.1851 C   0  0  0  0  0  0  0  0  0  0  0  0
    4.5518  -12.0124  -31.4759 N   0  0  0  0  0  0  0  0  0  0  0  0
    4.1048  -12.7507  -29.1437 C   0  0  0  0  0  0  0  0  0  0  0  0
    3.3575  -12.3848  -28.0035 C   0  0  0  0  0  0  0  0  0  0  0  0
    3.0539  -13.3342  -27.0138 C   0  0  0  0  0  0  0  0  0  0  0  0
    3.4902  -14.6600  -27.1511 C   0  0  0  0  0  0  0  0  0  0  0  0
    4.2329  -15.0360  -28.2795 C   0  0  0  0  0  0  0  0  0  0  0  0
    4.5380  -14.0889  -29.2704 C   0  0  0  0  0  0  0  0  0  0  0  0
    5.2683  -11.3118  -35.9338 H   0  0  0  0  0  0  0  0  0  0  0  0
    3.5522  -11.2427  -36.2984 H   0  0  0  0  0  0  0  0  0  0  0  0
    2.6577  -10.8577  -32.8835 H   0  0  0  0  0  0  0  0  0  0  0  0
    2.2378   -8.8105  -34.4363 H   0  0  0  0  0  0  0  0  0  0  0  0
    0.9098   -9.6694  -33.6122 H   0  0  0  0  0  0  0  0  0  0  0  0
    1.6481   -9.8691  -36.5162 H   0  0  0  0  0  0  0  0  0  0  0  0
    0.1872   -9.1972  -35.8500 H   0  0  0  0  0  0  0  0  0  0  0  0
    1.9822  -12.2257  -36.5038 H   0  0  0  0  0  0  0  0  0  0  0  0
    0.7956  -13.2669  -35.7633 H   0  0  0  0  0  0  0  0  0  0  0  0
    2.9339  -12.9421  -34.4331 H   0  0  0  0  0  0  0  0  0  0  0  0
    1.4086  -12.5627  -33.5799 H   0  0  0  0  0  0  0  0  0  0  0  0
    5.1350   -8.8828  -31.1235 H   0  0  0  0  0  0  0  0  0  0  0  0
    3.0314  -11.4116  -27.8961 H   0  0  0  0  0  0  0  0  0  0  0  0
    2.5083  -13.0554  -26.1833 H   0  0  0  0  0  0  0  0  0  0  0  0
    3.2652  -15.3568  -26.4238 H   0  0  0  0  0  0  0  0  0  0  0  0
    4.5560  -16.0108  -28.3819 H   0  0  0  0  0  0  0  0  0  0  0  0
    5.0837  -14.3734  -30.0989 H   0  0  0  0  0  0  0  0  0  0  0  0
  1  2  1  0  0  0  0
  2  3  2  0  0  0  0
  2  4  1  0  0  0  0
  4  5  1  0  0  0  0
  4 25  1  0  0  0  0
  4 26  1  0  0  0  0
  5  6  1  0  0  0  0
  5 12  1  0  0  0  0
  6  7  1  0  0  0  0
  6 11  1  0  0  0  0
  6 27  1  0  0  0  0
  7  8  1  0  0  0  0
  7 28  1  0  0  0  0
  7 29  1  0  0  0  0
  8  9  1  0  0  0  0
  8 30  1  0  0  0  0
  8 31  1  0  0  0  0
  9 10  1  0  0  0  0
 10 11  1  0  0  0  0
 10 32  1  0  0  0  0
 10 33  1  0  0  0  0
 11 34  1  0  0  0  0
 11 35  1  0  0  0  0
 12 13  2  0  0  0  0
 12 14  1  0  0  0  0
 14 15  2  0  0  0  0
 14 18  1  0  0  0  0
 15 16  1  0  0  0  0
 15 36  1  0  0  0  0
 16 17  1  0  0  0  0
 17 18  2  0  0  0  0
 17 19  1  0  0  0  0
 19 20  2  0  0  0  0
 19 24  1  0  0  0  0
 20 21  1  0  0  0  0
 20 37  1  0  0  0  0
 21 22  2  0  0  0  0
 21 38  1  0  0  0  0
 22 23  1  0  0  0  0
 22 39  1  0  0  0  0
 23 24  2  0  0  0  0
 23 40  1  0  0  0  0
 24 41  1  0  0  0  0
M  CHG  1   1  -1
M  END
$$$$
