HTS1710-00959046-01
 OpenBabel03232612363D

 38 39  0  0  1  0  0  0  0  0999 V2000
   -0.4454   -6.2080  -37.0965 C   0  0  0  0  0  0  0  0  0  0  0  0
   -2.3034   -4.7906  -36.1849 C   0  0  0  0  0  0  0  0  0  0  0  0
   -0.2930   -5.3363  -38.1447 O   0  0  0  0  0  0  0  0  0  0  0  0
   -1.0434   -4.2124  -38.3137 C   0  0  0  0  0  0  0  0  0  0  0  0
   -1.4250   -5.9694  -36.1124 C   0  0  0  0  0  0  0  0  0  0  0  0
   -2.0682   -3.9734  -37.2767 C   0  0  0  0  0  0  0  0  0  0  0  0
    4.7388   -9.1760  -32.3516 C   0  0  0  0  0  0  0  0  0  0  0  0
    3.1974   -9.3163  -32.2174 C   0  0  1  0  0  0  0  0  0  0  0  0
    2.5446   -8.0390  -31.6584 C   0  0  0  0  0  0  0  0  0  0  0  0
    2.6066   -9.6260  -33.5293 N   0  0  0  0  0  0  0  0  0  0  0  0
    0.3862   -7.3368  -37.0226 C   0  0  0  0  0  0  0  0  0  0  0  0
    5.4250   -8.8780  -31.0118 C   0  0  0  0  0  0  0  0  0  0  0  0
    1.3581  -10.2148  -33.6753 C   0  0  0  0  0  0  0  0  0  0  0  0
   -1.5512   -6.8848  -35.0475 C   0  0  0  0  0  0  0  0  0  0  0  0
   -0.8761   -3.4595  -39.2576 O   0  0  0  0  0  0  0  0  0  0  0  0
    2.0147   -7.2784  -32.4517 O   0  5  0  0  0  0  0  0  0  0  0  0
    5.1348   -9.5859  -30.0629 O   0  5  0  0  0  0  0  0  0  0  0  0
    0.6887  -10.4965  -32.6946 O   0  0  0  0  0  0  0  0  0  0  0  0
    0.2560   -8.2452  -35.9602 C   0  0  0  0  0  0  0  0  0  0  0  0
    1.0950   -9.3420  -35.9291 O   0  0  0  0  0  0  0  0  0  0  0  0
    0.8512  -10.4876  -35.0907 C   0  0  0  0  0  0  0  0  0  0  0  0
   -0.7190   -8.0137  -34.9681 C   0  0  0  0  0  0  0  0  0  0  0  0
    2.5704   -7.8874  -30.4481 O   0  0  0  0  0  0  0  0  0  0  0  0
    6.1969   -7.9343  -30.9800 O   0  0  0  0  0  0  0  0  0  0  0  0
   -3.3921   -4.4158  -35.2068 C   0  0  0  0  0  0  0  0  0  0  0  0
   -2.6551   -3.1302  -37.3742 H   0  0  0  0  0  0  0  0  0  0  0  0
    4.9520   -8.3770  -33.0307 H   0  0  0  0  0  0  0  0  0  0  0  0
    5.1187  -10.1105  -32.7086 H   0  0  0  0  0  0  0  0  0  0  0  0
    3.0104  -10.1126  -31.5276 H   0  0  0  0  0  0  0  0  0  0  0  0
    3.1199   -9.4055  -34.3399 H   0  0  0  0  0  0  0  0  0  0  0  0
    1.0969   -7.4995  -37.7529 H   0  0  0  0  0  0  0  0  0  0  0  0
   -2.2632   -6.7236  -34.3181 H   0  0  0  0  0  0  0  0  0  0  0  0
   -0.1996  -10.6866  -35.0588 H   0  0  0  0  0  0  0  0  0  0  0  0
    1.3681  -11.3340  -35.4925 H   0  0  0  0  0  0  0  0  0  0  0  0
   -0.8214   -8.6748  -34.1823 H   0  0  0  0  0  0  0  0  0  0  0  0
   -3.4403   -5.1488  -34.4288 H   0  0  0  0  0  0  0  0  0  0  0  0
   -4.3316   -4.3752  -35.7173 H   0  0  0  0  0  0  0  0  0  0  0  0
   -3.1754   -3.4581  -34.7818 H   0  0  0  0  0  0  0  0  0  0  0  0
  1  3  1  0  0  0  0
  1  5  2  0  0  0  0
  1 11  1  0  0  0  0
  2  5  1  0  0  0  0
  2  6  2  0  0  0  0
  2 25  1  0  0  0  0
  3  4  1  0  0  0  0
  4 15  2  0  0  0  0
  4  6  1  0  0  0  0
  5 14  1  0  0  0  0
  6 26  1  0  0  0  0
  7  8  1  0  0  0  0
  7 12  1  0  0  0  0
  7 27  1  0  0  0  0
  7 28  1  0  0  0  0
  8 10  1  0  0  0  0
  8  9  1  0  0  0  0
  8 29  1  1  0  0  0
  9 16  1  0  0  0  0
  9 23  2  0  0  0  0
 10 13  1  0  0  0  0
 10 30  1  0  0  0  0
 11 19  2  0  0  0  0
 11 31  1  0  0  0  0
 12 17  1  0  0  0  0
 12 24  2  0  0  0  0
 13 21  1  0  0  0  0
 13 18  2  0  0  0  0
 14 22  2  0  0  0  0
 14 32  1  0  0  0  0
 19 20  1  0  0  0  0
 19 22  1  0  0  0  0
 20 21  1  0  0  0  0
 21 33  1  0  0  0  0
 21 34  1  0  0  0  0
 22 35  1  0  0  0  0
 25 36  1  0  0  0  0
 25 37  1  0  0  0  0
 25 38  1  0  0  0  0
M  CHG  2  16  -1  17  -1
M  END
$$$$
