HTS1710-00300530-01
 OpenBabel03232612363D

 38 39  0  0  1  0  0  0  0  0999 V2000
    3.5894  -12.9170  -29.3527 S   0  0  0  0  0  0  0  0  0  0  0  0
    4.9994   -9.3657  -32.8856 C   0  0  0  0  0  0  0  0  0  0  0  0
    4.6337  -10.0490  -31.7541 C   0  0  0  0  0  0  0  0  0  0  0  0
    4.9945   -9.4181  -30.6094 O   0  0  0  0  0  0  0  0  0  0  0  0
    5.6718   -8.2259  -31.0059 N   0  0  0  0  0  0  0  0  0  0  0  0
    4.5517  -12.2608  -30.5980 N   0  0  0  0  0  0  0  0  0  0  0  0
    3.9316  -11.3900  -31.6175 C   0  0  2  0  0  0  0  0  0  0  0  0
    5.6646   -8.2164  -32.3351 C   0  0  0  0  0  0  0  0  0  0  0  0
    4.7853   -9.6981  -34.3303 C   0  0  0  0  0  0  0  0  0  0  0  0
    4.6946  -13.9661  -28.3890 C   0  0  0  0  0  0  0  0  0  0  0  0
    3.2580  -11.7408  -28.5434 O   0  0  0  0  0  0  0  0  0  0  0  0
    2.5747  -13.7365  -30.0224 O   0  0  0  0  0  0  0  0  0  0  0  0
    3.7982   -9.2460  -34.8813 O   0  5  0  0  0  0  0  0  0  0  0  0
    5.8962  -13.4537  -27.8686 C   0  0  0  0  0  0  0  0  0  0  0  0
    4.3467  -15.3069  -28.1481 C   0  0  0  0  0  0  0  0  0  0  0  0
    5.5977  -10.4072  -34.8932 O   0  0  0  0  0  0  0  0  0  0  0  0
    6.3968  -15.6210  -26.8674 C   0  0  0  0  0  0  0  0  0  0  0  0
    5.1958  -16.1293  -27.3912 C   0  0  0  0  0  0  0  0  0  0  0  0
    6.7452  -14.2738  -27.1087 C   0  0  0  0  0  0  0  0  0  0  0  0
    3.8048  -12.1344  -32.9669 C   0  0  0  0  0  0  0  0  0  0  0  0
    7.1963  -16.4711  -26.1279 O   0  0  0  0  0  0  0  0  0  0  0  0
    6.2807   -7.1255  -33.1774 C   0  0  0  0  0  0  0  0  0  0  0  0
    6.6736  -17.5835  -25.3807 C   0  0  0  0  0  0  0  0  0  0  0  0
    4.9699  -13.0473  -31.0949 H   0  0  0  0  0  0  0  0  0  0  0  0
    2.9430  -11.1569  -31.2808 H   0  0  0  0  0  0  0  0  0  0  0  0
    6.1551  -12.4706  -28.0459 H   0  0  0  0  0  0  0  0  0  0  0  0
    3.4658  -15.6869  -28.5283 H   0  0  0  0  0  0  0  0  0  0  0  0
    4.9367  -17.1132  -27.2184 H   0  0  0  0  0  0  0  0  0  0  0  0
    7.6244  -13.8920  -26.7263 H   0  0  0  0  0  0  0  0  0  0  0  0
    4.7801  -12.3819  -33.3307 H   0  0  0  0  0  0  0  0  0  0  0  0
    3.3087  -11.5052  -33.6761 H   0  0  0  0  0  0  0  0  0  0  0  0
    3.2379  -13.0311  -32.8278 H   0  0  0  0  0  0  0  0  0  0  0  0
    6.1408   -7.3529  -34.2135 H   0  0  0  0  0  0  0  0  0  0  0  0
    7.3273   -7.0589  -32.9651 H   0  0  0  0  0  0  0  0  0  0  0  0
    5.8106   -6.1914  -32.9507 H   0  0  0  0  0  0  0  0  0  0  0  0
    7.4770  -18.0936  -24.8915 H   0  0  0  0  0  0  0  0  0  0  0  0
    6.1756  -18.2576  -26.0458 H   0  0  0  0  0  0  0  0  0  0  0  0
    5.9795  -17.2267  -24.6486 H   0  0  0  0  0  0  0  0  0  0  0  0
  1  6  1  0  0  0  0
  1 10  1  0  0  0  0
  1 11  2  0  0  0  0
  1 12  2  0  0  0  0
  2  3  2  0  0  0  0
  2  8  1  0  0  0  0
  2  9  1  0  0  0  0
  3  7  1  0  0  0  0
  3  4  1  0  0  0  0
  4  5  1  0  0  0  0
  5  8  2  0  0  0  0
  6  7  1  0  0  0  0
  6 24  1  0  0  0  0
  7 20  1  0  0  0  0
  7 25  1  1  0  0  0
  8 22  1  0  0  0  0
  9 13  1  0  0  0  0
  9 16  2  0  0  0  0
 10 14  2  0  0  0  0
 10 15  1  0  0  0  0
 14 19  1  0  0  0  0
 14 26  1  0  0  0  0
 15 18  2  0  0  0  0
 15 27  1  0  0  0  0
 17 18  1  0  0  0  0
 17 21  1  0  0  0  0
 17 19  2  0  0  0  0
 18 28  1  0  0  0  0
 19 29  1  0  0  0  0
 20 30  1  0  0  0  0
 20 31  1  0  0  0  0
 20 32  1  0  0  0  0
 21 23  1  0  0  0  0
 22 33  1  0  0  0  0
 22 34  1  0  0  0  0
 22 35  1  0  0  0  0
 23 36  1  0  0  0  0
 23 37  1  0  0  0  0
 23 38  1  0  0  0  0
M  CHG  1  13  -1
M  END
$$$$
