HTS1710-04760636-01
 OpenBabel03232612363D

 39 40  0  0  1  0  0  0  0  0999 V2000
    6.7022   -6.3059  -34.8484 C   0  0  0  0  0  0  0  0  0  0  0  0
    6.0889   -7.6401  -34.5102 C   0  0  0  0  0  0  0  0  0  0  0  0
    5.7929   -8.5084  -35.5295 O   0  0  0  0  0  0  0  0  0  0  0  0
    5.2698   -9.5513  -34.8168 C   0  0  0  0  0  0  0  0  0  0  0  0
    4.7701  -10.7763  -35.5329 C   0  0  0  0  0  0  0  0  0  0  0  0
    4.5841  -11.8710  -34.5722 N   0  0  0  0  0  0  0  0  0  0  0  0
    3.3507  -12.1755  -34.0113 C   0  0  0  0  0  0  0  0  0  0  0  0
    2.3648  -11.5205  -34.3085 O   0  0  0  0  0  0  0  0  0  0  0  0
    3.2904  -13.3427  -33.0212 C   0  0  0  0  0  0  0  0  0  0  0  0
    3.2666  -12.8590  -31.6620 O   0  0  0  0  0  0  0  0  0  0  0  0
    3.1530  -13.8659  -30.6350 C   0  0  0  0  0  0  0  0  0  0  0  0
    3.0553  -13.1930  -29.2344 C   0  0  1  0  0  0  0  0  0  0  0  0
    2.5346  -14.1349  -28.1212 C   0  0  0  0  0  0  0  0  0  0  0  0
    3.7904  -14.5795  -27.3486 C   0  0  0  0  0  0  0  0  0  0  0  0
    4.9629  -13.9865  -28.1455 C   0  0  0  0  0  0  0  0  0  0  0  0
    4.3777  -12.8408  -28.7847 O   0  0  0  0  0  0  0  0  0  0  0  0
    5.2326   -9.3788  -33.4585 C   0  0  0  0  0  0  0  0  0  0  0  0
    5.7819   -8.0878  -33.2392 C   0  0  0  0  0  0  0  0  0  0  0  0
    5.9565   -7.4215  -31.9259 C   0  0  0  0  0  0  0  0  0  0  0  0
    6.0352   -6.2054  -31.9281 O   0  5  0  0  0  0  0  0  0  0  0  0
    6.0107   -8.1138  -30.9251 O   0  0  0  0  0  0  0  0  0  0  0  0
    6.8282   -6.2296  -35.9082 H   0  0  0  0  0  0  0  0  0  0  0  0
    7.6547   -6.2194  -34.3688 H   0  0  0  0  0  0  0  0  0  0  0  0
    6.0591   -5.5212  -34.5082 H   0  0  0  0  0  0  0  0  0  0  0  0
    5.4836  -11.0709  -36.2737 H   0  0  0  0  0  0  0  0  0  0  0  0
    3.8346  -10.5548  -36.0025 H   0  0  0  0  0  0  0  0  0  0  0  0
    5.3658  -12.4114  -34.3151 H   0  0  0  0  0  0  0  0  0  0  0  0
    4.1509  -13.9638  -33.1579 H   0  0  0  0  0  0  0  0  0  0  0  0
    2.3961  -13.9015  -33.2028 H   0  0  0  0  0  0  0  0  0  0  0  0
    4.0147  -14.4996  -30.6638 H   0  0  0  0  0  0  0  0  0  0  0  0
    2.2697  -14.4445  -30.8079 H   0  0  0  0  0  0  0  0  0  0  0  0
    2.3875  -12.3681  -29.3708 H   0  0  0  0  0  0  0  0  0  0  0  0
    2.0373  -14.9809  -28.5476 H   0  0  0  0  0  0  0  0  0  0  0  0
    1.8250  -13.6484  -27.4850 H   0  0  0  0  0  0  0  0  0  0  0  0
    3.8565  -15.6470  -27.3165 H   0  0  0  0  0  0  0  0  0  0  0  0
    3.7809  -14.2476  -26.3314 H   0  0  0  0  0  0  0  0  0  0  0  0
    5.3276  -14.6853  -28.8691 H   0  0  0  0  0  0  0  0  0  0  0  0
    5.8056  -13.7414  -27.5334 H   0  0  0  0  0  0  0  0  0  0  0  0
    4.8821  -10.0419  -32.7497 H   0  0  0  0  0  0  0  0  0  0  0  0
  1  2  1  0  0  0  0
  1 22  1  0  0  0  0
  1 23  1  0  0  0  0
  1 24  1  0  0  0  0
  2  3  1  0  0  0  0
  2 18  2  0  0  0  0
  3  4  1  0  0  0  0
  4  5  1  0  0  0  0
  4 17  2  0  0  0  0
  5  6  1  0  0  0  0
  5 25  1  0  0  0  0
  5 26  1  0  0  0  0
  6  7  1  0  0  0  0
  6 27  1  0  0  0  0
  7  8  2  0  0  0  0
  7  9  1  0  0  0  0
  9 10  1  0  0  0  0
  9 28  1  0  0  0  0
  9 29  1  0  0  0  0
 10 11  1  0  0  0  0
 11 12  1  0  0  0  0
 11 30  1  0  0  0  0
 11 31  1  0  0  0  0
 12 13  1  0  0  0  0
 12 16  1  0  0  0  0
 12 32  1  6  0  0  0
 13 14  1  0  0  0  0
 13 33  1  0  0  0  0
 13 34  1  0  0  0  0
 14 15  1  0  0  0  0
 14 35  1  0  0  0  0
 14 36  1  0  0  0  0
 15 16  1  0  0  0  0
 15 37  1  0  0  0  0
 15 38  1  0  0  0  0
 17 18  1  0  0  0  0
 17 39  1  0  0  0  0
 18 19  1  0  0  0  0
 19 20  1  0  0  0  0
 19 21  2  0  0  0  0
M  CHG  1  20  -1
M  END
$$$$
