HTS1710-00173681-01
 OpenBabel03232612343D

 29 29  0  0  1  0  0  0  0  0999 V2000
    2.8739   -9.4299  -34.5057 C   0  0  0  0  0  0  0  0  0  0  0  0
    2.7514   -9.4047  -33.0316 C   0  0  0  0  0  0  0  0  0  0  0  0
    3.4445  -10.3735  -32.3214 N   0  0  0  0  0  0  0  0  0  0  0  0
    4.0046   -9.4458  -35.2901 C   0  0  0  0  0  0  0  0  0  0  0  0
    4.1858   -9.3216  -30.1736 C   0  0  0  0  0  0  0  0  0  0  0  0
    3.4221  -10.4782  -30.8535 C   0  0  2  0  0  0  0  0  0  0  0  0
    1.8103   -9.4392  -35.4451 C   0  0  0  0  0  0  0  0  0  0  0  0
    3.7806   -9.4633  -36.6417 O   0  0  0  0  0  0  0  0  0  0  0  0
    2.4103   -9.4593  -36.6784 C   0  0  0  0  0  0  0  0  0  0  0  0
    3.0910  -12.2974  -28.0131 C   0  0  0  0  0  0  0  0  0  0  0  0
    2.0756   -8.5843  -32.4338 O   0  0  0  0  0  0  0  0  0  0  0  0
    5.3463   -9.1624  -30.5124 O   0  5  0  0  0  0  0  0  0  0  0  0
    3.7952  -12.9818  -27.2919 O   0  5  0  0  0  0  0  0  0  0  0  0
    3.9583  -11.8719  -30.4164 C   0  0  0  0  0  0  0  0  0  0  0  0
    3.0076  -12.6917  -29.4970 C   0  0  0  0  0  0  0  0  0  0  0  0
    3.6043   -8.6568  -29.3321 O   0  0  0  0  0  0  0  0  0  0  0  0
    2.4421  -11.3309  -27.6546 O   0  0  0  0  0  0  0  0  0  0  0  0
    5.4219   -9.4395  -34.7760 C   0  0  0  0  0  0  0  0  0  0  0  0
    3.9807  -11.0266  -32.8266 H   0  0  0  0  0  0  0  0  0  0  0  0
    2.4074  -10.3888  -30.5258 H   0  0  0  0  0  0  0  0  0  0  0  0
    0.7984   -9.4322  -35.2430 H   0  0  0  0  0  0  0  0  0  0  0  0
    1.8748   -9.4706  -37.5606 H   0  0  0  0  0  0  0  0  0  0  0  0
    4.8784  -11.7221  -29.8911 H   0  0  0  0  0  0  0  0  0  0  0  0
    4.0658  -12.4427  -31.3150 H   0  0  0  0  0  0  0  0  0  0  0  0
    2.0022  -12.5411  -29.8306 H   0  0  0  0  0  0  0  0  0  0  0  0
    3.3117  -13.7153  -29.5661 H   0  0  0  0  0  0  0  0  0  0  0  0
    5.4132   -9.4255  -33.7061 H   0  0  0  0  0  0  0  0  0  0  0  0
    5.9294   -8.5706  -35.1398 H   0  0  0  0  0  0  0  0  0  0  0  0
    5.9290  -10.3178  -35.1171 H   0  0  0  0  0  0  0  0  0  0  0  0
  1  2  1  0  0  0  0
  1  4  2  0  0  0  0
  1  7  1  0  0  0  0
  2  3  1  0  0  0  0
  2 11  2  0  0  0  0
  3  6  1  0  0  0  0
  3 19  1  0  0  0  0
  4  8  1  0  0  0  0
  4 18  1  0  0  0  0
  5  6  1  0  0  0  0
  5 12  1  0  0  0  0
  5 16  2  0  0  0  0
  6 14  1  0  0  0  0
  6 20  1  1  0  0  0
  7  9  2  0  0  0  0
  7 21  1  0  0  0  0
  8  9  1  0  0  0  0
  9 22  1  0  0  0  0
 10 15  1  0  0  0  0
 10 13  1  0  0  0  0
 10 17  2  0  0  0  0
 14 15  1  0  0  0  0
 14 23  1  0  0  0  0
 14 24  1  0  0  0  0
 15 25  1  0  0  0  0
 15 26  1  0  0  0  0
 18 27  1  0  0  0  0
 18 28  1  0  0  0  0
 18 29  1  0  0  0  0
M  CHG  2  12  -1  13  -1
M  END
$$$$
