HTS1710-00536475-01
 OpenBabel03232612353D

 25 24  0  0  0  0  0  0  0  0999 V2000
    3.5829   -9.3996  -31.6598 C   0  0  0  0  0  0  0  0  0  0  0  0
    3.0003   -9.5695  -33.0853 C   0  0  0  0  0  0  0  0  0  0  0  0
    3.4572  -10.7172  -30.8358 C   0  0  0  0  0  0  0  0  0  0  0  0
    5.0622   -8.9120  -31.7207 C   0  0  0  0  0  0  0  0  0  0  0  0
    3.4927  -10.7893  -33.8909 C   0  0  0  0  0  0  0  0  0  0  0  0
    2.1642   -8.8017  -33.5341 O   0  0  0  0  0  0  0  0  0  0  0  0
    3.4774  -10.5050  -29.3152 C   0  0  0  0  0  0  0  0  0  0  0  0
    5.1921   -7.4104  -32.0125 C   0  0  0  0  0  0  0  0  0  0  0  0
    3.2978  -10.6505  -35.4223 C   0  0  0  0  0  0  0  0  0  0  0  0
    4.5496  -10.6257  -28.7480 O   0  5  0  0  0  0  0  0  0  0  0  0
    2.4164  -10.2461  -28.7734 O   0  0  0  0  0  0  0  0  0  0  0  0
    4.4817   -6.6545  -31.3731 O   0  5  0  0  0  0  0  0  0  0  0  0
    5.9778   -7.0757  -32.8825 O   0  0  0  0  0  0  0  0  0  0  0  0
    4.1690   -9.5397  -36.0236 C   0  0  0  0  0  0  0  0  0  0  0  0
    5.1111   -9.1437  -35.3598 O   0  5  0  0  0  0  0  0  0  0  0  0
    3.8795   -9.1504  -37.1422 O   0  0  0  0  0  0  0  0  0  0  0  0
    3.0081   -8.6501  -31.1571 H   0  0  0  0  0  0  0  0  0  0  0  0
    4.2738  -11.3572  -31.0974 H   0  0  0  0  0  0  0  0  0  0  0  0
    2.5063  -11.1445  -31.0769 H   0  0  0  0  0  0  0  0  0  0  0  0
    5.5673   -9.4534  -32.4931 H   0  0  0  0  0  0  0  0  0  0  0  0
    5.4949   -9.0876  -30.7580 H   0  0  0  0  0  0  0  0  0  0  0  0
    2.9535  -11.6520  -33.5594 H   0  0  0  0  0  0  0  0  0  0  0  0
    4.5455  -10.8714  -33.7179 H   0  0  0  0  0  0  0  0  0  0  0  0
    2.2704  -10.4261  -35.6192 H   0  0  0  0  0  0  0  0  0  0  0  0
    3.5902  -11.5754  -35.8740 H   0  0  0  0  0  0  0  0  0  0  0  0
  1  2  1  0  0  0  0
  1  3  1  0  0  0  0
  1  4  1  0  0  0  0
  1 17  1  0  0  0  0
  2  5  1  0  0  0  0
  2  6  2  0  0  0  0
  3  7  1  0  0  0  0
  3 18  1  0  0  0  0
  3 19  1  0  0  0  0
  4  8  1  0  0  0  0
  4 20  1  0  0  0  0
  4 21  1  0  0  0  0
  5  9  1  0  0  0  0
  5 22  1  0  0  0  0
  5 23  1  0  0  0  0
  7 10  1  0  0  0  0
  7 11  2  0  0  0  0
  8 12  1  0  0  0  0
  8 13  2  0  0  0  0
  9 14  1  0  0  0  0
  9 24  1  0  0  0  0
  9 25  1  0  0  0  0
 14 15  1  0  0  0  0
 14 16  2  0  0  0  0
M  CHG  3  10  -1  12  -1  15  -1
M  END
$$$$
