HTS1710-00523553-01
 OpenBabel03232612353D

 39 41  0  0  0  0  0  0  0  0999 V2000
    1.8104  -12.8369  -32.1302 C   0  0  0  0  0  0  0  0  0  0  0  0
    1.2280  -12.6179  -33.4812 C   0  0  0  0  0  0  0  0  0  0  0  0
    1.6061  -14.0804  -31.4886 C   0  0  0  0  0  0  0  0  0  0  0  0
    2.4950  -11.8209  -31.4077 C   0  0  0  0  0  0  0  0  0  0  0  0
    1.4919  -11.5494  -34.4734 C   0  0  0  0  0  0  0  0  0  0  0  0
    0.4148  -13.6370  -33.9527 C   0  0  0  0  0  0  0  0  0  0  0  0
    2.1565  -14.3500  -30.2278 C   0  0  0  0  0  0  0  0  0  0  0  0
    0.8303  -15.0525  -32.0699 O   0  0  0  0  0  0  0  0  0  0  0  0
    3.0584  -12.1057  -30.1412 C   0  0  0  0  0  0  0  0  0  0  0  0
    2.5370  -10.5343  -31.9157 O   0  0  0  0  0  0  0  0  0  0  0  0
    2.4828  -11.7215  -35.4648 C   0  0  0  0  0  0  0  0  0  0  0  0
    0.7225  -10.3641  -34.4963 C   0  0  0  0  0  0  0  0  0  0  0  0
    0.1706  -14.9070  -33.2495 C   0  0  0  0  0  0  0  0  0  0  0  0
    2.9051  -13.3780  -29.5589 C   0  0  0  0  0  0  0  0  0  0  0  0
    2.9530   -9.3680  -31.1719 C   0  0  0  0  0  0  0  0  0  0  0  0
    2.7242  -10.7262  -36.4240 C   0  0  0  0  0  0  0  0  0  0  0  0
    0.9642   -9.3682  -35.4563 C   0  0  0  0  0  0  0  0  0  0  0  0
   -0.5502  -15.7803  -33.6990 O   0  0  0  0  0  0  0  0  0  0  0  0
    3.4317  -13.6975  -28.3197 O   0  0  0  0  0  0  0  0  0  0  0  0
    4.4742   -9.1541  -31.2457 C   0  0  0  0  0  0  0  0  0  0  0  0
    1.9678   -9.5455  -36.4185 C   0  0  0  0  0  0  0  0  0  0  0  0
    4.4954  -14.6559  -28.1261 C   0  0  0  0  0  0  0  0  0  0  0  0
    5.1407   -9.4296  -30.2616 O   0  5  0  0  0  0  0  0  0  0  0  0
    4.9197   -8.7634  -32.3098 O   0  0  0  0  0  0  0  0  0  0  0  0
    5.8409  -13.9693  -27.8307 C   0  0  0  0  0  0  0  0  0  0  0  0
    5.8823  -12.7511  -27.8627 O   0  5  0  0  0  0  0  0  0  0  0  0
    6.7718  -14.6980  -27.5374 O   0  0  0  0  0  0  0  0  0  0  0  0
   -0.0528  -13.4952  -34.8617 H   0  0  0  0  0  0  0  0  0  0  0  0
    2.0077  -15.2729  -29.7905 H   0  0  0  0  0  0  0  0  0  0  0  0
    3.5864  -11.3742  -29.6401 H   0  0  0  0  0  0  0  0  0  0  0  0
    3.0373  -12.5917  -35.4840 H   0  0  0  0  0  0  0  0  0  0  0  0
   -0.0261  -10.2288  -33.7989 H   0  0  0  0  0  0  0  0  0  0  0  0
    2.6703   -9.4920  -30.1473 H   0  0  0  0  0  0  0  0  0  0  0  0
    2.4762   -8.5123  -31.6024 H   0  0  0  0  0  0  0  0  0  0  0  0
    3.4598  -10.8634  -37.1349 H   0  0  0  0  0  0  0  0  0  0  0  0
    0.4012   -8.5033  -35.4535 H   0  0  0  0  0  0  0  0  0  0  0  0
    2.1493   -8.8104  -37.1197 H   0  0  0  0  0  0  0  0  0  0  0  0
    4.5955  -15.2454  -29.0134 H   0  0  0  0  0  0  0  0  0  0  0  0
    4.2428  -15.2656  -27.2838 H   0  0  0  0  0  0  0  0  0  0  0  0
  1  2  1  0  0  0  0
  1  3  2  0  0  0  0
  1  4  1  0  0  0  0
  2  5  1  0  0  0  0
  2  6  2  0  0  0  0
  3  7  1  0  0  0  0
  3  8  1  0  0  0  0
  4  9  2  0  0  0  0
  4 10  1  0  0  0  0
  5 11  2  0  0  0  0
  5 12  1  0  0  0  0
  6 13  1  0  0  0  0
  6 28  1  0  0  0  0
  7 14  2  0  0  0  0
  7 29  1  0  0  0  0
  8 13  1  0  0  0  0
  9 14  1  0  0  0  0
  9 30  1  0  0  0  0
 10 15  1  0  0  0  0
 11 16  1  0  0  0  0
 11 31  1  0  0  0  0
 12 17  2  0  0  0  0
 12 32  1  0  0  0  0
 13 18  2  0  0  0  0
 14 19  1  0  0  0  0
 15 20  1  0  0  0  0
 15 33  1  0  0  0  0
 15 34  1  0  0  0  0
 16 21  2  0  0  0  0
 16 35  1  0  0  0  0
 17 21  1  0  0  0  0
 17 36  1  0  0  0  0
 19 22  1  0  0  0  0
 20 23  1  0  0  0  0
 20 24  2  0  0  0  0
 21 37  1  0  0  0  0
 22 25  1  0  0  0  0
 22 38  1  0  0  0  0
 22 39  1  0  0  0  0
 25 26  1  0  0  0  0
 25 27  2  0  0  0  0
M  CHG  2  23  -1  26  -1
M  END
$$$$
