HTS1710-04723694-01
 OpenBabel03232612353D

 39 40  0  0  0  0  0  0  0  0999 V2000
    5.9682   -8.2549  -31.1771 O   0  5  0  0  0  0  0  0  0  0  0  0
    4.7842   -8.5347  -31.2327 C   0  0  0  0  0  0  0  0  0  0  0  0
    4.0039   -8.1272  -32.0770 O   0  0  0  0  0  0  0  0  0  0  0  0
    4.2579   -9.4953  -30.1515 C   0  0  0  0  0  0  0  0  0  0  0  0
    4.2421  -10.8726  -30.5907 O   0  0  0  0  0  0  0  0  0  0  0  0
    3.6270  -11.9078  -29.9038 C   0  0  0  0  0  0  0  0  0  0  0  0
    3.1432  -11.7288  -28.5883 C   0  0  0  0  0  0  0  0  0  0  0  0
    2.5112  -12.7834  -27.9160 C   0  0  0  0  0  0  0  0  0  0  0  0
    2.3723  -14.0263  -28.5441 C   0  0  0  0  0  0  0  0  0  0  0  0
    2.8482  -14.2126  -29.8498 C   0  0  0  0  0  0  0  0  0  0  0  0
    3.4520  -13.1528  -30.5605 C   0  0  0  0  0  0  0  0  0  0  0  0
    3.9913  -13.3499  -31.9446 C   0  0  0  0  0  0  0  0  0  0  0  0
    3.5587  -12.9066  -33.1649 C   0  0  0  0  0  0  0  0  0  0  0  0
    4.4503  -13.2668  -34.2315 C   0  0  0  0  0  0  0  0  0  0  0  0
    5.1482  -13.5331  -35.1158 N   0  0  0  0  0  0  0  0  0  0  0  0
    2.3692  -12.0544  -33.5233 C   0  0  0  0  0  0  0  0  0  0  0  0
    1.2270  -12.4636  -33.4164 O   0  0  0  0  0  0  0  0  0  0  0  0
    2.6054  -10.7582  -33.9854 N   0  0  0  0  0  0  0  0  0  0  0  0
    1.6566   -9.8090  -34.3694 C   0  0  0  0  0  0  0  0  0  0  0  0
    0.7497   -9.2209  -33.4561 C   0  0  0  0  0  0  0  0  0  0  0  0
   -0.1908   -8.2747  -33.8892 C   0  0  0  0  0  0  0  0  0  0  0  0
   -0.2325   -7.8897  -35.2343 C   0  0  0  0  0  0  0  0  0  0  0  0
    0.6805   -8.4385  -36.1441 C   0  0  0  0  0  0  0  0  0  0  0  0
    1.6370   -9.3843  -35.7233 C   0  0  0  0  0  0  0  0  0  0  0  0
    2.5989   -9.9339  -36.7476 C   0  0  0  0  0  0  0  0  0  0  0  0
    2.5764  -11.1336  -36.9611 O   0  5  0  0  0  0  0  0  0  0  0  0
    3.3475   -9.1358  -37.2838 O   0  0  0  0  0  0  0  0  0  0  0  0
    3.2604   -9.2067  -29.8930 H   0  0  0  0  0  0  0  0  0  0  0  0
    4.9179   -9.4307  -29.3118 H   0  0  0  0  0  0  0  0  0  0  0  0
    3.2561  -10.8162  -28.1200 H   0  0  0  0  0  0  0  0  0  0  0  0
    2.1489  -12.6439  -26.9599 H   0  0  0  0  0  0  0  0  0  0  0  0
    1.9186  -14.8075  -28.0451 H   0  0  0  0  0  0  0  0  0  0  0  0
    2.7557  -15.1377  -30.2977 H   0  0  0  0  0  0  0  0  0  0  0  0
    4.8465  -13.9262  -31.9851 H   0  0  0  0  0  0  0  0  0  0  0  0
    3.5484  -10.4823  -34.0475 H   0  0  0  0  0  0  0  0  0  0  0  0
    0.7806   -9.4910  -32.4605 H   0  0  0  0  0  0  0  0  0  0  0  0
   -0.8535   -7.8615  -33.2147 H   0  0  0  0  0  0  0  0  0  0  0  0
   -0.9338   -7.2037  -35.5548 H   0  0  0  0  0  0  0  0  0  0  0  0
    0.6525   -8.1468  -37.1336 H   0  0  0  0  0  0  0  0  0  0  0  0
  1  2  1  0  0  0  0
  2  3  2  0  0  0  0
  2  4  1  0  0  0  0
  4  5  1  0  0  0  0
  4 28  1  0  0  0  0
  4 29  1  0  0  0  0
  5  6  1  0  0  0  0
  6  7  2  0  0  0  0
  6 11  1  0  0  0  0
  7  8  1  0  0  0  0
  7 30  1  0  0  0  0
  8  9  2  0  0  0  0
  8 31  1  0  0  0  0
  9 10  1  0  0  0  0
  9 32  1  0  0  0  0
 10 11  2  0  0  0  0
 10 33  1  0  0  0  0
 11 12  1  0  0  0  0
 12 13  2  0  0  0  0
 12 34  1  0  0  0  0
 13 14  1  0  0  0  0
 13 16  1  0  0  0  0
 14 15  3  0  0  0  0
 16 17  2  0  0  0  0
 16 18  1  0  0  0  0
 18 19  1  0  0  0  0
 18 35  1  0  0  0  0
 19 20  2  0  0  0  0
 19 24  1  0  0  0  0
 20 21  1  0  0  0  0
 20 36  1  0  0  0  0
 21 22  2  0  0  0  0
 21 37  1  0  0  0  0
 22 23  1  0  0  0  0
 22 38  1  0  0  0  0
 23 24  2  0  0  0  0
 23 39  1  0  0  0  0
 24 25  1  0  0  0  0
 25 26  1  0  0  0  0
 25 27  2  0  0  0  0
M  CHG  2   1  -1  26  -1
M  END
$$$$
