HTS1710-03240517-01
 OpenBabel03232612363D

 34 34  0  0  0  0  0  0  0  0999 V2000
    2.0723  -12.6968  -32.0561 S   0  0  0  0  0  0  0  0  0  0  0  0
    2.7877  -12.4261  -29.3160 C   0  0  0  0  0  0  0  0  0  0  0  0
    2.2335  -13.2473  -30.3328 C   0  0  0  0  0  0  0  0  0  0  0  0
    5.1050   -9.1074  -31.9406 C   0  0  0  0  0  0  0  0  0  0  0  0
    3.2105  -11.0053  -29.5564 C   0  0  0  0  0  0  0  0  0  0  0  0
    4.6351   -9.5136  -30.7931 N   0  0  0  0  0  0  0  0  0  0  0  0
    5.5807   -7.6723  -32.1579 C   0  0  0  0  0  0  0  0  0  0  0  0
    4.1893  -10.7667  -30.5079 N   0  0  0  0  0  0  0  0  0  0  0  0
    1.5613  -11.3229  -32.1003 O   0  0  0  0  0  0  0  0  0  0  0  0
    3.2476  -13.1330  -32.8160 O   0  0  0  0  0  0  0  0  0  0  0  0
    4.7443   -9.1568  -35.4530 C   0  0  0  0  0  0  0  0  0  0  0  0
    0.8062  -13.6368  -32.6791 N   0  0  0  0  0  0  0  0  0  0  0  0
    5.1897  -10.0828  -33.1183 C   0  0  0  0  0  0  0  0  0  0  0  0
    2.7478  -10.0797  -28.9084 O   0  0  0  0  0  0  0  0  0  0  0  0
    6.6642   -7.5348  -32.6992 O   0  5  0  0  0  0  0  0  0  0  0  0
    5.7508   -8.4840  -35.3098 O   0  5  0  0  0  0  0  0  0  0  0  0
    4.1213   -9.7678  -34.1911 C   0  0  0  0  0  0  0  0  0  0  0  0
    4.8900   -6.7316  -31.7993 O   0  0  0  0  0  0  0  0  0  0  0  0
    2.9515  -12.9485  -28.0173 C   0  0  0  0  0  0  0  0  0  0  0  0
    4.2039   -9.4036  -36.5173 O   0  0  0  0  0  0  0  0  0  0  0  0
    1.8310  -14.5604  -30.0134 C   0  0  0  0  0  0  0  0  0  0  0  0
    2.5541  -14.2588  -27.7168 C   0  0  0  0  0  0  0  0  0  0  0  0
    1.9876  -15.0621  -28.7141 C   0  0  0  0  0  0  0  0  0  0  0  0
    4.5755  -11.5306  -30.9943 H   0  0  0  0  0  0  0  0  0  0  0  0
    0.7468  -14.5133  -32.1608 H   0  0  0  0  0  0  0  0  0  0  0  0
    0.9829  -13.8354  -33.6639 H   0  0  0  0  0  0  0  0  0  0  0  0
    5.0372  -11.0784  -32.7572 H   0  0  0  0  0  0  0  0  0  0  0  0
    6.1561   -9.9850  -33.5672 H   0  0  0  0  0  0  0  0  0  0  0  0
    3.6194  -10.6746  -34.4569 H   0  0  0  0  0  0  0  0  0  0  0  0
    3.4367   -9.0558  -33.7798 H   0  0  0  0  0  0  0  0  0  0  0  0
    3.3686  -12.3599  -27.2793 H   0  0  0  0  0  0  0  0  0  0  0  0
    1.4164  -15.1589  -30.7447 H   0  0  0  0  0  0  0  0  0  0  0  0
    2.6788  -14.6307  -26.7623 H   0  0  0  0  0  0  0  0  0  0  0  0
    1.6854  -16.0237  -28.4924 H   0  0  0  0  0  0  0  0  0  0  0  0
  1  3  1  0  0  0  0
  1  9  2  0  0  0  0
  1 10  2  0  0  0  0
  1 12  1  0  0  0  0
  2  3  2  0  0  0  0
  2  5  1  0  0  0  0
  2 19  1  0  0  0  0
  3 21  1  0  0  0  0
  4  6  2  0  0  0  0
  4  7  1  0  0  0  0
  4 13  1  0  0  0  0
  5  8  1  0  0  0  0
  5 14  2  0  0  0  0
  6  8  1  0  0  0  0
  7 15  1  0  0  0  0
  7 18  2  0  0  0  0
  8 24  1  0  0  0  0
 11 16  1  0  0  0  0
 11 17  1  0  0  0  0
 11 20  2  0  0  0  0
 12 25  1  0  0  0  0
 12 26  1  0  0  0  0
 13 17  1  0  0  0  0
 13 27  1  0  0  0  0
 13 28  1  0  0  0  0
 17 29  1  0  0  0  0
 17 30  1  0  0  0  0
 19 22  2  0  0  0  0
 19 31  1  0  0  0  0
 21 23  2  0  0  0  0
 21 32  1  0  0  0  0
 22 23  1  0  0  0  0
 22 33  1  0  0  0  0
 23 34  1  0  0  0  0
M  CHG  2  15  -1  16  -1
M  END
$$$$
