HTS1710-01264767-01
 OpenBabel03232612353D

 47 49  0  0  1  0  0  0  0  0999 V2000
    1.4847   -8.5342  -32.7121 C   0  0  0  0  0  0  0  0  0  0  0  0
    3.7080   -7.6992  -31.7795 C   0  0  0  0  0  0  0  0  0  0  0  0
    2.4797   -8.5787  -31.5644 C   0  0  2  0  0  0  0  0  0  0  0  0
    0.1747   -8.1369  -32.4970 C   0  0  0  0  0  0  0  0  0  0  0  0
    4.8784   -8.1637  -32.3758 C   0  0  0  0  0  0  0  0  0  0  0  0
    6.0506   -7.2911  -32.5535 C   0  0  0  0  0  0  0  0  0  0  0  0
   -0.7999   -8.0623  -33.5960 C   0  0  0  0  0  0  0  0  0  0  0  0
    3.5644   -6.4062  -31.3106 O   0  0  0  0  0  0  0  0  0  0  0  0
    1.9758   -8.8952  -33.9541 O   0  0  0  0  0  0  0  0  0  0  0  0
    5.8362   -5.9409  -32.0412 C   0  0  0  0  0  0  0  0  0  0  0  0
   -0.2223   -8.4334  -34.8873 C   0  0  0  0  0  0  0  0  0  0  0  0
    2.8325  -10.0147  -31.1547 C   0  0  0  0  0  0  0  0  0  0  0  0
    1.0959   -8.8157  -35.0122 C   0  0  0  0  0  0  0  0  0  0  0  0
    4.6465   -5.5657  -31.4568 C   0  0  0  0  0  0  0  0  0  0  0  0
    3.6918  -10.2863  -30.0690 C   0  0  0  0  0  0  0  0  0  0  0  0
    7.0988   -7.6433  -33.0692 O   0  0  0  0  0  0  0  0  0  0  0  0
   -1.9644   -7.7257  -33.4606 O   0  0  0  0  0  0  0  0  0  0  0  0
    5.0807   -9.4252  -32.8213 O   0  0  0  0  0  0  0  0  0  0  0  0
   -0.3276   -7.7796  -31.2923 O   0  0  0  0  0  0  0  0  0  0  0  0
    4.0078  -11.6181  -29.7211 C   0  0  0  0  0  0  0  0  0  0  0  0
    2.3005  -11.0917  -31.8911 C   0  0  0  0  0  0  0  0  0  0  0  0
    1.6465   -9.1779  -36.3660 C   0  0  0  0  0  0  0  0  0  0  0  0
    4.4862   -4.1657  -30.9272 C   0  0  0  0  0  0  0  0  0  0  0  0
    4.8454  -11.9241  -28.6657 O   0  0  0  0  0  0  0  0  0  0  0  0
    1.2480   -8.2279  -37.3488 O   0  0  0  0  0  0  0  0  0  0  0  0
    3.5479   -4.1295  -29.8567 O   0  0  0  0  0  0  0  0  0  0  0  0
    2.6123  -12.4143  -31.5467 C   0  0  0  0  0  0  0  0  0  0  0  0
    3.4629  -12.6774  -30.4636 C   0  0  0  0  0  0  0  0  0  0  0  0
    4.5663  -12.9758  -27.7235 C   0  0  0  0  0  0  0  0  0  0  0  0
    1.9750   -8.1402  -30.7290 H   0  0  0  0  0  0  0  0  0  0  0  0
    6.5972   -5.2482  -32.1192 H   0  0  0  0  0  0  0  0  0  0  0  0
   -0.8189   -8.4085  -35.7291 H   0  0  0  0  0  0  0  0  0  0  0  0
    4.0923   -9.5061  -29.5252 H   0  0  0  0  0  0  0  0  0  0  0  0
    4.4061  -10.0689  -32.7281 H   0  0  0  0  0  0  0  0  0  0  0  0
   -1.2073   -7.4638  -31.2265 H   0  0  0  0  0  0  0  0  0  0  0  0
    1.6757  -10.9052  -32.6911 H   0  0  0  0  0  0  0  0  0  0  0  0
    1.2817  -10.1443  -36.6451 H   0  0  0  0  0  0  0  0  0  0  0  0
    2.7150   -9.1829  -36.3098 H   0  0  0  0  0  0  0  0  0  0  0  0
    4.1416   -3.5304  -31.7161 H   0  0  0  0  0  0  0  0  0  0  0  0
    5.4337   -3.8289  -30.5615 H   0  0  0  0  0  0  0  0  0  0  0  0
    0.2801   -8.2133  -37.4106 H   0  0  0  0  0  0  0  0  0  0  0  0
    3.4443   -3.2156  -29.5483 H   0  0  0  0  0  0  0  0  0  0  0  0
    2.2150  -13.1957  -32.0914 H   0  0  0  0  0  0  0  0  0  0  0  0
    3.6890  -13.6523  -30.2116 H   0  0  0  0  0  0  0  0  0  0  0  0
    5.3530  -13.0245  -26.9999 H   0  0  0  0  0  0  0  0  0  0  0  0
    4.4994  -13.9098  -28.2411 H   0  0  0  0  0  0  0  0  0  0  0  0
    3.6388  -12.7748  -27.2290 H   0  0  0  0  0  0  0  0  0  0  0  0
  1  3  1  0  0  0  0
  1  4  2  0  0  0  0
  1  9  1  0  0  0  0
  2  3  1  0  0  0  0
  2  5  2  0  0  0  0
  2  8  1  0  0  0  0
  3 12  1  0  0  0  0
  3 30  1  1  0  0  0
  4  7  1  0  0  0  0
  4 19  1  0  0  0  0
  5  6  1  0  0  0  0
  5 18  1  0  0  0  0
  6 16  2  0  0  0  0
  6 10  1  0  0  0  0
  7 17  2  0  0  0  0
  7 11  1  0  0  0  0
  8 14  1  0  0  0  0
  9 13  1  0  0  0  0
 10 14  2  0  0  0  0
 10 31  1  0  0  0  0
 11 13  2  0  0  0  0
 11 32  1  0  0  0  0
 12 15  2  0  0  0  0
 12 21  1  0  0  0  0
 13 22  1  0  0  0  0
 14 23  1  0  0  0  0
 15 20  1  0  0  0  0
 15 33  1  0  0  0  0
 18 34  1  0  0  0  0
 19 35  1  0  0  0  0
 20 24  1  0  0  0  0
 20 28  2  0  0  0  0
 21 27  2  0  0  0  0
 21 36  1  0  0  0  0
 22 25  1  0  0  0  0
 22 37  1  0  0  0  0
 22 38  1  0  0  0  0
 23 26  1  0  0  0  0
 23 39  1  0  0  0  0
 23 40  1  0  0  0  0
 24 29  1  0  0  0  0
 25 41  1  0  0  0  0
 26 42  1  0  0  0  0
 27 28  1  0  0  0  0
 27 43  1  0  0  0  0
 28 44  1  0  0  0  0
 29 45  1  0  0  0  0
 29 46  1  0  0  0  0
 29 47  1  0  0  0  0
M  END
$$$$
