HTS1710-02165697-01
 OpenBabel03232612343D

 39 40  0  0  0  0  0  0  0  0999 V2000
    2.6770  -11.7962  -35.2462 N   0  0  0  0  0  0  0  0  0  0  0  0
    1.4107  -11.3899  -34.8355 C   0  0  0  0  0  0  0  0  0  0  0  0
    3.3108  -12.6900  -34.3977 C   0  0  0  0  0  0  0  0  0  0  0  0
    2.5176  -13.0266  -33.2575 C   0  0  0  0  0  0  0  0  0  0  0  0
    0.9755  -12.1993  -33.2754 S   0  0  0  0  0  0  0  0  0  0  0  0
    3.6717   -9.0146  -29.8402 S   0  0  0  0  0  0  0  0  0  0  0  0
    2.6173  -14.3470  -29.8039 C   0  0  0  0  0  0  0  0  0  0  0  0
    3.9368  -14.1584  -29.3820 N   0  0  0  0  0  0  0  0  0  0  0  0
    2.9122  -13.8810  -32.2561 C   0  0  0  0  0  0  0  0  0  0  0  0
    2.1381  -14.2395  -31.0651 C   0  0  0  0  0  0  0  0  0  0  0  0
    3.3051  -11.3006  -36.4928 C   0  0  0  0  0  0  0  0  0  0  0  0
    1.6251  -14.7789  -28.4445 S   0  0  0  0  0  0  0  0  0  0  0  0
    3.6865   -9.8123  -36.4012 C   0  0  0  0  0  0  0  0  0  0  0  0
    4.8536  -13.2984  -34.6761 S   0  0  0  0  0  0  0  0  0  0  0  0
    5.0442   -8.8004  -30.2657 O   0  0  0  0  0  1  0  0  0  0  0  0
    0.6939  -10.6073  -35.4357 O   0  0  0  0  0  0  0  0  0  0  0  0
    2.6686   -8.4038  -30.6968 O   0  0  0  0  0  0  0  0  0  0  0  0
    3.4453   -8.8426  -28.4156 O   0  0  0  0  0  0  0  0  0  0  0  0
    3.9541   -9.3920  -35.2898 O   0  5  0  0  0  0  0  0  0  0  0  0
    3.6974   -9.1506  -37.4255 O   0  0  0  0  0  0  0  0  0  0  0  0
    3.4347  -10.7940  -30.1036 C   0  0  0  0  0  0  0  0  0  0  0  0
    4.2395  -11.6595  -29.1006 C   0  0  0  0  0  0  0  0  0  0  0  0
    4.7756  -12.9777  -29.7187 C   0  0  0  0  0  0  0  0  0  0  0  0
    2.9967  -14.6814  -27.2305 C   0  0  0  0  0  0  0  0  0  0  0  0
    4.2699  -14.7719  -28.0851 C   0  0  0  0  0  0  0  0  0  0  0  0
    3.8449  -14.3122  -32.3526 H   0  0  0  0  0  0  0  0  0  0  0  0
    1.1325  -14.4277  -31.2006 H   0  0  0  0  0  0  0  0  0  0  0  0
    2.6159  -11.4304  -37.3009 H   0  0  0  0  0  0  0  0  0  0  0  0
    4.2031  -11.8600  -36.6525 H   0  0  0  0  0  0  0  0  0  0  0  0
    3.7503  -11.0381  -31.0964 H   0  0  0  0  0  0  0  0  0  0  0  0
    2.3969  -11.0075  -29.9547 H   0  0  0  0  0  0  0  0  0  0  0  0
    3.6024  -11.9054  -28.2769 H   0  0  0  0  0  0  0  0  0  0  0  0
    5.0887  -11.0842  -28.7962 H   0  0  0  0  0  0  0  0  0  0  0  0
    5.7667  -13.1477  -29.3531 H   0  0  0  0  0  0  0  0  0  0  0  0
    4.7572  -12.8639  -30.7824 H   0  0  0  0  0  0  0  0  0  0  0  0
    2.9473  -15.4949  -26.5373 H   0  0  0  0  0  0  0  0  0  0  0  0
    2.9608  -13.7863  -26.6454 H   0  0  0  0  0  0  0  0  0  0  0  0
    5.0701  -14.2381  -27.6165 H   0  0  0  0  0  0  0  0  0  0  0  0
    4.5896  -15.7861  -28.2034 H   0  0  0  0  0  0  0  0  0  0  0  0
  1  2  1  0  0  0  0
  1  3  1  0  0  0  0
  1 11  1  0  0  0  0
  2  5  1  0  0  0  0
  2 16  2  0  0  0  0
  3  4  1  0  0  0  0
  3 14  2  0  0  0  0
  4  9  2  0  0  0  0
  4  5  1  0  0  0  0
  6 21  1  0  0  0  0
  6 15  1  0  0  0  0
  6 17  2  0  0  0  0
  6 18  2  0  0  0  0
  7 10  2  0  0  0  0
  7  8  1  0  0  0  0
  7 12  1  0  0  0  0
  8 23  1  0  0  0  0
  8 25  1  0  0  0  0
  9 10  1  0  0  0  0
  9 26  1  0  0  0  0
 10 27  1  0  0  0  0
 11 13  1  0  0  0  0
 11 28  1  0  0  0  0
 11 29  1  0  0  0  0
 12 24  1  0  0  0  0
 13 19  1  0  0  0  0
 13 20  2  0  0  0  0
 21 22  1  0  0  0  0
 21 30  1  0  0  0  0
 21 31  1  0  0  0  0
 22 23  1  0  0  0  0
 22 32  1  0  0  0  0
 22 33  1  0  0  0  0
 23 34  1  0  0  0  0
 23 35  1  0  0  0  0
 24 25  1  0  0  0  0
 24 36  1  0  0  0  0
 24 37  1  0  0  0  0
 25 38  1  0  0  0  0
 25 39  1  0  0  0  0
M  CHG  1  19  -1
M  END
$$$$
