HTS1710-01246853-01
 OpenBabel03232612353D

 38 39  0  0  1  0  0  0  0  0999 V2000
    3.1377  -11.4288  -32.9132 C   0  0  0  0  0  0  0  0  0  0  0  0
    3.3583  -11.6448  -29.3738 C   0  0  0  0  0  0  0  0  0  0  0  0
    2.7441  -12.1043  -30.5668 C   0  0  0  0  0  0  0  0  0  0  0  0
    2.6108  -11.2288  -31.6437 N   0  0  0  0  0  0  0  0  0  0  0  0
    3.9257  -10.2531  -29.2505 C   0  0  0  0  0  0  0  0  0  0  0  0
    2.9597  -10.5060  -33.9335 N   0  0  0  0  0  0  0  0  0  0  0  0
    3.5030  -10.6845  -35.2893 C   0  0  2  0  0  0  0  0  0  0  0  0
    4.5300   -9.5837  -35.6185 C   0  0  0  0  0  0  0  0  0  0  0  0
    3.7252  -12.4766  -33.1267 O   0  0  0  0  0  0  0  0  0  0  0  0
    2.3477  -10.7128  -36.3277 C   0  0  0  0  0  0  0  0  0  0  0  0
    3.4303   -9.5107  -28.4190 O   0  5  0  0  0  0  0  0  0  0  0  0
    5.2799   -9.2098  -34.7304 O   0  5  0  0  0  0  0  0  0  0  0  0
    4.8351   -9.9593  -30.0060 O   0  0  0  0  0  0  0  0  0  0  0  0
    4.5416   -9.1723  -36.7655 O   0  0  0  0  0  0  0  0  0  0  0  0
    1.3222   -9.6006  -36.1191 C   0  0  0  0  0  0  0  0  0  0  0  0
    3.4553  -12.5089  -28.2643 C   0  0  0  0  0  0  0  0  0  0  0  0
    2.2056  -13.4111  -30.6032 C   0  0  0  0  0  0  0  0  0  0  0  0
    0.4025   -9.6719  -35.0552 C   0  0  0  0  0  0  0  0  0  0  0  0
    1.2879   -8.4949  -36.9897 C   0  0  0  0  0  0  0  0  0  0  0  0
    2.9440  -13.8130  -28.3257 C   0  0  0  0  0  0  0  0  0  0  0  0
    2.3140  -14.2608  -29.4929 C   0  0  0  0  0  0  0  0  0  0  0  0
    0.3470   -7.4705  -36.7966 C   0  0  0  0  0  0  0  0  0  0  0  0
   -0.5377   -8.6462  -34.8622 C   0  0  0  0  0  0  0  0  0  0  0  0
   -0.5661   -7.5456  -35.7332 C   0  0  0  0  0  0  0  0  0  0  0  0
    2.1011  -10.4003  -31.4918 H   0  0  0  0  0  0  0  0  0  0  0  0
    2.4435   -9.6900  -33.7406 H   0  0  0  0  0  0  0  0  0  0  0  0
    4.0153  -11.6227  -35.3346 H   0  0  0  0  0  0  0  0  0  0  0  0
    1.8467  -11.6553  -36.2530 H   0  0  0  0  0  0  0  0  0  0  0  0
    2.7848  -10.5646  -37.2930 H   0  0  0  0  0  0  0  0  0  0  0  0
    3.9075  -12.1783  -27.3976 H   0  0  0  0  0  0  0  0  0  0  0  0
    1.7279  -13.7431  -31.4556 H   0  0  0  0  0  0  0  0  0  0  0  0
    0.4193  -10.4808  -34.4146 H   0  0  0  0  0  0  0  0  0  0  0  0
    1.9570   -8.4369  -37.7732 H   0  0  0  0  0  0  0  0  0  0  0  0
    3.0319  -14.4416  -27.5120 H   0  0  0  0  0  0  0  0  0  0  0  0
    1.9289  -15.2173  -29.5363 H   0  0  0  0  0  0  0  0  0  0  0  0
    0.3268   -6.6617  -37.4371 H   0  0  0  0  0  0  0  0  0  0  0  0
   -1.2081   -8.7019  -34.0796 H   0  0  0  0  0  0  0  0  0  0  0  0
   -1.2575   -6.7926  -35.5917 H   0  0  0  0  0  0  0  0  0  0  0  0
  1  4  1  0  0  0  0
  1  6  1  0  0  0  0
  1  9  2  0  0  0  0
  2  3  2  0  0  0  0
  2  5  1  0  0  0  0
  2 16  1  0  0  0  0
  3  4  1  0  0  0  0
  3 17  1  0  0  0  0
  4 25  1  0  0  0  0
  5 11  1  0  0  0  0
  5 13  2  0  0  0  0
  6  7  1  0  0  0  0
  6 26  1  0  0  0  0
  7  8  1  0  0  0  0
  7 10  1  0  0  0  0
  7 27  1  6  0  0  0
  8 12  1  0  0  0  0
  8 14  2  0  0  0  0
 10 15  1  0  0  0  0
 10 28  1  0  0  0  0
 10 29  1  0  0  0  0
 15 18  2  0  0  0  0
 15 19  1  0  0  0  0
 16 20  2  0  0  0  0
 16 30  1  0  0  0  0
 17 21  2  0  0  0  0
 17 31  1  0  0  0  0
 18 23  1  0  0  0  0
 18 32  1  0  0  0  0
 19 22  2  0  0  0  0
 19 33  1  0  0  0  0
 20 21  1  0  0  0  0
 20 34  1  0  0  0  0
 21 35  1  0  0  0  0
 22 24  1  0  0  0  0
 22 36  1  0  0  0  0
 23 24  2  0  0  0  0
 23 37  1  0  0  0  0
 24 38  1  0  0  0  0
M  CHG  2  11  -1  12  -1
M  END
$$$$
