HTS1710-00409985-01
 OpenBabel03232612353D

 41 42  0  0  1  0  0  0  0  0999 V2000
    2.0356  -12.2349  -31.5515 C   0  0  0  0  0  0  0  0  0  0  0  0
    2.1341  -13.3548  -30.6791 C   0  0  0  0  0  0  0  0  0  0  0  0
    1.3830  -12.3789  -32.8106 C   0  0  0  0  0  0  0  0  0  0  0  0
    2.5744  -10.9979  -31.1282 C   0  0  0  0  0  0  0  0  0  0  0  0
    2.7715  -13.2249  -29.4158 C   0  0  0  0  0  0  0  0  0  0  0  0
    1.5932  -14.5956  -31.0811 C   0  0  0  0  0  0  0  0  0  0  0  0
    1.1835  -11.0156  -34.0020 S   0  0  0  0  0  0  0  0  0  0  0  0
    0.8468  -13.6289  -33.1722 C   0  0  0  0  0  0  0  0  0  0  0  0
    3.2087  -10.8774  -29.8869 C   0  0  0  0  0  0  0  0  0  0  0  0
    3.3098  -11.9823  -29.0376 C   0  0  0  0  0  0  0  0  0  0  0  0
    2.8554  -14.2977  -28.5249 N   0  0  0  0  0  0  0  0  0  0  0  0
    0.9522  -14.7273  -32.3158 C   0  0  0  0  0  0  0  0  0  0  0  0
    2.7613  -10.5067  -34.4095 N   0  0  0  0  0  0  0  0  0  0  0  0
    0.5806   -9.8577  -33.3338 O   0  0  0  0  0  0  0  0  0  0  0  0
    0.6512  -11.5558  -35.2571 O   0  0  0  0  0  0  0  0  0  0  0  0
    4.1450  -14.6713  -27.9205 C   0  0  0  0  0  0  0  0  0  0  0  0
    1.6799  -14.6699  -27.7209 C   0  0  0  0  0  0  0  0  0  0  0  0
    3.2643  -10.6482  -35.7958 C   0  0  2  0  0  0  0  0  0  0  0  0
    4.8188  -10.7288  -35.8393 C   0  0  0  0  0  0  0  0  0  0  0  0
    2.7249   -9.4766  -36.6346 C   0  0  0  0  0  0  0  0  0  0  0  0
    5.4888   -9.7036  -34.9156 C   0  0  0  0  0  0  0  0  0  0  0  0
    1.7053   -8.9365  -36.2409 O   0  5  0  0  0  0  0  0  0  0  0  0
    3.3631   -9.1453  -37.6205 O   0  0  0  0  0  0  0  0  0  0  0  0
    5.4756   -8.5371  -35.2700 O   0  5  0  0  0  0  0  0  0  0  0  0
    5.9739  -10.1219  -33.8772 O   0  0  0  0  0  0  0  0  0  0  0  0
    2.4988  -10.1727  -31.7432 H   0  0  0  0  0  0  0  0  0  0  0  0
    1.6720  -15.4135  -30.4567 H   0  0  0  0  0  0  0  0  0  0  0  0
    0.3698  -13.7353  -34.0811 H   0  0  0  0  0  0  0  0  0  0  0  0
    3.6034   -9.9689  -29.5975 H   0  0  0  0  0  0  0  0  0  0  0  0
    3.7831  -11.8855  -28.1257 H   0  0  0  0  0  0  0  0  0  0  0  0
    0.5558  -15.6381  -32.5956 H   0  0  0  0  0  0  0  0  0  0  0  0
    3.4005  -11.0311  -33.8122 H   0  0  0  0  0  0  0  0  0  0  0  0
    4.9426  -14.3665  -28.5652 H   0  0  0  0  0  0  0  0  0  0  0  0
    4.1814  -15.7320  -27.7850 H   0  0  0  0  0  0  0  0  0  0  0  0
    4.2481  -14.1868  -26.9721 H   0  0  0  0  0  0  0  0  0  0  0  0
    0.7891  -14.3643  -28.2289 H   0  0  0  0  0  0  0  0  0  0  0  0
    1.7313  -14.1853  -26.7683 H   0  0  0  0  0  0  0  0  0  0  0  0
    1.6647  -15.7307  -27.5812 H   0  0  0  0  0  0  0  0  0  0  0  0
    2.9117  -11.5694  -36.2105 H   0  0  0  0  0  0  0  0  0  0  0  0
    5.1432  -10.5493  -36.8430 H   0  0  0  0  0  0  0  0  0  0  0  0
    5.1024  -11.7036  -35.5012 H   0  0  0  0  0  0  0  0  0  0  0  0
  1  2  1  0  0  0  0
  1  3  2  0  0  0  0
  1  4  1  0  0  0  0
  2  5  1  0  0  0  0
  2  6  2  0  0  0  0
  3  7  1  0  0  0  0
  3  8  1  0  0  0  0
  4  9  2  0  0  0  0
  4 26  1  0  0  0  0
  5 10  2  0  0  0  0
  5 11  1  0  0  0  0
  6 12  1  0  0  0  0
  6 27  1  0  0  0  0
  7 13  1  0  0  0  0
  7 14  2  0  0  0  0
  7 15  2  0  0  0  0
  8 12  2  0  0  0  0
  8 28  1  0  0  0  0
  9 10  1  0  0  0  0
  9 29  1  0  0  0  0
 10 30  1  0  0  0  0
 11 16  1  0  0  0  0
 11 17  1  0  0  0  0
 12 31  1  0  0  0  0
 13 18  1  0  0  0  0
 13 32  1  0  0  0  0
 16 33  1  0  0  0  0
 16 34  1  0  0  0  0
 16 35  1  0  0  0  0
 17 36  1  0  0  0  0
 17 37  1  0  0  0  0
 17 38  1  0  0  0  0
 18 19  1  0  0  0  0
 18 20  1  0  0  0  0
 18 39  1  6  0  0  0
 19 21  1  0  0  0  0
 19 40  1  0  0  0  0
 19 41  1  0  0  0  0
 20 22  1  0  0  0  0
 20 23  2  0  0  0  0
 21 24  1  0  0  0  0
 21 25  2  0  0  0  0
M  CHG  2  22  -1  24  -1
M  END
$$$$
