HTS1710-01235920-01
 OpenBabel03232612353D

 38 39  0  0  1  0  0  0  0  0999 V2000
   -0.0040   -7.2620  -36.3330 C   0  0  0  0  0  0  0  0  0  0  0  0
   -1.8708   -5.8705  -35.3987 C   0  0  0  0  0  0  0  0  0  0  0  0
    0.0428   -6.4544  -37.4414 O   0  0  0  0  0  0  0  0  0  0  0  0
   -0.7706   -5.3798  -37.6346 C   0  0  0  0  0  0  0  0  0  0  0  0
   -0.9348   -7.0025  -35.3062 C   0  0  0  0  0  0  0  0  0  0  0  0
   -1.7417   -5.1186  -36.5527 C   0  0  0  0  0  0  0  0  0  0  0  0
    2.6791  -10.1592  -30.2496 C   0  0  0  0  0  0  0  0  0  0  0  0
    3.7056   -9.8096  -31.3727 C   0  0  2  0  0  0  0  0  0  0  0  0
    4.2958   -8.3888  -31.2283 C   0  0  0  0  0  0  0  0  0  0  0  0
    3.1162  -10.0316  -32.7051 N   0  0  0  0  0  0  0  0  0  0  0  0
    0.8880   -8.3441  -36.2424 C   0  0  0  0  0  0  0  0  0  0  0  0
    3.1617  -10.0422  -28.7872 C   0  0  0  0  0  0  0  0  0  0  0  0
    3.8478   -9.9319  -33.8806 C   0  0  0  0  0  0  0  0  0  0  0  0
   -0.9539   -7.8517  -34.1818 C   0  0  0  0  0  0  0  0  0  0  0  0
   -0.6978   -4.6859  -38.6330 O   0  0  0  0  0  0  0  0  0  0  0  0
    3.5912   -7.4345  -31.5118 O   0  5  0  0  0  0  0  0  0  0  0  0
    3.9455   -9.1561  -28.4891 O   0  5  0  0  0  0  0  0  0  0  0  0
    5.0343   -9.6491  -33.8479 O   0  0  0  0  0  0  0  0  0  0  0  0
    0.8576   -9.1884  -35.1131 C   0  0  0  0  0  0  0  0  0  0  0  0
    1.7076  -10.2673  -34.9742 O   0  0  0  0  0  0  0  0  0  0  0  0
    3.1263  -10.1846  -35.2037 C   0  0  0  0  0  0  0  0  0  0  0  0
   -0.0658   -8.9346  -34.0875 C   0  0  0  0  0  0  0  0  0  0  0  0
    5.4575   -8.3163  -30.8623 O   0  0  0  0  0  0  0  0  0  0  0  0
    2.7111  -10.8630  -28.0068 O   0  0  0  0  0  0  0  0  0  0  0  0
   -2.9145   -5.4795  -34.3783 C   0  0  0  0  0  0  0  0  0  0  0  0
   -2.3741   -4.3110  -36.6668 H   0  0  0  0  0  0  0  0  0  0  0  0
    2.3651  -11.1703  -30.4045 H   0  0  0  0  0  0  0  0  0  0  0  0
    1.9077   -9.4236  -30.3438 H   0  0  0  0  0  0  0  0  0  0  0  0
    4.5340  -10.4777  -31.2608 H   0  0  0  0  0  0  0  0  0  0  0  0
    2.1606  -10.2610  -32.7641 H   0  0  0  0  0  0  0  0  0  0  0  0
    1.5646   -8.5208  -37.0014 H   0  0  0  0  0  0  0  0  0  0  0  0
   -1.6276   -7.6756  -33.4201 H   0  0  0  0  0  0  0  0  0  0  0  0
    3.4723  -11.1041  -35.6277 H   0  0  0  0  0  0  0  0  0  0  0  0
    3.3299   -9.3792  -35.8781 H   0  0  0  0  0  0  0  0  0  0  0  0
   -0.0922   -9.5482  -33.2582 H   0  0  0  0  0  0  0  0  0  0  0  0
   -2.8800   -6.1606  -33.5538 H   0  0  0  0  0  0  0  0  0  0  0  0
   -3.8844   -5.5139  -34.8290 H   0  0  0  0  0  0  0  0  0  0  0  0
   -2.7183   -4.4871  -34.0296 H   0  0  0  0  0  0  0  0  0  0  0  0
  1  3  1  0  0  0  0
  1  5  2  0  0  0  0
  1 11  1  0  0  0  0
  2  5  1  0  0  0  0
  2  6  2  0  0  0  0
  2 25  1  0  0  0  0
  3  4  1  0  0  0  0
  4 15  2  0  0  0  0
  4  6  1  0  0  0  0
  5 14  1  0  0  0  0
  6 26  1  0  0  0  0
  7  8  1  0  0  0  0
  7 12  1  0  0  0  0
  7 27  1  0  0  0  0
  7 28  1  0  0  0  0
  8 10  1  0  0  0  0
  8  9  1  0  0  0  0
  8 29  1  1  0  0  0
  9 16  1  0  0  0  0
  9 23  2  0  0  0  0
 10 13  1  0  0  0  0
 10 30  1  0  0  0  0
 11 19  2  0  0  0  0
 11 31  1  0  0  0  0
 12 17  1  0  0  0  0
 12 24  2  0  0  0  0
 13 21  1  0  0  0  0
 13 18  2  0  0  0  0
 14 22  2  0  0  0  0
 14 32  1  0  0  0  0
 19 20  1  0  0  0  0
 19 22  1  0  0  0  0
 20 21  1  0  0  0  0
 21 33  1  0  0  0  0
 21 34  1  0  0  0  0
 22 35  1  0  0  0  0
 25 36  1  0  0  0  0
 25 37  1  0  0  0  0
 25 38  1  0  0  0  0
M  CHG  2  16  -1  17  -1
M  END
$$$$
