HTS1710-04395661-01
 OpenBabel03232612343D

 27 27  0  0  1  0  0  0  0  0999 V2000
    3.6762  -12.5798  -29.7382 N   0  0  0  0  0  0  0  0  0  0  0  0
    5.2009  -13.9112  -28.3502 C   0  0  0  0  0  0  0  0  0  0  0  0
    4.8344  -12.7238  -28.9676 C   0  0  0  0  0  0  0  0  0  0  0  0
    2.7730  -13.6320  -29.9163 C   0  0  0  0  0  0  0  0  0  0  0  0
    3.4525  -11.2538  -30.3899 C   0  0  1  0  0  0  0  0  0  0  0  0
    4.3248  -15.0455  -28.5214 C   0  0  0  0  0  0  0  0  0  0  0  0
    6.4454  -14.0123  -27.5439 C   0  0  0  0  0  0  0  0  0  0  0  0
    3.1797  -14.8858  -29.2655 C   0  0  0  0  0  0  0  0  0  0  0  0
    3.7733  -10.0868  -29.4220 C   0  0  0  0  0  0  0  0  0  0  0  0
    4.1546  -11.1875  -31.7797 C   0  0  0  0  0  0  0  0  0  0  0  0
    4.7080   -9.2505  -33.3782 C   0  0  0  0  0  0  0  0  0  0  0  0
    1.7254  -13.5382  -30.5349 O   0  0  0  0  0  0  0  0  0  0  0  0
    6.6410  -15.0456  -26.9262 O   0  5  0  0  0  0  0  0  0  0  0  0
    3.0046   -9.8665  -28.4998 O   0  5  0  0  0  0  0  0  0  0  0  0
    5.5381   -8.7393  -32.6460 O   0  5  0  0  0  0  0  0  0  0  0  0
    3.5998  -10.0798  -32.7148 C   0  0  0  0  0  0  0  0  0  0  0  0
    7.2035  -13.0583  -27.5413 O   0  0  0  0  0  0  0  0  0  0  0  0
    4.7950   -9.4593  -29.6435 O   0  0  0  0  0  0  0  0  0  0  0  0
    4.6948   -9.1743  -34.5944 O   0  0  0  0  0  0  0  0  0  0  0  0
    5.4493  -11.9031  -28.8520 H   0  0  0  0  0  0  0  0  0  0  0  0
    2.4116  -11.1355  -30.6077 H   0  0  0  0  0  0  0  0  0  0  0  0
    4.5530  -15.9569  -28.0945 H   0  0  0  0  0  0  0  0  0  0  0  0
    2.5614  -15.7048  -29.3750 H   0  0  0  0  0  0  0  0  0  0  0  0
    4.0288  -12.1323  -32.2658 H   0  0  0  0  0  0  0  0  0  0  0  0
    5.1823  -10.9521  -31.5966 H   0  0  0  0  0  0  0  0  0  0  0  0
    3.0133  -10.5418  -33.4813 H   0  0  0  0  0  0  0  0  0  0  0  0
    3.0155   -9.4144  -32.1142 H   0  0  0  0  0  0  0  0  0  0  0  0
  1  3  1  0  0  0  0
  1  4  1  0  0  0  0
  1  5  1  0  0  0  0
  2  3  2  0  0  0  0
  2  7  1  0  0  0  0
  2  6  1  0  0  0  0
  3 20  1  0  0  0  0
  4  8  1  0  0  0  0
  4 12  2  0  0  0  0
  5  9  1  0  0  0  0
  5 10  1  0  0  0  0
  5 21  1  6  0  0  0
  6  8  2  0  0  0  0
  6 22  1  0  0  0  0
  7 13  1  0  0  0  0
  7 17  2  0  0  0  0
  8 23  1  0  0  0  0
  9 14  1  0  0  0  0
  9 18  2  0  0  0  0
 10 16  1  0  0  0  0
 10 24  1  0  0  0  0
 10 25  1  0  0  0  0
 11 16  1  0  0  0  0
 11 15  1  0  0  0  0
 11 19  2  0  0  0  0
 16 26  1  0  0  0  0
 16 27  1  0  0  0  0
M  CHG  3  13  -1  14  -1  15  -1
M  END
$$$$
