HTS1710-00571780-01
 OpenBabel03232612353D

 47 49  0  0  1  0  0  0  0  0999 V2000
    3.4267  -12.3755  -34.4696 C   0  0  1  0  0  0  0  0  0  0  0  0
    4.7707  -11.9919  -33.8025 C   0  0  1  0  0  0  0  0  0  0  0  0
    2.3849  -12.1854  -33.3635 C   0  0  1  0  0  0  0  0  0  0  0  0
    3.0538  -11.4548  -35.5141 O   0  0  0  0  0  0  0  0  0  0  0  0
    5.1789  -10.5671  -33.9025 N   0  0  0  0  0  0  0  0  0  0  0  0
    4.5468  -12.3587  -32.4272 O   0  0  0  0  0  0  0  0  0  0  0  0
    3.1880  -12.0396  -32.0494 C   0  0  2  0  0  0  0  0  0  0  0  0
    1.7755  -10.9320  -33.6959 O   0  0  0  0  0  0  0  0  0  0  0  0
    1.8482  -10.7797  -35.1179 C   0  0  0  0  0  0  0  0  0  0  0  0
    5.3301   -9.6759  -32.8401 C   0  0  0  0  0  0  0  0  0  0  0  0
    5.4234   -9.8296  -35.0695 C   0  0  0  0  0  0  0  0  0  0  0  0
    2.7631  -13.0357  -30.9425 C   0  0  0  0  0  0  0  0  0  0  0  0
    1.9641   -9.2792  -35.4590 C   0  0  0  0  0  0  0  0  0  0  0  0
    0.6295  -11.4790  -35.7737 C   0  0  0  0  0  0  0  0  0  0  0  0
    5.6860   -8.4865  -33.4191 C   0  0  0  0  0  0  0  0  0  0  0  0
    5.1484   -9.9523  -31.5035 N   0  0  0  0  0  0  0  0  0  0  0  0
    5.7378   -8.5861  -34.7696 N   0  0  0  0  0  0  0  0  0  0  0  0
    2.1658  -12.3640  -29.8121 O   0  0  0  0  0  0  0  0  0  0  0  0
    5.9825   -7.2309  -32.6861 C   0  0  0  0  0  0  0  0  0  0  0  0
    3.0257  -11.4815  -28.7564 P   0  0  0  0  0  0  0  0  0  0  0  0
    6.3079   -6.1863  -33.5139 O   0  0  0  0  0  0  0  0  0  0  0  0
    5.9386   -7.1316  -31.4705 O   0  0  0  0  0  0  0  0  0  0  0  0
    4.4486  -11.9122  -28.8007 O   0  0  0  0  0  0  0  0  0  0  0  0
    2.4823  -11.7157  -27.3933 O   0  0  0  0  0  1  0  0  0  0  0  0
    2.9234  -10.0351  -29.0825 O   0  0  0  0  0  1  0  0  0  0  0  0
    6.2785   -4.8243  -33.0386 C   0  0  0  0  0  0  0  0  0  0  0  0
    7.2268   -3.9599  -33.8986 C   0  0  0  0  0  0  0  0  0  0  0  0
    3.4960  -13.3585  -34.8864 H   0  0  0  0  0  0  0  0  0  0  0  0
    5.5809  -12.4864  -34.2964 H   0  0  0  0  0  0  0  0  0  0  0  0
    1.6650  -12.9711  -33.2659 H   0  0  0  0  0  0  0  0  0  0  0  0
    3.0386  -11.0604  -31.6447 H   0  0  0  0  0  0  0  0  0  0  0  0
    5.3653  -10.2076  -36.0281 H   0  0  0  0  0  0  0  0  0  0  0  0
    3.6274  -13.5713  -30.6091 H   0  0  0  0  0  0  0  0  0  0  0  0
    2.0332  -13.6994  -31.3567 H   0  0  0  0  0  0  0  0  0  0  0  0
    2.0189   -9.1579  -36.5206 H   0  0  0  0  0  0  0  0  0  0  0  0
    2.8477   -8.8781  -35.0081 H   0  0  0  0  0  0  0  0  0  0  0  0
    1.1060   -8.7610  -35.0847 H   0  0  0  0  0  0  0  0  0  0  0  0
    0.6827  -11.3659  -36.8364 H   0  0  0  0  0  0  0  0  0  0  0  0
   -0.2740  -11.0340  -35.4124 H   0  0  0  0  0  0  0  0  0  0  0  0
    0.6390  -12.5196  -35.5248 H   0  0  0  0  0  0  0  0  0  0  0  0
    4.8900  -10.8586  -31.2189 H   0  0  0  0  0  0  0  0  0  0  0  0
    5.2769   -9.2435  -30.8324 H   0  0  0  0  0  0  0  0  0  0  0  0
    6.5970   -4.7957  -32.0175 H   0  0  0  0  0  0  0  0  0  0  0  0
    5.2818   -4.4419  -33.1115 H   0  0  0  0  0  0  0  0  0  0  0  0
    8.2232   -4.3427  -33.8253 H   0  0  0  0  0  0  0  0  0  0  0  0
    7.2060   -2.9497  -33.5466 H   0  0  0  0  0  0  0  0  0  0  0  0
    6.9079   -3.9884  -34.9195 H   0  0  0  0  0  0  0  0  0  0  0  0
  1  2  1  0  0  0  0
  1  3  1  0  0  0  0
  1  4  1  0  0  0  0
  1 28  1  6  0  0  0
  2  5  1  0  0  0  0
  2  6  1  0  0  0  0
  2 29  1  6  0  0  0
  3  7  1  0  0  0  0
  3  8  1  0  0  0  0
  3 30  1  1  0  0  0
  4  9  1  0  0  0  0
  5 10  1  0  0  0  0
  5 11  1  0  0  0  0
  6  7  1  0  0  0  0
  7 12  1  0  0  0  0
  7 31  1  1  0  0  0
  8  9  1  0  0  0  0
  9 13  1  0  0  0  0
  9 14  1  0  0  0  0
 10 15  2  0  0  0  0
 10 16  1  0  0  0  0
 11 17  2  0  0  0  0
 11 32  1  0  0  0  0
 12 18  1  0  0  0  0
 12 33  1  0  0  0  0
 12 34  1  0  0  0  0
 13 35  1  0  0  0  0
 13 36  1  0  0  0  0
 13 37  1  0  0  0  0
 14 38  1  0  0  0  0
 14 39  1  0  0  0  0
 14 40  1  0  0  0  0
 15 19  1  0  0  0  0
 15 17  1  0  0  0  0
 16 41  1  0  0  0  0
 16 42  1  0  0  0  0
 18 20  1  0  0  0  0
 19 21  1  0  0  0  0
 19 22  2  0  0  0  0
 20 23  2  0  0  0  0
 20 24  1  0  0  0  0
 20 25  1  0  0  0  0
 21 26  1  0  0  0  0
 26 27  1  0  0  0  0
 26 43  1  0  0  0  0
 26 44  1  0  0  0  0
 27 45  1  0  0  0  0
 27 46  1  0  0  0  0
 27 47  1  0  0  0  0
M  END
$$$$
