HTS1710-01238644-01
 OpenBabel03232612343D

 30 29  0  0  1  0  0  0  0  0999 V2000
    4.2606   -8.5311  -31.2346 P   0  0  0  0  0  0  0  0  0  0  0  0
    3.3391   -9.8519  -30.2995 C   0  0  2  0  0  0  0  0  0  0  0  0
    3.0833   -9.4423  -28.8302 C   0  0  0  0  0  0  0  0  0  0  0  0
    5.5882  -14.0241  -27.6165 C   0  0  0  0  0  0  0  0  0  0  0  0
    5.6647   -8.5097  -30.7433 O   0  0  0  0  0  0  0  0  0  0  0  0
    2.9099  -10.3307  -28.0107 O   0  5  0  0  0  0  0  0  0  0  0  0
    6.0478  -13.3004  -28.4815 O   0  5  0  0  0  0  0  0  0  0  0  0
    4.1949   -8.8578  -32.6847 O   0  0  0  0  0  1  0  0  0  0  0  0
    3.5765   -7.2408  -30.9461 O   0  0  0  0  0  1  0  0  0  0  0  0
    4.2519  -14.7078  -27.9015 C   0  0  2  0  0  0  0  0  0  0  0  0
    3.0542   -8.2481  -28.5834 O   0  0  0  0  0  0  0  0  0  0  0  0
    6.1132  -14.2771  -26.5473 O   0  0  0  0  0  0  0  0  0  0  0  0
    4.5334  -15.9051  -28.7038 N   0  3  0  0  0  0  0  0  0  0  0  0
    4.0482  -11.2345  -30.4236 C   0  0  0  0  0  0  0  0  0  0  0  0
    3.2479  -13.8040  -28.6611 C   0  0  0  0  0  0  0  0  0  0  0  0
    3.1119  -12.4134  -30.8091 C   0  0  0  0  0  0  0  0  0  0  0  0
    3.5073  -13.7775  -30.1857 C   0  0  0  0  0  0  0  0  0  0  0  0
    2.3753   -9.9590  -30.7518 H   0  0  0  0  0  0  0  0  0  0  0  0
    3.7910  -14.9448  -26.9654 H   0  0  0  0  0  0  0  0  0  0  0  0
    4.9707  -15.6299  -29.5833 H   0  0  0  0  0  0  0  0  0  0  0  0
    3.6614  -16.3976  -28.8971 H   0  0  0  0  0  0  0  0  0  0  0  0
    5.1638  -16.5194  -28.1883 H   0  0  0  0  0  0  0  0  0  0  0  0
    4.5004  -11.4628  -29.4812 H   0  0  0  0  0  0  0  0  0  0  0  0
    4.7571  -11.1397  -31.2194 H   0  0  0  0  0  0  0  0  0  0  0  0
    3.3299  -12.8066  -28.2821 H   0  0  0  0  0  0  0  0  0  0  0  0
    2.2684  -14.2057  -28.5058 H   0  0  0  0  0  0  0  0  0  0  0  0
    3.1246  -12.5162  -31.8741 H   0  0  0  0  0  0  0  0  0  0  0  0
    2.1432  -12.1717  -30.4242 H   0  0  0  0  0  0  0  0  0  0  0  0
    2.9315  -14.5510  -30.6493 H   0  0  0  0  0  0  0  0  0  0  0  0
    4.5538  -13.9293  -30.3496 H   0  0  0  0  0  0  0  0  0  0  0  0
  1  2  1  0  0  0  0
  1  5  2  0  0  0  0
  1  8  1  0  0  0  0
  1  9  1  0  0  0  0
  2  3  1  0  0  0  0
  2 14  1  0  0  0  0
  2 18  1  6  0  0  0
  3  6  1  0  0  0  0
  3 11  2  0  0  0  0
  4 10  1  0  0  0  0
  4  7  1  0  0  0  0
  4 12  2  0  0  0  0
 10 15  1  0  0  0  0
 10 13  1  0  0  0  0
 10 19  1  1  0  0  0
 13 20  1  0  0  0  0
 13 21  1  0  0  0  0
 13 22  1  0  0  0  0
 14 16  1  0  0  0  0
 14 23  1  0  0  0  0
 14 24  1  0  0  0  0
 15 17  1  0  0  0  0
 15 25  1  0  0  0  0
 15 26  1  0  0  0  0
 16 17  1  0  0  0  0
 16 27  1  0  0  0  0
 16 28  1  0  0  0  0
 17 29  1  0  0  0  0
 17 30  1  0  0  0  0
M  CHG  3   6  -1   7  -1  13   1
M  END
$$$$
