HTS1710-01487920-01
 OpenBabel03232612353D

 42 45  0  0  0  0  0  0  0  0999 V2000
   -0.9048   -6.7892  -35.5080 N   0  0  0  0  0  0  0  0  0  0  0  0
    3.1992  -13.9491  -29.7059 N   0  0  0  0  0  0  0  0  0  0  0  0
   -0.4299   -7.6845  -34.5558 C   0  0  0  0  0  0  0  0  0  0  0  0
    4.0876  -13.2373  -30.5033 C   0  0  0  0  0  0  0  0  0  0  0  0
    1.9502  -14.0882  -30.3002 C   0  0  0  0  0  0  0  0  0  0  0  0
   -0.2657   -6.9326  -36.7338 C   0  0  0  0  0  0  0  0  0  0  0  0
    3.3343  -12.8972  -31.7403 C   0  0  0  0  0  0  0  0  0  0  0  0
    0.6103   -8.4920  -35.2472 C   0  0  0  0  0  0  0  0  0  0  0  0
    2.0537  -13.4036  -31.6176 C   0  0  0  0  0  0  0  0  0  0  0  0
    0.7112   -8.0405  -36.5502 C   0  0  0  0  0  0  0  0  0  0  0  0
    3.7420  -12.1955  -32.8799 C   0  0  0  0  0  0  0  0  0  0  0  0
    1.4074   -9.5368  -34.7677 C   0  0  0  0  0  0  0  0  0  0  0  0
    2.3318  -10.1360  -35.6542 C   0  0  0  0  0  0  0  0  0  0  0  0
    2.8065  -12.0149  -33.9243 C   0  0  0  0  0  0  0  0  0  0  0  0
    3.2156  -11.2505  -35.1570 C   0  0  0  0  0  0  0  0  0  0  0  0
   -1.9495   -5.7851  -35.2365 C   0  0  0  0  0  0  0  0  0  0  0  0
    3.5393  -14.4761  -28.3723 C   0  0  0  0  0  0  0  0  0  0  0  0
    1.1001  -13.2270  -32.6250 C   0  0  0  0  0  0  0  0  0  0  0  0
    1.6257   -8.5997  -37.4480 C   0  0  0  0  0  0  0  0  0  0  0  0
    4.1133  -13.3595  -27.4962 C   0  0  0  0  0  0  0  0  0  0  0  0
   -3.3103   -6.4713  -35.0865 C   0  0  0  0  0  0  0  0  0  0  0  0
   -0.7835   -7.7809  -33.3934 O   0  0  0  0  0  0  0  0  0  0  0  0
    5.2408  -12.9435  -30.2406 O   0  0  0  0  0  0  0  0  0  0  0  0
    0.9728  -14.6513  -29.8384 O   0  0  0  0  0  0  0  0  0  0  0  0
   -0.4612   -6.2846  -37.7472 O   0  0  0  0  0  0  0  0  0  0  0  0
    2.4436   -9.6522  -36.9856 C   0  0  0  0  0  0  0  0  0  0  0  0
    1.4865  -12.5204  -33.7830 C   0  0  0  0  0  0  0  0  0  0  0  0
    4.2477  -11.5309  -35.7433 O   0  0  0  0  0  0  0  0  0  0  0  0
    3.3833  -12.4166  -27.2480 O   0  5  0  0  0  0  0  0  0  0  0  0
   -3.3111   -7.6223  -34.6864 O   0  5  0  0  0  0  0  0  0  0  0  0
    5.2607  -13.4907  -27.1059 O   0  0  0  0  0  0  0  0  0  0  0  0
   -4.2980   -5.8197  -35.3766 O   0  0  0  0  0  0  0  0  0  0  0  0
    4.7002  -11.8197  -32.9561 H   0  0  0  0  0  0  0  0  0  0  0  0
    1.3229   -9.8621  -33.7919 H   0  0  0  0  0  0  0  0  0  0  0  0
   -1.9914   -5.0892  -36.0482 H   0  0  0  0  0  0  0  0  0  0  0  0
   -1.7140   -5.2705  -34.3284 H   0  0  0  0  0  0  0  0  0  0  0  0
    4.2660  -15.2549  -28.4743 H   0  0  0  0  0  0  0  0  0  0  0  0
    2.6539  -14.8625  -27.9120 H   0  0  0  0  0  0  0  0  0  0  0  0
    0.1439  -13.6018  -32.5243 H   0  0  0  0  0  0  0  0  0  0  0  0
    1.7001   -8.2537  -38.4174 H   0  0  0  0  0  0  0  0  0  0  0  0
    3.1338  -10.0774  -37.6242 H   0  0  0  0  0  0  0  0  0  0  0  0
    0.8002  -12.3685  -34.5385 H   0  0  0  0  0  0  0  0  0  0  0  0
  1  3  1  0  0  0  0
  1  6  1  0  0  0  0
  1 16  1  0  0  0  0
  2  4  1  0  0  0  0
  2 17  1  0  0  0  0
  2  5  1  0  0  0  0
  3  8  1  0  0  0  0
  3 22  2  0  0  0  0
  4  7  1  0  0  0  0
  4 23  2  0  0  0  0
  5  9  1  0  0  0  0
  5 24  2  0  0  0  0
  6 10  1  0  0  0  0
  6 25  2  0  0  0  0
  7 11  2  0  0  0  0
  7  9  1  0  0  0  0
  8 12  2  0  0  0  0
  8 10  1  0  0  0  0
  9 18  2  0  0  0  0
 10 19  2  0  0  0  0
 11 14  1  0  0  0  0
 11 33  1  0  0  0  0
 12 13  1  0  0  0  0
 12 34  1  0  0  0  0
 13 15  1  0  0  0  0
 13 26  2  0  0  0  0
 14 15  1  0  0  0  0
 14 27  2  0  0  0  0
 15 28  2  0  0  0  0
 16 21  1  0  0  0  0
 16 35  1  0  0  0  0
 16 36  1  0  0  0  0
 17 20  1  0  0  0  0
 17 37  1  0  0  0  0
 17 38  1  0  0  0  0
 18 27  1  0  0  0  0
 18 39  1  0  0  0  0
 19 26  1  0  0  0  0
 19 40  1  0  0  0  0
 20 29  1  0  0  0  0
 20 31  2  0  0  0  0
 21 30  1  0  0  0  0
 21 32  2  0  0  0  0
 26 41  1  0  0  0  0
 27 42  1  0  0  0  0
M  CHG  2  29  -1  30  -1
M  END
$$$$
