HTS1710-00410864-01
 OpenBabel03232612343D

 17 17  0  0  0  0  0  0  0  0999 V2000
    4.7501   -9.0832  -32.6793 C   0  0  0  0  0  0  0  0  0  0  0  0
    4.1036   -9.9843  -31.7383 C   0  0  0  0  0  0  0  0  0  0  0  0
    5.2935   -8.0751  -31.8843 C   0  0  0  0  0  0  0  0  0  0  0  0
    4.7609   -9.1933  -34.1783 C   0  0  0  0  0  0  0  0  0  0  0  0
    4.3458   -9.4175  -30.4867 C   0  0  0  0  0  0  0  0  0  0  0  0
    3.3962  -11.2720  -32.0574 C   0  0  0  0  0  0  0  0  0  0  0  0
    5.0632   -8.2575  -30.5505 O   0  0  0  0  0  0  0  0  0  0  0  0
    5.9709   -6.7906  -32.2640 C   0  0  0  0  0  0  0  0  0  0  0  0
    5.7546   -8.8403  -34.7858 O   0  5  0  0  0  0  0  0  0  0  0  0
    3.7697   -9.6337  -34.7325 O   0  0  0  0  0  0  0  0  0  0  0  0
    4.0482   -9.9300  -29.1080 C   0  0  0  0  0  0  0  0  0  0  0  0
    4.0598  -12.2707  -32.2633 O   0  5  0  0  0  0  0  0  0  0  0  0
    2.1795  -11.2672  -32.1015 O   0  0  0  0  0  0  0  0  0  0  0  0
    5.7194   -5.8151  -31.5747 O   0  5  0  0  0  0  0  0  0  0  0  0
    6.7060   -6.7479  -33.2315 O   0  0  0  0  0  0  0  0  0  0  0  0
    4.2324  -11.1006  -28.8346 O   0  5  0  0  0  0  0  0  0  0  0  0
    3.6442   -9.1130  -28.2968 O   0  0  0  0  0  0  0  0  0  0  0  0
  1  2  1  0  0  0  0
  1  3  2  0  0  0  0
  1  4  1  0  0  0  0
  2  5  2  0  0  0  0
  2  6  1  0  0  0  0
  3  7  1  0  0  0  0
  3  8  1  0  0  0  0
  4  9  1  0  0  0  0
  4 10  2  0  0  0  0
  5 11  1  0  0  0  0
  5  7  1  0  0  0  0
  6 12  1  0  0  0  0
  6 13  2  0  0  0  0
  8 14  1  0  0  0  0
  8 15  2  0  0  0  0
 11 16  1  0  0  0  0
 11 17  2  0  0  0  0
M  CHG  4   9  -1  12  -1  14  -1  16  -1
M  END
$$$$
