HTS1710-00810299-01
 OpenBabel03232612353D

 44 45  0  0  1  0  0  0  0  0999 V2000
    1.5951  -14.4303  -29.2797 C   0  0  0  0  0  0  0  0  0  0  0  0
    3.6525  -14.7683  -27.8827 C   0  0  0  0  0  0  0  0  0  0  0  0
    0.8116  -14.8261  -28.2245 O   0  0  0  0  0  0  0  0  0  0  0  0
    1.3040  -15.2002  -27.0118 C   0  0  0  0  0  0  0  0  0  0  0  0
    2.9984  -14.3897  -29.1483 C   0  0  0  0  0  0  0  0  0  0  0  0
    2.7738  -15.1552  -26.8848 C   0  0  0  0  0  0  0  0  0  0  0  0
    4.7251   -9.5591  -32.3272 C   0  0  0  0  0  0  0  0  0  0  0  0
    3.9759   -9.5323  -33.6875 C   0  0  1  0  0  0  0  0  0  0  0  0
    4.8716   -9.0974  -34.8611 C   0  0  0  0  0  0  0  0  0  0  0  0
    3.4429  -10.8755  -33.9578 N   0  0  0  0  0  0  0  0  0  0  0  0
    0.9746  -14.0685  -30.4850 C   0  0  0  0  0  0  0  0  0  0  0  0
    5.0072   -8.1607  -31.7557 C   0  0  0  0  0  0  0  0  0  0  0  0
    2.1906  -11.2962  -33.5299 C   0  0  0  0  0  0  0  0  0  0  0  0
    3.7659  -13.9791  -30.2584 C   0  0  0  0  0  0  0  0  0  0  0  0
    0.5768  -15.5464  -26.0986 O   0  0  0  0  0  0  0  0  0  0  0  0
    4.6358   -9.5694  -35.9608 O   0  5  0  0  0  0  0  0  0  0  0  0
    4.2210   -7.2709  -32.0339 O   0  5  0  0  0  0  0  0  0  0  0  0
    1.4653  -10.5456  -32.8991 O   0  0  0  0  0  0  0  0  0  0  0  0
    1.7446  -13.6568  -31.5832 C   0  0  0  0  0  0  0  0  0  0  0  0
    1.0890  -13.3111  -32.7481 O   0  0  0  0  0  0  0  0  0  0  0  0
    1.7571  -12.7188  -33.8780 C   0  0  0  0  0  0  0  0  0  0  0  0
    3.1488  -13.6139  -31.4656 C   0  0  0  0  0  0  0  0  0  0  0  0
    5.7513   -8.2885  -34.6161 O   0  0  0  0  0  0  0  0  0  0  0  0
    5.9946   -8.0349  -31.0513 O   0  0  0  0  0  0  0  0  0  0  0  0
    5.1376  -14.7703  -27.5839 C   0  0  0  0  0  0  0  0  0  0  0  0
    5.6808  -16.1813  -27.2469 C   0  0  0  0  0  0  0  0  0  0  0  0
    7.0717  -16.1466  -26.5738 C   0  0  0  0  0  0  0  0  0  0  0  0
    3.1799  -15.4349  -25.9782 H   0  0  0  0  0  0  0  0  0  0  0  0
    5.6587  -10.0635  -32.4646 H   0  0  0  0  0  0  0  0  0  0  0  0
    4.0909  -10.0630  -31.6282 H   0  0  0  0  0  0  0  0  0  0  0  0
    3.1919   -8.8084  -33.6086 H   0  0  0  0  0  0  0  0  0  0  0  0
    4.0008  -11.5073  -34.4668 H   0  0  0  0  0  0  0  0  0  0  0  0
   -0.0537  -14.1054  -30.5642 H   0  0  0  0  0  0  0  0  0  0  0  0
    4.7946  -13.9467  -30.1822 H   0  0  0  0  0  0  0  0  0  0  0  0
    2.6184  -13.3022  -34.1283 H   0  0  0  0  0  0  0  0  0  0  0  0
    1.0875  -12.6918  -34.7122 H   0  0  0  0  0  0  0  0  0  0  0  0
    3.7241  -13.3137  -32.2681 H   0  0  0  0  0  0  0  0  0  0  0  0
    5.3191  -14.1259  -26.7492 H   0  0  0  0  0  0  0  0  0  0  0  0
    5.6435  -14.4324  -28.4641 H   0  0  0  0  0  0  0  0  0  0  0  0
    5.7545  -16.7441  -28.1539 H   0  0  0  0  0  0  0  0  0  0  0  0
    5.0002  -16.6298  -26.5537 H   0  0  0  0  0  0  0  0  0  0  0  0
    7.7801  -15.7025  -27.2416 H   0  0  0  0  0  0  0  0  0  0  0  0
    7.3795  -17.1442  -26.3393 H   0  0  0  0  0  0  0  0  0  0  0  0
    7.0185  -15.5691  -25.6747 H   0  0  0  0  0  0  0  0  0  0  0  0
  1  3  1  0  0  0  0
  1  5  2  0  0  0  0
  1 11  1  0  0  0  0
  2  5  1  0  0  0  0
  2  6  2  0  0  0  0
  2 25  1  0  0  0  0
  3  4  1  0  0  0  0
  4 15  2  0  0  0  0
  4  6  1  0  0  0  0
  5 14  1  0  0  0  0
  6 28  1  0  0  0  0
  7  8  1  0  0  0  0
  7 12  1  0  0  0  0
  7 29  1  0  0  0  0
  7 30  1  0  0  0  0
  8 10  1  0  0  0  0
  8  9  1  0  0  0  0
  8 31  1  1  0  0  0
  9 16  1  0  0  0  0
  9 23  2  0  0  0  0
 10 13  1  0  0  0  0
 10 32  1  0  0  0  0
 11 19  2  0  0  0  0
 11 33  1  0  0  0  0
 12 17  1  0  0  0  0
 12 24  2  0  0  0  0
 13 21  1  0  0  0  0
 13 18  2  0  0  0  0
 14 22  2  0  0  0  0
 14 34  1  0  0  0  0
 19 20  1  0  0  0  0
 19 22  1  0  0  0  0
 20 21  1  0  0  0  0
 21 35  1  0  0  0  0
 21 36  1  0  0  0  0
 22 37  1  0  0  0  0
 25 26  1  0  0  0  0
 25 38  1  0  0  0  0
 25 39  1  0  0  0  0
 26 27  1  0  0  0  0
 26 40  1  0  0  0  0
 26 41  1  0  0  0  0
 27 42  1  0  0  0  0
 27 43  1  0  0  0  0
 27 44  1  0  0  0  0
M  CHG  2  16  -1  17  -1
M  END
$$$$
