HTS1710-03592163-01
 OpenBabel03232612343D

 27 27  0  0  0  0  0  0  0  0999 V2000
    4.3268   -9.3748  -32.2592 C   0  0  0  0  0  0  0  0  0  0  0  0
    5.3068   -8.2289  -31.8347 C   0  0  0  0  0  0  0  0  0  0  0  0
    4.9581  -10.0336  -33.5435 C   0  0  0  0  0  0  0  0  0  0  0  0
    4.2457  -10.5091  -31.1691 C   0  0  0  0  0  0  0  0  0  0  0  0
    3.9568  -10.0265  -29.7339 C   0  0  0  0  0  0  0  0  0  0  0  0
    4.7493   -9.2660  -34.8663 C   0  0  0  0  0  0  0  0  0  0  0  0
    2.8768   -8.8439  -32.4830 C   0  0  0  0  0  0  0  0  0  0  0  0
    5.8551   -8.3126  -30.7479 O   0  5  0  0  0  0  0  0  0  0  0  0
    3.1786   -9.0983  -29.5955 O   0  5  0  0  0  0  0  0  0  0  0  0
    3.6850   -9.4078  -35.4427 O   0  5  0  0  0  0  0  0  0  0  0  0
    5.4649   -7.2986  -32.6093 O   0  0  0  0  0  0  0  0  0  0  0  0
    5.6853   -8.6019  -35.2767 O   0  0  0  0  0  0  0  0  0  0  0  0
    4.5654  -10.5719  -28.8296 O   0  0  0  0  0  0  0  0  0  0  0  0
    1.8687   -9.6596  -33.0516 C   0  0  0  0  0  0  0  0  0  0  0  0
    2.4992   -7.5617  -32.0167 C   0  0  0  0  0  0  0  0  0  0  0  0
    1.1854   -7.0907  -32.1688 C   0  0  0  0  0  0  0  0  0  0  0  0
    0.5550   -9.1863  -33.2040 C   0  0  0  0  0  0  0  0  0  0  0  0
    0.2141   -7.8989  -32.7709 C   0  0  0  0  0  0  0  0  0  0  0  0
    4.5283  -11.0068  -33.6577 H   0  0  0  0  0  0  0  0  0  0  0  0
    6.0149  -10.0401  -33.3761 H   0  0  0  0  0  0  0  0  0  0  0  0
    5.1820  -11.0271  -31.1612 H   0  0  0  0  0  0  0  0  0  0  0  0
    3.4161  -11.1256  -31.4458 H   0  0  0  0  0  0  0  0  0  0  0  0
    2.1027  -10.6167  -33.3587 H   0  0  0  0  0  0  0  0  0  0  0  0
    3.2023   -6.9625  -31.5567 H   0  0  0  0  0  0  0  0  0  0  0  0
    0.9351   -6.1465  -31.8359 H   0  0  0  0  0  0  0  0  0  0  0  0
   -0.1618   -9.7896  -33.6368 H   0  0  0  0  0  0  0  0  0  0  0  0
   -0.7484   -7.5479  -32.8950 H   0  0  0  0  0  0  0  0  0  0  0  0
  1  2  1  0  0  0  0
  1  3  1  0  0  0  0
  1  4  1  0  0  0  0
  1  7  1  0  0  0  0
  2  8  1  0  0  0  0
  2 11  2  0  0  0  0
  3  6  1  0  0  0  0
  3 19  1  0  0  0  0
  3 20  1  0  0  0  0
  4  5  1  0  0  0  0
  4 21  1  0  0  0  0
  4 22  1  0  0  0  0
  5  9  1  0  0  0  0
  5 13  2  0  0  0  0
  6 10  1  0  0  0  0
  6 12  2  0  0  0  0
  7 14  2  0  0  0  0
  7 15  1  0  0  0  0
 14 17  1  0  0  0  0
 14 23  1  0  0  0  0
 15 16  2  0  0  0  0
 15 24  1  0  0  0  0
 16 18  1  0  0  0  0
 16 25  1  0  0  0  0
 17 18  2  0  0  0  0
 17 26  1  0  0  0  0
 18 27  1  0  0  0  0
M  CHG  3   8  -1   9  -1  10  -1
M  END
$$$$
