HTS1710-01840168-01
 OpenBabel03232612353D

 47 49  0  0  1  0  0  0  0  0999 V2000
    4.3576  -11.0880  -32.0189 N   0  0  0  0  0  0  0  0  0  0  0  0
    4.6377  -10.2470  -33.0833 C   0  0  0  0  0  0  0  0  0  0  0  0
    4.2865  -12.2992  -32.8463 C   0  0  2  0  0  0  0  0  0  0  0  0
    4.6325  -11.4205  -34.0991 C   0  0  1  0  0  0  0  0  0  0  0  0
   -0.1751   -7.8228  -35.7351 C   0  0  0  0  0  0  0  0  0  0  0  0
    1.3218   -9.1507  -36.6469 N   0  0  0  0  0  0  0  0  0  0  0  0
    4.0834  -11.1160  -30.5870 C   0  0  0  0  0  0  0  0  0  0  0  0
    0.4595   -9.0288  -35.5699 C   0  0  0  0  0  0  0  0  0  0  0  0
   -1.1698   -7.1946  -34.8932 N   0  0  0  0  0  0  0  0  0  0  0  0
    1.2482   -8.0718  -37.4876 N   0  0  0  0  0  0  0  0  0  0  0  0
    0.3471   -7.2730  -36.9403 C   0  0  0  0  0  0  0  0  0  0  0  0
    2.5803  -12.9227  -32.5667 S   0  0  0  0  0  0  0  0  0  0  0  0
    3.4285  -12.2067  -30.0553 C   0  0  0  0  0  0  0  0  0  0  0  0
    2.2548  -10.2544  -36.9339 C   0  0  0  0  0  0  0  0  0  0  0  0
    3.5209  -11.3036  -35.0511 N   0  0  0  0  0  0  0  0  0  0  0  0
    3.4590  -10.2839  -35.9873 C   0  0  0  0  0  0  0  0  0  0  0  0
    4.5479   -9.9209  -29.7595 C   0  0  0  0  0  0  0  0  0  0  0  0
    3.0249  -13.4440  -30.8670 C   0  0  0  0  0  0  0  0  0  0  0  0
    4.7693   -9.0359  -33.0727 O   0  0  0  0  0  0  0  0  0  0  0  0
   -1.5995   -6.1030  -35.2545 O   0  5  0  0  0  0  0  0  0  0  0  0
   -1.5234   -7.7632  -33.8659 O   0  0  0  0  0  0  0  0  0  0  0  0
    3.0233  -12.3838  -28.5876 C   0  0  0  0  0  0  0  0  0  0  0  0
    5.0766  -13.5178  -27.8708 C   0  0  0  0  0  0  0  0  0  0  0  0
    5.3703   -9.1531  -30.2233 O   0  5  0  0  0  0  0  0  0  0  0  0
    4.3456   -9.4460  -36.0327 O   0  0  0  0  0  0  0  0  0  0  0  0
    4.2009  -12.4752  -27.7531 O   0  0  0  0  0  0  0  0  0  0  0  0
    6.2512  -13.4191  -28.1839 O   0  0  0  0  0  0  0  0  0  0  0  0
    4.0497   -9.7664  -28.6598 O   0  0  0  0  0  0  0  0  0  0  0  0
    0.2657  -10.0153  -34.4404 C   0  0  0  0  0  0  0  0  0  0  0  0
    4.3939  -14.8452  -27.5499 C   0  0  0  0  0  0  0  0  0  0  0  0
    4.8559  -13.2023  -32.7745 H   0  0  0  0  0  0  0  0  0  0  0  0
    5.4385  -11.6486  -34.7648 H   0  0  0  0  0  0  0  0  0  0  0  0
   -0.5327   -7.7572  -34.3964 H   0  0  0  0  0  0  0  0  0  0  0  0
    0.0587   -6.3651  -37.3371 H   0  0  0  0  0  0  0  0  0  0  0  0
    2.6122  -10.1464  -37.9367 H   0  0  0  0  0  0  0  0  0  0  0  0
    1.7182  -11.1699  -36.7968 H   0  0  0  0  0  0  0  0  0  0  0  0
    2.7971  -11.9704  -35.0233 H   0  0  0  0  0  0  0  0  0  0  0  0
    3.8442  -14.1312  -30.9051 H   0  0  0  0  0  0  0  0  0  0  0  0
    2.1870  -13.9225  -30.4046 H   0  0  0  0  0  0  0  0  0  0  0  0
    2.4470  -13.2796  -28.4854 H   0  0  0  0  0  0  0  0  0  0  0  0
    2.4422  -11.5394  -28.2810 H   0  0  0  0  0  0  0  0  0  0  0  0
   -0.4696   -9.6389  -33.7603 H   0  0  0  0  0  0  0  0  0  0  0  0
    1.1925  -10.1524  -33.9236 H   0  0  0  0  0  0  0  0  0  0  0  0
   -0.0629  -10.9527  -34.8382 H   0  0  0  0  0  0  0  0  0  0  0  0
    3.3674  -14.6683  -27.3051 H   0  0  0  0  0  0  0  0  0  0  0  0
    4.8845  -15.3067  -26.7186 H   0  0  0  0  0  0  0  0  0  0  0  0
    4.4514  -15.4908  -28.4013 H   0  0  0  0  0  0  0  0  0  0  0  0
  1  2  1  0  0  0  0
  1  3  1  0  0  0  0
  1  7  1  0  0  0  0
  2  4  1  0  0  0  0
  2 19  2  0  0  0  0
  3  4  1  0  0  0  0
  3 12  1  0  0  0  0
  3 31  1  1  0  0  0
  4 15  1  0  0  0  0
  4 32  1  6  0  0  0
  5  8  2  0  0  0  0
  5  9  1  0  0  0  0
  5 11  1  0  0  0  0
  6  8  1  0  0  0  0
  6 10  1  0  0  0  0
  6 14  1  0  0  0  0
  7 13  2  0  0  0  0
  7 17  1  0  0  0  0
  8 29  1  0  0  0  0
  9 20  1  0  0  0  0
  9 21  2  0  0  0  0
  9 33  1  0  0  0  0
 10 11  2  0  0  0  0
 11 34  1  0  0  0  0
 12 18  1  0  0  0  0
 13 18  1  0  0  0  0
 13 22  1  0  0  0  0
 14 16  1  0  0  0  0
 14 35  1  0  0  0  0
 14 36  1  0  0  0  0
 15 16  1  0  0  0  0
 15 37  1  0  0  0  0
 16 25  2  0  0  0  0
 17 24  1  0  0  0  0
 17 28  2  0  0  0  0
 18 38  1  0  0  0  0
 18 39  1  0  0  0  0
 22 26  1  0  0  0  0
 22 40  1  0  0  0  0
 22 41  1  0  0  0  0
 23 26  1  0  0  0  0
 23 27  2  0  0  0  0
 23 30  1  0  0  0  0
 29 42  1  0  0  0  0
 29 43  1  0  0  0  0
 29 44  1  0  0  0  0
 30 45  1  0  0  0  0
 30 46  1  0  0  0  0
 30 47  1  0  0  0  0
M  CHG  2  20  -1  24  -1
M  END
$$$$
