HTS1710-01261354-01
 OpenBabel03232612353D

 41 42  0  0  1  0  0  0  0  0999 V2000
    2.1531  -11.9431  -30.9393 C   0  0  0  0  0  0  0  0  0  0  0  0
    2.7217  -13.3683  -28.9533 C   0  0  0  0  0  0  0  0  0  0  0  0
    2.7033  -10.8520  -30.3158 O   0  0  0  0  0  0  0  0  0  0  0  0
    3.2640  -10.8889  -29.0755 C   0  0  0  0  0  0  0  0  0  0  0  0
    2.1439  -13.1988  -30.2988 C   0  0  0  0  0  0  0  0  0  0  0  0
    3.2489  -12.2082  -28.4131 C   0  0  0  0  0  0  0  0  0  0  0  0
    5.3693  -10.7954  -34.8068 C   0  0  0  0  0  0  0  0  0  0  0  0
    4.4910  -10.4816  -36.0462 C   0  0  2  0  0  0  0  0  0  0  0  0
    4.8436   -9.1191  -36.6718 C   0  0  0  0  0  0  0  0  0  0  0  0
    3.0771  -10.5053  -35.6520 N   0  0  0  0  0  0  0  0  0  0  0  0
    1.6037  -11.7850  -32.2214 C   0  0  0  0  0  0  0  0  0  0  0  0
    4.7820  -10.2098  -33.5146 C   0  0  0  0  0  0  0  0  0  0  0  0
    2.3648  -11.6761  -35.4365 C   0  0  0  0  0  0  0  0  0  0  0  0
    1.5664  -14.2924  -30.9742 C   0  0  0  0  0  0  0  0  0  0  0  0
    3.7423   -9.8974  -28.5525 O   0  0  0  0  0  0  0  0  0  0  0  0
    4.3438   -8.8420  -37.7501 O   0  5  0  0  0  0  0  0  0  0  0  0
    4.2464   -9.1171  -33.5868 O   0  5  0  0  0  0  0  0  0  0  0  0
    2.9130  -12.7567  -35.5732 O   0  0  0  0  0  0  0  0  0  0  0  0
    1.0373  -12.8791  -32.8917 C   0  0  0  0  0  0  0  0  0  0  0  0
    0.5119  -12.6715  -34.1549 O   0  0  0  0  0  0  0  0  0  0  0  0
    0.8881  -11.5820  -35.0265 C   0  0  0  0  0  0  0  0  0  0  0  0
    1.0135  -14.1382  -32.2549 C   0  0  0  0  0  0  0  0  0  0  0  0
    5.6082   -8.4043  -36.0469 O   0  0  0  0  0  0  0  0  0  0  0  0
    4.9090  -10.8692  -32.4969 O   0  0  0  0  0  0  0  0  0  0  0  0
    2.7792  -14.6416  -28.1364 C   0  0  0  0  0  0  0  0  0  0  0  0
    1.5185  -14.8250  -27.2664 C   0  0  0  0  0  0  0  0  0  0  0  0
    3.6653  -12.2705  -27.4709 H   0  0  0  0  0  0  0  0  0  0  0  0
    6.3434  -10.3805  -34.9612 H   0  0  0  0  0  0  0  0  0  0  0  0
    5.4113  -11.8587  -34.6955 H   0  0  0  0  0  0  0  0  0  0  0  0
    4.6793  -11.2291  -36.7882 H   0  0  0  0  0  0  0  0  0  0  0  0
    2.6105   -9.6464  -35.5345 H   0  0  0  0  0  0  0  0  0  0  0  0
    1.6165  -10.8575  -32.6737 H   0  0  0  0  0  0  0  0  0  0  0  0
    1.5500  -15.2194  -30.5208 H   0  0  0  0  0  0  0  0  0  0  0  0
    0.2799  -11.6142  -35.9062 H   0  0  0  0  0  0  0  0  0  0  0  0
    0.7435  -10.6630  -34.4979 H   0  0  0  0  0  0  0  0  0  0  0  0
    0.5881  -14.9482  -32.7325 H   0  0  0  0  0  0  0  0  0  0  0  0
    3.6374  -14.6047  -27.4983 H   0  0  0  0  0  0  0  0  0  0  0  0
    2.8373  -15.4677  -28.8139 H   0  0  0  0  0  0  0  0  0  0  0  0
    1.4381  -14.0092  -26.5787 H   0  0  0  0  0  0  0  0  0  0  0  0
    1.5908  -15.7438  -26.7229 H   0  0  0  0  0  0  0  0  0  0  0  0
    0.6523  -14.8491  -27.8941 H   0  0  0  0  0  0  0  0  0  0  0  0
  1  3  1  0  0  0  0
  1  5  2  0  0  0  0
  1 11  1  0  0  0  0
  2  5  1  0  0  0  0
  2  6  2  0  0  0  0
  2 25  1  0  0  0  0
  3  4  1  0  0  0  0
  4 15  2  0  0  0  0
  4  6  1  0  0  0  0
  5 14  1  0  0  0  0
  6 27  1  0  0  0  0
  7  8  1  0  0  0  0
  7 12  1  0  0  0  0
  7 28  1  0  0  0  0
  7 29  1  0  0  0  0
  8 10  1  0  0  0  0
  8  9  1  0  0  0  0
  8 30  1  6  0  0  0
  9 16  1  0  0  0  0
  9 23  2  0  0  0  0
 10 13  1  0  0  0  0
 10 31  1  0  0  0  0
 11 19  2  0  0  0  0
 11 32  1  0  0  0  0
 12 17  1  0  0  0  0
 12 24  2  0  0  0  0
 13 21  1  0  0  0  0
 13 18  2  0  0  0  0
 14 22  2  0  0  0  0
 14 33  1  0  0  0  0
 19 20  1  0  0  0  0
 19 22  1  0  0  0  0
 20 21  1  0  0  0  0
 21 34  1  0  0  0  0
 21 35  1  0  0  0  0
 22 36  1  0  0  0  0
 25 26  1  0  0  0  0
 25 37  1  0  0  0  0
 25 38  1  0  0  0  0
 26 39  1  0  0  0  0
 26 40  1  0  0  0  0
 26 41  1  0  0  0  0
M  CHG  2  16  -1  17  -1
M  END
$$$$
