HTS1710-02531377-01
 OpenBabel03232612363D

 39 39  0  0  0  0  0  0  0  0999 V2000
    3.9238  -10.8657  -30.6911 C   0  0  0  0  0  0  0  0  0  0  0  0
    2.8278  -10.4639  -33.2827 C   0  0  0  0  0  0  0  0  0  0  0  0
    4.3525   -9.7725  -31.5028 C   0  0  0  0  0  0  0  0  0  0  0  0
    2.9316  -11.7556  -31.2060 C   0  0  0  0  0  0  0  0  0  0  0  0
    2.2215  -10.2457  -34.6637 C   0  0  0  0  0  0  0  0  0  0  0  0
    3.7966   -9.5866  -32.7780 C   0  0  0  0  0  0  0  0  0  0  0  0
    2.4061  -11.5433  -32.4990 C   0  0  0  0  0  0  0  0  0  0  0  0
    0.3789  -10.1937  -34.5540 S   0  0  0  0  0  0  0  0  0  0  0  0
    2.8180  -11.5247  -35.8524 S   0  0  0  0  0  0  0  0  0  0  0  0
    4.7230   -9.5321  -36.3926 C   0  0  0  0  0  0  0  0  0  0  0  0
   -1.0964   -7.9419  -33.7538 C   0  0  0  0  0  0  0  0  0  0  0  0
    4.1837   -9.1308  -37.4090 O   0  5  0  0  0  0  0  0  0  0  0  0
   -2.2191   -7.9373  -34.2277 O   0  5  0  0  0  0  0  0  0  0  0  0
    0.0551   -8.3767  -34.6674 C   0  0  0  0  0  0  0  0  0  0  0  0
    4.5869  -11.0219  -36.0571 C   0  0  0  0  0  0  0  0  0  0  0  0
    4.4873  -11.0181  -29.4282 O   0  0  0  0  0  0  0  0  0  0  0  0
    5.3078   -8.8349  -31.1282 O   0  0  0  0  0  0  0  0  0  0  0  0
    2.4788  -12.8243  -30.4509 O   0  0  0  0  0  0  0  0  0  0  0  0
   -0.8086   -7.6325  -32.6111 O   0  0  0  0  0  0  0  0  0  0  0  0
    5.3632   -8.8465  -35.6149 O   0  0  0  0  0  0  0  0  0  0  0  0
    4.5653  -12.2184  -28.6399 C   0  0  0  0  0  0  0  0  0  0  0  0
    5.4758   -7.5070  -31.6552 C   0  0  0  0  0  0  0  0  0  0  0  0
    1.5669  -13.8251  -30.9378 C   0  0  0  0  0  0  0  0  0  0  0  0
    2.5459   -9.2982  -35.0405 H   0  0  0  0  0  0  0  0  0  0  0  0
    4.1072   -8.7890  -33.3545 H   0  0  0  0  0  0  0  0  0  0  0  0
    1.6988  -12.1955  -32.8724 H   0  0  0  0  0  0  0  0  0  0  0  0
   -0.1948   -8.1326  -35.6788 H   0  0  0  0  0  0  0  0  0  0  0  0
    0.9393   -7.8626  -34.3531 H   0  0  0  0  0  0  0  0  0  0  0  0
    5.0202  -11.5959  -36.8495 H   0  0  0  0  0  0  0  0  0  0  0  0
    5.0917  -11.2006  -35.1307 H   0  0  0  0  0  0  0  0  0  0  0  0
    5.0585  -12.0059  -27.7144 H   0  0  0  0  0  0  0  0  0  0  0  0
    5.1175  -12.9618  -29.1758 H   0  0  0  0  0  0  0  0  0  0  0  0
    3.5779  -12.5805  -28.4429 H   0  0  0  0  0  0  0  0  0  0  0  0
    6.2982   -7.0299  -31.1645 H   0  0  0  0  0  0  0  0  0  0  0  0
    4.5833   -6.9412  -31.4873 H   0  0  0  0  0  0  0  0  0  0  0  0
    5.6707   -7.5623  -32.7059 H   0  0  0  0  0  0  0  0  0  0  0  0
    1.3745  -14.5389  -30.1642 H   0  0  0  0  0  0  0  0  0  0  0  0
    1.9992  -14.3213  -31.7815 H   0  0  0  0  0  0  0  0  0  0  0  0
    0.6489  -13.3594  -31.2298 H   0  0  0  0  0  0  0  0  0  0  0  0
  1  3  2  0  0  0  0
  1  4  1  0  0  0  0
  1 16  1  0  0  0  0
  2  5  1  0  0  0  0
  2  6  2  0  0  0  0
  2  7  1  0  0  0  0
  3  6  1  0  0  0  0
  3 17  1  0  0  0  0
  4  7  2  0  0  0  0
  4 18  1  0  0  0  0
  5  8  1  0  0  0  0
  5  9  1  0  0  0  0
  5 24  1  0  0  0  0
  6 25  1  0  0  0  0
  7 26  1  0  0  0  0
  8 14  1  0  0  0  0
  9 15  1  0  0  0  0
 10 12  1  0  0  0  0
 10 15  1  0  0  0  0
 10 20  2  0  0  0  0
 11 13  1  0  0  0  0
 11 14  1  0  0  0  0
 11 19  2  0  0  0  0
 14 27  1  0  0  0  0
 14 28  1  0  0  0  0
 15 29  1  0  0  0  0
 15 30  1  0  0  0  0
 16 21  1  0  0  0  0
 17 22  1  0  0  0  0
 18 23  1  0  0  0  0
 21 31  1  0  0  0  0
 21 32  1  0  0  0  0
 21 33  1  0  0  0  0
 22 34  1  0  0  0  0
 22 35  1  0  0  0  0
 22 36  1  0  0  0  0
 23 37  1  0  0  0  0
 23 38  1  0  0  0  0
 23 39  1  0  0  0  0
M  CHG  2  12  -1  13  -1
M  END
$$$$
