HTS1710-02513488-01
 OpenBabel03232612343D

 37 38  0  0  1  0  0  0  0  0999 V2000
    4.4619  -10.0533  -33.8186 C   0  0  2  0  0  0  0  0  0  0  0  0
    3.8897   -9.0310  -31.5648 C   0  0  2  0  0  0  0  0  0  0  0  0
    2.2267   -8.8403  -33.5421 C   0  0  0  0  0  0  0  0  0  0  0  0
    5.5279   -7.8035  -33.1016 C   0  0  0  0  0  0  0  0  0  0  0  0
    3.1565   -9.4336  -34.3466 C   0  0  0  0  0  0  0  0  0  0  0  0
    4.7430   -7.8175  -31.9801 C   0  0  0  0  0  0  0  0  0  0  0  0
    4.3625  -10.3163  -32.2921 C   0  0  0  0  0  0  0  0  0  0  0  0
    5.6256   -9.0342  -34.0173 C   0  0  0  0  0  0  0  0  0  0  0  0
    2.4142   -8.7818  -32.0139 C   0  0  0  0  0  0  0  0  0  0  0  0
    4.7583  -11.3840  -34.5793 C   0  0  0  0  0  0  0  0  0  0  0  0
    3.9902   -9.2509  -30.0234 C   0  0  0  0  0  0  0  0  0  0  0  0
    0.9440   -8.2489  -34.0909 C   0  0  0  0  0  0  0  0  0  0  0  0
    6.3871   -6.6349  -33.5465 C   0  0  0  0  0  0  0  0  0  0  0  0
    4.2091  -12.3981  -34.1828 O   0  5  0  0  0  0  0  0  0  0  0  0
    4.8583  -10.0096  -29.6247 O   0  5  0  0  0  0  0  0  0  0  0  0
    0.0191   -7.8418  -33.4058 O   0  0  0  0  0  0  0  0  0  0  0  0
    7.2496   -6.7377  -34.4049 O   0  0  0  0  0  0  0  0  0  0  0  0
    4.6072   -6.7706  -31.1456 O   0  5  0  0  0  0  0  0  0  0  0  0
    3.0346   -9.5142  -35.6828 O   0  5  0  0  0  0  0  0  0  0  0  0
    3.2088   -8.6543  -29.2999 O   0  0  0  0  0  0  0  0  0  0  0  0
    5.5274  -11.3424  -35.5256 O   0  0  0  0  0  0  0  0  0  0  0  0
    6.1188   -5.4576  -32.9017 O   0  0  0  0  0  0  0  0  0  0  0  0
    0.9333   -8.2060  -35.4596 O   0  0  0  0  0  0  0  0  0  0  0  0
   -0.0833   -7.4479  -36.1402 C   0  0  0  0  0  0  0  0  0  0  0  0
    6.9158   -4.2924  -33.1846 C   0  0  0  0  0  0  0  0  0  0  0  0
    5.3232  -10.6027  -31.9181 H   0  0  0  0  0  0  0  0  0  0  0  0
    3.6569  -11.1010  -32.1150 H   0  0  0  0  0  0  0  0  0  0  0  0
    5.6138   -8.7013  -35.0342 H   0  0  0  0  0  0  0  0  0  0  0  0
    6.5335   -9.5414  -33.7661 H   0  0  0  0  0  0  0  0  0  0  0  0
    2.1133   -7.8139  -31.6712 H   0  0  0  0  0  0  0  0  0  0  0  0
    1.8169   -9.5620  -31.5901 H   0  0  0  0  0  0  0  0  0  0  0  0
    0.0613   -7.5261  -37.1975 H   0  0  0  0  0  0  0  0  0  0  0  0
   -0.0192   -6.4210  -35.8465 H   0  0  0  0  0  0  0  0  0  0  0  0
   -1.0479   -7.8329  -35.8827 H   0  0  0  0  0  0  0  0  0  0  0  0
    6.5677   -3.4703  -32.5950 H   0  0  0  0  0  0  0  0  0  0  0  0
    6.8329   -4.0471  -34.2229 H   0  0  0  0  0  0  0  0  0  0  0  0
    7.9393   -4.4940  -32.9464 H   0  0  0  0  0  0  0  0  0  0  0  0
  1  5  1  0  0  0  0
  1  7  1  0  0  0  0
  1  8  1  0  0  0  0
  1 10  1  6  0  0  0
  2  6  1  0  0  0  0
  2  7  1  0  0  0  0
  2  9  1  0  0  0  0
  2 11  1  1  0  0  0
  3  5  2  0  0  0  0
  3  9  1  0  0  0  0
  3 12  1  0  0  0  0
  4  6  2  0  0  0  0
  4  8  1  0  0  0  0
  4 13  1  0  0  0  0
  5 19  1  0  0  0  0
  6 18  1  0  0  0  0
  7 26  1  0  0  0  0
  7 27  1  0  0  0  0
  8 28  1  0  0  0  0
  8 29  1  0  0  0  0
  9 30  1  0  0  0  0
  9 31  1  0  0  0  0
 10 14  1  0  0  0  0
 10 21  2  0  0  0  0
 11 15  1  0  0  0  0
 11 20  2  0  0  0  0
 12 16  2  0  0  0  0
 12 23  1  0  0  0  0
 13 17  2  0  0  0  0
 13 22  1  0  0  0  0
 22 25  1  0  0  0  0
 23 24  1  0  0  0  0
 24 32  1  0  0  0  0
 24 33  1  0  0  0  0
 24 34  1  0  0  0  0
 25 35  1  0  0  0  0
 25 36  1  0  0  0  0
 25 37  1  0  0  0  0
M  CHG  4  14  -1  15  -1  18  -1  19  -1
M  END
$$$$
