HTS1710-01971663-01
 OpenBabel03232612343D

 19 19  0  0  0  0  0  0  0  0999 V2000
    2.4832   -9.4238  -34.2904 C   0  0  0  0  0  0  0  0  0  0  0  0
    2.8703   -8.6171  -32.0245 C   0  0  0  0  0  0  0  0  0  0  0  0
    4.7371   -9.2100  -33.4417 N   0  0  0  0  0  0  0  0  0  0  0  0
    3.8896   -9.5129  -34.4532 C   0  0  0  0  0  0  0  0  0  0  0  0
    4.2614   -8.7855  -32.2474 C   0  0  0  0  0  0  0  0  0  0  0  0
    1.9845   -8.9567  -33.0616 C   0  0  0  0  0  0  0  0  0  0  0  0
    1.4976   -9.8254  -35.3533 C   0  0  0  0  0  0  0  0  0  0  0  0
    2.2953   -8.0713  -30.7468 C   0  0  0  0  0  0  0  0  0  0  0  0
    4.5367   -9.9494  -35.7525 C   0  0  0  0  0  0  0  0  0  0  0  0
    5.3008   -8.5042  -31.1819 C   0  0  0  0  0  0  0  0  0  0  0  0
    1.9503  -10.2313  -36.4104 O   0  5  0  0  0  0  0  0  0  0  0  0
    1.9400   -8.8772  -29.9030 O   0  5  0  0  0  0  0  0  0  0  0  0
    4.5426   -9.1566  -36.6799 O   0  5  0  0  0  0  0  0  0  0  0  0
    5.3928   -9.2915  -30.2537 O   0  5  0  0  0  0  0  0  0  0  0  0
    0.3142   -9.7448  -35.0704 O   0  0  0  0  0  0  0  0  0  0  0  0
    2.2510   -6.8576  -30.6328 O   0  0  0  0  0  0  0  0  0  0  0  0
    6.0036   -7.5185  -31.3316 O   0  0  0  0  0  0  0  0  0  0  0  0
    5.0387  -11.0614  -35.7822 O   0  0  0  0  0  0  0  0  0  0  0  0
    0.9664   -8.8631  -32.9209 H   0  0  0  0  0  0  0  0  0  0  0  0
  1  4  2  0  0  0  0
  1  6  1  0  0  0  0
  1  7  1  0  0  0  0
  2  5  1  0  0  0  0
  2  6  2  0  0  0  0
  2  8  1  0  0  0  0
  3  4  1  0  0  0  0
  3  5  2  0  0  0  0
  4  9  1  0  0  0  0
  5 10  1  0  0  0  0
  6 19  1  0  0  0  0
  7 11  1  0  0  0  0
  7 15  2  0  0  0  0
  8 12  1  0  0  0  0
  8 16  2  0  0  0  0
  9 13  1  0  0  0  0
  9 18  2  0  0  0  0
 10 14  1  0  0  0  0
 10 17  2  0  0  0  0
M  CHG  4  11  -1  12  -1  13  -1  14  -1
M  END
$$$$
