HTS1710-05334052-01
 OpenBabel03232612353D

 40 42  0  0  0  0  0  0  0  0999 V2000
    5.7587  -13.7915  -27.6532 C   0  0  0  0  0  0  0  0  0  0  0  0
    5.1248  -13.1231  -28.8885 C   0  0  0  0  0  0  0  0  0  0  0  0
    3.7845  -13.6401  -29.2000 N   0  0  0  0  0  0  0  0  0  0  0  0
    3.1103  -14.4980  -28.3266 N   0  0  0  0  0  0  0  0  0  0  0  0
    1.9524  -14.7235  -28.9564 C   0  0  0  0  0  0  0  0  0  0  0  0
    1.8569  -14.0337  -30.2134 C   0  0  0  0  0  0  0  0  0  0  0  0
    0.8746  -13.9778  -31.2025 C   0  0  0  0  0  0  0  0  0  0  0  0
    1.1482  -13.1834  -32.3361 C   0  0  0  0  0  0  0  0  0  0  0  0
    2.3680  -12.4638  -32.4587 C   0  0  0  0  0  0  0  0  0  0  0  0
    2.5427  -11.7261  -33.6297 N   0  0  0  0  0  0  0  0  0  0  0  0
    3.7251  -11.5382  -34.3434 C   0  0  0  0  0  0  0  0  0  0  0  0
    4.7726  -12.0181  -33.9462 O   0  0  0  0  0  0  0  0  0  0  0  0
    3.6445  -10.7030  -35.5674 C   0  0  0  0  0  0  0  0  0  0  0  0
    2.6680  -10.8144  -36.5041 N   0  0  0  0  0  0  0  0  0  0  0  0
    2.9879   -9.8870  -37.3919 C   0  0  0  0  0  0  0  0  0  0  0  0
    4.1199   -9.1411  -37.1355 O   0  0  0  0  0  0  0  0  0  0  0  0
    4.5010   -9.7100  -35.9532 C   0  0  0  0  0  0  0  0  0  0  0  0
    5.7433   -9.2379  -35.2420 C   0  0  0  0  0  0  0  0  0  0  0  0
    5.3600   -8.5294  -34.0473 O   0  0  0  0  0  0  0  0  0  0  0  0
    6.4022   -7.7113  -33.4754 C   0  0  0  0  0  0  0  0  0  0  0  0
    5.9181   -6.9558  -32.2272 C   0  0  0  0  0  0  0  0  0  0  0  0
    5.4666   -5.8383  -32.4050 O   0  5  0  0  0  0  0  0  0  0  0  0
    6.0574   -7.4969  -31.1437 O   0  0  0  0  0  0  0  0  0  0  0  0
    3.3462  -12.5725  -31.4312 C   0  0  0  0  0  0  0  0  0  0  0  0
    3.0268  -13.3667  -30.3237 C   0  0  0  0  0  0  0  0  0  0  0  0
    6.7284  -13.3737  -27.4799 H   0  0  0  0  0  0  0  0  0  0  0  0
    5.8491  -14.8439  -27.8241 H   0  0  0  0  0  0  0  0  0  0  0  0
    5.1389  -13.6210  -26.7979 H   0  0  0  0  0  0  0  0  0  0  0  0
    5.7604  -13.2943  -29.7321 H   0  0  0  0  0  0  0  0  0  0  0  0
    5.0216  -12.0809  -28.6695 H   0  0  0  0  0  0  0  0  0  0  0  0
    1.2063  -15.3288  -28.5796 H   0  0  0  0  0  0  0  0  0  0  0  0
   -0.0136  -14.4950  -31.1092 H   0  0  0  0  0  0  0  0  0  0  0  0
    0.4482  -13.1235  -33.0919 H   0  0  0  0  0  0  0  0  0  0  0  0
    1.7394  -11.2883  -33.9934 H   0  0  0  0  0  0  0  0  0  0  0  0
    2.4172   -9.7289  -38.2370 H   0  0  0  0  0  0  0  0  0  0  0  0
    6.2978   -8.5855  -35.8836 H   0  0  0  0  0  0  0  0  0  0  0  0
    6.3531  -10.0784  -34.9836 H   0  0  0  0  0  0  0  0  0  0  0  0
    6.7244   -7.0001  -34.2070 H   0  0  0  0  0  0  0  0  0  0  0  0
    7.2057   -8.3546  -33.1828 H   0  0  0  0  0  0  0  0  0  0  0  0
    4.2537  -12.0860  -31.4996 H   0  0  0  0  0  0  0  0  0  0  0  0
  1  2  1  0  0  0  0
  1 26  1  0  0  0  0
  1 27  1  0  0  0  0
  1 28  1  0  0  0  0
  2  3  1  0  0  0  0
  2 29  1  0  0  0  0
  2 30  1  0  0  0  0
  3  4  1  0  0  0  0
  3 25  1  0  0  0  0
  4  5  2  0  0  0  0
  5  6  1  0  0  0  0
  5 31  1  0  0  0  0
  6  7  2  0  0  0  0
  6 25  1  0  0  0  0
  7  8  1  0  0  0  0
  7 32  1  0  0  0  0
  8  9  2  0  0  0  0
  8 33  1  0  0  0  0
  9 10  1  0  0  0  0
  9 24  1  0  0  0  0
 10 11  1  0  0  0  0
 10 34  1  0  0  0  0
 11 12  2  0  0  0  0
 11 13  1  0  0  0  0
 13 14  1  0  0  0  0
 13 17  2  0  0  0  0
 14 15  2  0  0  0  0
 15 16  1  0  0  0  0
 15 35  1  0  0  0  0
 16 17  1  0  0  0  0
 17 18  1  0  0  0  0
 18 19  1  0  0  0  0
 18 36  1  0  0  0  0
 18 37  1  0  0  0  0
 19 20  1  0  0  0  0
 20 21  1  0  0  0  0
 20 38  1  0  0  0  0
 20 39  1  0  0  0  0
 21 22  1  0  0  0  0
 21 23  2  0  0  0  0
 24 25  2  0  0  0  0
 24 40  1  0  0  0  0
M  CHG  1  22  -1
M  END
$$$$
