HTS1710-05410667-01
 OpenBabel03232612363D

 44 45  0  0  1  0  0  0  0  0999 V2000
    0.9806   -9.7162  -34.8626 C   0  0  0  0  0  0  0  0  0  0  0  0
    1.9224  -10.4225  -35.8665 C   0  0  0  0  0  0  0  0  0  0  0  0
    1.6860  -11.9535  -35.8537 C   0  0  0  0  0  0  0  0  0  0  0  0
    3.3713  -10.0674  -35.5809 C   0  0  0  0  0  0  0  0  0  0  0  0
    4.0060   -9.1472  -36.3775 O   0  0  0  0  0  0  0  0  0  0  0  0
    5.2488   -9.1090  -35.8057 C   0  0  0  0  0  0  0  0  0  0  0  0
    5.4013   -9.9451  -34.7314 C   0  0  0  0  0  0  0  0  0  0  0  0
    4.1498  -10.5971  -34.5722 C   0  0  0  0  0  0  0  0  0  0  0  0
    3.8230  -11.6146  -33.5452 C   0  0  0  0  0  0  0  0  0  0  0  0
    4.1831  -12.7767  -33.6152 O   0  0  0  0  0  0  0  0  0  0  0  0
    3.0730  -11.2060  -32.4513 N   0  0  0  0  0  0  0  0  0  0  0  0
    2.6881  -12.1225  -31.3713 C   0  0  0  0  0  0  0  0  0  0  0  0
    3.7768  -12.1397  -30.2608 C   0  0  2  0  0  0  0  0  0  0  0  0
    3.6828  -13.4381  -29.3915 C   0  0  0  0  0  0  0  0  0  0  0  0
    4.9122  -13.6176  -28.4570 C   0  0  0  0  0  0  0  0  0  0  0  0
    4.7838  -14.9064  -27.6121 C   0  0  0  0  0  0  0  0  0  0  0  0
    3.5441  -14.8481  -26.8783 O   0  0  0  0  0  0  0  0  0  0  0  0
    2.3636  -14.8430  -27.7075 C   0  0  0  0  0  0  0  0  0  0  0  0
    2.3692  -13.5550  -28.5650 C   0  0  0  0  0  0  0  0  0  0  0  0
    3.7669  -10.8476  -29.4119 C   0  0  0  0  0  0  0  0  0  0  0  0
    2.6924  -10.3180  -29.1867 O   0  5  0  0  0  0  0  0  0  0  0  0
    4.8501  -10.4071  -29.0650 O   0  0  0  0  0  0  0  0  0  0  0  0
   -0.0337   -9.9785  -35.0800 H   0  0  0  0  0  0  0  0  0  0  0  0
    1.1006   -8.6562  -34.9461 H   0  0  0  0  0  0  0  0  0  0  0  0
    1.2235  -10.0253  -33.8676 H   0  0  0  0  0  0  0  0  0  0  0  0
    1.6976  -10.0746  -36.8531 H   0  0  0  0  0  0  0  0  0  0  0  0
    1.9013  -12.3396  -34.8793 H   0  0  0  0  0  0  0  0  0  0  0  0
    2.3279  -12.4195  -36.5719 H   0  0  0  0  0  0  0  0  0  0  0  0
    0.6655  -12.1589  -36.1012 H   0  0  0  0  0  0  0  0  0  0  0  0
    6.0068   -8.5017  -36.1543 H   0  0  0  0  0  0  0  0  0  0  0  0
    6.2491  -10.0743  -34.1574 H   0  0  0  0  0  0  0  0  0  0  0  0
    2.7882  -10.2652  -32.3976 H   0  0  0  0  0  0  0  0  0  0  0  0
    2.5753  -13.1092  -31.7697 H   0  0  0  0  0  0  0  0  0  0  0  0
    1.7642  -11.7896  -30.9465 H   0  0  0  0  0  0  0  0  0  0  0  0
    4.7301  -12.1613  -30.7464 H   0  0  0  0  0  0  0  0  0  0  0  0
    3.6744  -14.2324  -30.1084 H   0  0  0  0  0  0  0  0  0  0  0  0
    4.9791  -12.7747  -27.8014 H   0  0  0  0  0  0  0  0  0  0  0  0
    5.7915  -13.6933  -29.0620 H   0  0  0  0  0  0  0  0  0  0  0  0
    5.6050  -14.9741  -26.9294 H   0  0  0  0  0  0  0  0  0  0  0  0
    4.7939  -15.7660  -28.2491 H   0  0  0  0  0  0  0  0  0  0  0  0
    1.4895  -14.8617  -27.0906 H   0  0  0  0  0  0  0  0  0  0  0  0
    2.3581  -15.7048  -28.3417 H   0  0  0  0  0  0  0  0  0  0  0  0
    2.2854  -12.7053  -27.9201 H   0  0  0  0  0  0  0  0  0  0  0  0
    1.5430  -13.5948  -29.2437 H   0  0  0  0  0  0  0  0  0  0  0  0
  1  2  1  0  0  0  0
  1 23  1  0  0  0  0
  1 24  1  0  0  0  0
  1 25  1  0  0  0  0
  2  3  1  0  0  0  0
  2  4  1  0  0  0  0
  2 26  1  0  0  0  0
  3 27  1  0  0  0  0
  3 28  1  0  0  0  0
  3 29  1  0  0  0  0
  4  5  1  0  0  0  0
  4  8  2  0  0  0  0
  5  6  1  0  0  0  0
  6  7  2  0  0  0  0
  6 30  1  0  0  0  0
  7  8  1  0  0  0  0
  7 31  1  0  0  0  0
  8  9  1  0  0  0  0
  9 10  2  0  0  0  0
  9 11  1  0  0  0  0
 11 12  1  0  0  0  0
 11 32  1  0  0  0  0
 12 13  1  0  0  0  0
 12 33  1  0  0  0  0
 12 34  1  0  0  0  0
 13 14  1  0  0  0  0
 13 20  1  0  0  0  0
 13 35  1  6  0  0  0
 14 15  1  0  0  0  0
 14 19  1  0  0  0  0
 14 36  1  0  0  0  0
 15 16  1  0  0  0  0
 15 37  1  0  0  0  0
 15 38  1  0  0  0  0
 16 17  1  0  0  0  0
 16 39  1  0  0  0  0
 16 40  1  0  0  0  0
 17 18  1  0  0  0  0
 18 19  1  0  0  0  0
 18 41  1  0  0  0  0
 18 42  1  0  0  0  0
 19 43  1  0  0  0  0
 19 44  1  0  0  0  0
 20 21  1  0  0  0  0
 20 22  2  0  0  0  0
M  CHG  1  21  -1
M  END
$$$$
