HTS1710-01968295-01
 OpenBabel03232612363D

 27 27  0  0  0  0  0  0  0  0999 V2000
    4.5217  -10.0555  -35.8142 S   0  0  0  0  0  0  0  0  0  0  0  0
    4.0403  -10.3882  -29.5225 S   0  0  0  0  0  0  0  0  0  0  0  0
    2.1742  -12.5460  -33.1455 S   0  0  0  0  0  0  0  0  0  0  0  0
    1.4663  -13.7677  -32.1252 C   0  0  0  0  0  0  0  0  0  0  0  0
    0.8809  -12.9521  -34.2366 C   0  0  0  0  0  0  0  0  0  0  0  0
    0.4094  -14.3986  -32.6022 N   0  0  0  0  0  0  0  0  0  0  0  0
    0.0673  -13.9226  -33.8550 N   0  0  0  0  0  0  0  0  0  0  0  0
    2.7726  -11.6659  -29.7358 C   0  0  0  0  0  0  0  0  0  0  0  0
    3.2926  -11.3777  -35.9950 C   0  0  0  0  0  0  0  0  0  0  0  0
    4.2111   -9.1504  -36.9081 O   0  0  0  0  0  1  0  0  0  0  0  0
    4.8630  -10.9166  -28.4473 O   0  0  0  0  0  1  0  0  0  0  0  0
    4.2439   -9.5254  -34.4902 O   0  0  0  0  0  0  0  0  0  0  0  0
    3.2754   -9.2029  -29.1738 O   0  0  0  0  0  0  0  0  0  0  0  0
    4.6964  -10.3340  -30.8180 O   0  0  0  0  0  0  0  0  0  0  0  0
    5.7929  -10.7478  -35.9364 O   0  0  0  0  0  0  0  0  0  0  0  0
    2.0423  -14.2412  -30.5320 S   0  0  0  0  0  0  0  0  0  0  0  0
    0.6494  -12.2515  -35.8344 S   0  0  0  0  0  0  0  0  0  0  0  0
    3.3715  -13.0015  -30.2294 C   0  0  0  0  0  0  0  0  0  0  0  0
    1.8517  -10.8533  -35.8243 C   0  0  0  0  0  0  0  0  0  0  0  0
    2.0550  -11.3239  -30.4520 H   0  0  0  0  0  0  0  0  0  0  0  0
    2.3173  -11.8408  -28.7834 H   0  0  0  0  0  0  0  0  0  0  0  0
    3.4783  -12.1261  -35.2530 H   0  0  0  0  0  0  0  0  0  0  0  0
    3.3832  -11.7811  -36.9818 H   0  0  0  0  0  0  0  0  0  0  0  0
    4.0427  -13.3807  -29.4874 H   0  0  0  0  0  0  0  0  0  0  0  0
    3.8925  -12.8258  -31.1474 H   0  0  0  0  0  0  0  0  0  0  0  0
    1.7754  -10.3301  -34.8940 H   0  0  0  0  0  0  0  0  0  0  0  0
    1.6243  -10.1958  -36.6373 H   0  0  0  0  0  0  0  0  0  0  0  0
  1  9  1  0  0  0  0
  1 10  1  0  0  0  0
  1 12  2  0  0  0  0
  1 15  2  0  0  0  0
  2  8  1  0  0  0  0
  2 11  1  0  0  0  0
  2 13  2  0  0  0  0
  2 14  2  0  0  0  0
  3  5  1  0  0  0  0
  3  4  1  0  0  0  0
  4 16  1  0  0  0  0
  4  6  2  0  0  0  0
  5 17  1  0  0  0  0
  5  7  2  0  0  0  0
  6  7  1  0  0  0  0
  8 18  1  0  0  0  0
  8 20  1  0  0  0  0
  8 21  1  0  0  0  0
  9 19  1  0  0  0  0
  9 22  1  0  0  0  0
  9 23  1  0  0  0  0
 16 18  1  0  0  0  0
 17 19  1  0  0  0  0
 18 24  1  0  0  0  0
 18 25  1  0  0  0  0
 19 26  1  0  0  0  0
 19 27  1  0  0  0  0
M  END
$$$$
