HTS1710-04762211-01
 OpenBabel03232612343D

 41 43  0  0  1  0  0  0  0  0999 V2000
    3.4819  -10.7998  -34.3491 C   0  0  0  0  0  0  0  0  0  0  0  0
    3.5596  -10.5006  -32.9022 N   0  0  0  0  0  0  0  0  0  0  0  0
    4.9419  -10.2568  -32.4296 C   0  0  0  0  0  0  0  0  0  0  0  0
    5.4096   -8.8516  -32.7147 C   0  0  0  0  0  0  0  0  0  0  0  0
    6.0175   -8.4574  -33.8779 C   0  0  0  0  0  0  0  0  0  0  0  0
    6.2680   -7.0705  -33.7085 C   0  0  0  0  0  0  0  0  0  0  0  0
    6.9152   -6.1755  -34.6982 C   0  0  0  0  0  0  0  0  0  0  0  0
    7.0845   -5.0061  -34.4008 O   0  5  0  0  0  0  0  0  0  0  0  0
    7.2422   -6.6722  -35.7616 O   0  0  0  0  0  0  0  0  0  0  0  0
    5.7718   -6.7974  -32.4487 C   0  0  0  0  0  0  0  0  0  0  0  0
    5.7807   -5.4491  -31.7752 C   0  0  0  0  0  0  0  0  0  0  0  0
    5.2259   -7.8661  -31.7844 O   0  0  0  0  0  0  0  0  0  0  0  0
    2.4672  -10.3220  -32.0236 C   0  0  0  0  0  0  0  0  0  0  0  0
    1.3267  -10.5113  -32.4113 O   0  0  0  0  0  0  0  0  0  0  0  0
    2.7420   -9.8824  -30.6108 C   0  0  0  0  0  0  0  0  0  0  0  0
    2.5026   -8.6559  -30.0717 N   0  0  0  0  0  0  0  0  0  0  0  0
    2.8704   -8.7796  -28.8098 C   0  0  0  0  0  0  0  0  0  0  0  0
    3.3494  -10.0093  -28.4230 O   0  0  0  0  0  0  0  0  0  0  0  0
    3.2463  -10.6793  -29.6117 C   0  0  0  0  0  0  0  0  0  0  0  0
    3.7058  -12.1211  -29.7331 C   0  0  2  0  0  0  0  0  0  0  0  0
    2.6828  -13.2005  -29.3129 C   0  0  0  0  0  0  0  0  0  0  0  0
    3.5494  -14.3345  -28.7316 C   0  0  0  0  0  0  0  0  0  0  0  0
    4.9877  -13.7868  -28.7817 C   0  0  0  0  0  0  0  0  0  0  0  0
    4.8013  -12.3657  -28.8369 O   0  0  0  0  0  0  0  0  0  0  0  0
    4.4707  -10.8801  -34.7503 H   0  0  0  0  0  0  0  0  0  0  0  0
    2.9572  -10.0123  -34.8485 H   0  0  0  0  0  0  0  0  0  0  0  0
    2.9618  -11.7234  -34.4950 H   0  0  0  0  0  0  0  0  0  0  0  0
    5.5989  -10.9436  -32.9211 H   0  0  0  0  0  0  0  0  0  0  0  0
    4.9520  -10.3942  -31.3685 H   0  0  0  0  0  0  0  0  0  0  0  0
    6.2438   -9.0415  -34.6980 H   0  0  0  0  0  0  0  0  0  0  0  0
    6.2381   -4.7302  -32.4223 H   0  0  0  0  0  0  0  0  0  0  0  0
    6.3348   -5.5104  -30.8619 H   0  0  0  0  0  0  0  0  0  0  0  0
    4.7756   -5.1497  -31.5632 H   0  0  0  0  0  0  0  0  0  0  0  0
    2.8017   -7.9922  -28.1463 H   0  0  0  0  0  0  0  0  0  0  0  0
    3.9219  -12.2078  -30.7774 H   0  0  0  0  0  0  0  0  0  0  0  0
    2.1247  -13.5445  -30.1585 H   0  0  0  0  0  0  0  0  0  0  0  0
    1.9632  -12.8331  -28.6114 H   0  0  0  0  0  0  0  0  0  0  0  0
    3.4612  -15.2200  -29.3257 H   0  0  0  0  0  0  0  0  0  0  0  0
    3.2521  -14.6056  -27.7401 H   0  0  0  0  0  0  0  0  0  0  0  0
    5.5016  -14.1396  -29.6515 H   0  0  0  0  0  0  0  0  0  0  0  0
    5.5821  -14.0978  -27.9480 H   0  0  0  0  0  0  0  0  0  0  0  0
  1  2  1  0  0  0  0
  1 25  1  0  0  0  0
  1 26  1  0  0  0  0
  1 27  1  0  0  0  0
  2  3  1  0  0  0  0
  2 13  1  0  0  0  0
  3  4  1  0  0  0  0
  3 28  1  0  0  0  0
  3 29  1  0  0  0  0
  4  5  2  0  0  0  0
  4 12  1  0  0  0  0
  5  6  1  0  0  0  0
  5 30  1  0  0  0  0
  6  7  1  0  0  0  0
  6 10  2  0  0  0  0
  7  8  1  0  0  0  0
  7  9  2  0  0  0  0
 10 11  1  0  0  0  0
 10 12  1  0  0  0  0
 11 31  1  0  0  0  0
 11 32  1  0  0  0  0
 11 33  1  0  0  0  0
 13 14  2  0  0  0  0
 13 15  1  0  0  0  0
 15 16  1  0  0  0  0
 15 19  2  0  0  0  0
 16 17  2  0  0  0  0
 17 18  1  0  0  0  0
 17 34  1  0  0  0  0
 18 19  1  0  0  0  0
 19 20  1  0  0  0  0
 20 21  1  0  0  0  0
 20 24  1  0  0  0  0
 20 35  1  6  0  0  0
 21 22  1  0  0  0  0
 21 36  1  0  0  0  0
 21 37  1  0  0  0  0
 22 23  1  0  0  0  0
 22 38  1  0  0  0  0
 22 39  1  0  0  0  0
 23 24  1  0  0  0  0
 23 40  1  0  0  0  0
 23 41  1  0  0  0  0
M  CHG  1   8  -1
M  END
$$$$
