HTS1710-00483312-01
 OpenBabel03232612343D

 27 28  0  0  0  0  0  0  0  0999 V2000
    5.4992   -8.8778  -34.2207 C   0  0  0  0  0  0  0  0  0  0  0  0
    6.0500   -7.6911  -33.7856 C   0  0  0  0  0  0  0  0  0  0  0  0
    4.9676   -9.6708  -33.2368 O   0  0  0  0  0  0  0  0  0  0  0  0
    5.4583   -9.3688  -35.6509 C   0  0  0  0  0  0  0  0  0  0  0  0
    5.8727   -7.7340  -32.3779 C   0  0  0  0  0  0  0  0  0  0  0  0
    6.6888   -6.5902  -34.5501 C   0  0  0  0  0  0  0  0  0  0  0  0
    5.2309   -8.9199  -32.1175 C   0  0  0  0  0  0  0  0  0  0  0  0
    4.1252   -9.2252  -36.1860 O   0  0  0  0  0  0  0  0  0  0  0  0
    6.9296   -5.5628  -33.9406 O   0  5  0  0  0  0  0  0  0  0  0  0
    6.9307   -6.7623  -35.7307 O   0  0  0  0  0  0  0  0  0  0  0  0
    4.8366   -9.3930  -30.7692 C   0  0  0  0  0  0  0  0  0  0  0  0
    3.0328   -9.9468  -35.7445 C   0  0  0  0  0  0  0  0  0  0  0  0
    4.8663  -10.5945  -30.5594 O   0  5  0  0  0  0  0  0  0  0  0  0
    4.5070   -8.5547  -29.9472 O   0  0  0  0  0  0  0  0  0  0  0  0
    3.2501  -11.2529  -35.2734 C   0  0  0  0  0  0  0  0  0  0  0  0
    1.7216   -9.4222  -35.7626 C   0  0  0  0  0  0  0  0  0  0  0  0
    2.1745  -12.0279  -34.8113 C   0  0  0  0  0  0  0  0  0  0  0  0
    0.6482  -10.2002  -35.2986 C   0  0  0  0  0  0  0  0  0  0  0  0
    0.8738  -11.5002  -34.8218 C   0  0  0  0  0  0  0  0  0  0  0  0
    5.7419  -10.4001  -35.6794 H   0  0  0  0  0  0  0  0  0  0  0  0
    6.1369   -8.7884  -36.2404 H   0  0  0  0  0  0  0  0  0  0  0  0
    6.1657   -7.0210  -31.6916 H   0  0  0  0  0  0  0  0  0  0  0  0
    4.2049  -11.6443  -35.2672 H   0  0  0  0  0  0  0  0  0  0  0  0
    1.5523   -8.4678  -36.1167 H   0  0  0  0  0  0  0  0  0  0  0  0
    2.3401  -12.9855  -34.4640 H   0  0  0  0  0  0  0  0  0  0  0  0
   -0.3090   -9.8145  -35.3085 H   0  0  0  0  0  0  0  0  0  0  0  0
    0.0836  -12.0684  -34.4787 H   0  0  0  0  0  0  0  0  0  0  0  0
  1  2  2  0  0  0  0
  1  3  1  0  0  0  0
  1  4  1  0  0  0  0
  2  5  1  0  0  0  0
  2  6  1  0  0  0  0
  3  7  1  0  0  0  0
  4  8  1  0  0  0  0
  4 20  1  0  0  0  0
  4 21  1  0  0  0  0
  5  7  2  0  0  0  0
  5 22  1  0  0  0  0
  6  9  1  0  0  0  0
  6 10  2  0  0  0  0
  7 11  1  0  0  0  0
  8 12  1  0  0  0  0
 11 13  1  0  0  0  0
 11 14  2  0  0  0  0
 12 15  2  0  0  0  0
 12 16  1  0  0  0  0
 15 17  1  0  0  0  0
 15 23  1  0  0  0  0
 16 18  2  0  0  0  0
 16 24  1  0  0  0  0
 17 19  2  0  0  0  0
 17 25  1  0  0  0  0
 18 19  1  0  0  0  0
 18 26  1  0  0  0  0
 19 27  1  0  0  0  0
M  CHG  2   9  -1  13  -1
M  END
$$$$
