HTS1710-02595023-01
 OpenBabel03232612353D

 37 38  0  0  1  0  0  0  0  0999 V2000
    2.8490  -10.3327  -31.9806 N   0  0  0  0  0  0  0  0  0  0  0  0
    2.6893  -11.6519  -32.3904 C   0  0  0  0  0  0  0  0  0  0  0  0
    2.0531   -9.4197  -32.6712 C   0  0  0  0  0  0  0  0  0  0  0  0
    1.2627  -10.1239  -33.7104 C   0  0  0  0  0  0  0  0  0  0  0  0
    1.4710  -11.8618  -33.6789 S   0  0  0  0  0  0  0  0  0  0  0  0
    3.8000   -9.8989  -30.9191 C   0  0  2  0  0  0  0  0  0  0  0  0
    3.0752   -9.5997  -29.5734 C   0  0  0  0  0  0  0  0  0  0  0  0
    0.3767   -9.5508  -34.5996 C   0  0  0  0  0  0  0  0  0  0  0  0
    4.7002   -8.7523  -31.4345 C   0  0  0  0  0  0  0  0  0  0  0  0
    3.5448  -12.9727  -31.8111 S   0  0  0  0  0  0  0  0  0  0  0  0
   -1.4925   -4.1412  -35.7986 C   0  0  0  0  0  0  0  0  0  0  0  0
    3.3587  -10.6733  -28.5128 C   0  0  0  0  0  0  0  0  0  0  0  0
    1.9952   -8.2326  -32.4044 O   0  0  0  0  0  0  0  0  0  0  0  0
   -1.0206   -5.5422  -35.4899 C   0  0  0  0  0  0  0  0  0  0  0  0
    5.4508   -8.9794  -32.3683 O   0  5  0  0  0  0  0  0  0  0  0  0
   -0.7955   -3.1560  -35.6121 O   0  0  0  0  0  0  0  0  0  0  0  0
    4.4995  -11.0973  -28.4366 O   0  5  0  0  0  0  0  0  0  0  0  0
   -0.0861   -8.1733  -34.9446 C   0  0  0  0  0  0  0  0  0  0  0  0
   -0.4819   -6.3425  -36.5145 C   0  0  0  0  0  0  0  0  0  0  0  0
   -1.1215   -6.0864  -34.1934 C   0  0  0  0  0  0  0  0  0  0  0  0
    4.5954   -7.6767  -30.8686 O   0  0  0  0  0  0  0  0  0  0  0  0
   -2.7643   -4.0859  -36.3012 O   0  0  0  0  0  0  0  0  0  0  0  0
    2.4203  -11.0432  -27.8292 O   0  0  0  0  0  0  0  0  0  0  0  0
   -0.6700   -7.3896  -33.9305 C   0  0  0  0  0  0  0  0  0  0  0  0
   -0.0302   -7.6445  -36.2481 C   0  0  0  0  0  0  0  0  0  0  0  0
   -3.7687   -4.9760  -35.7813 C   0  0  0  0  0  0  0  0  0  0  0  0
    4.4586  -10.7104  -30.6896 H   0  0  0  0  0  0  0  0  0  0  0  0
    2.0207   -9.5602  -29.7509 H   0  0  0  0  0  0  0  0  0  0  0  0
    3.4419   -8.6655  -29.2024 H   0  0  0  0  0  0  0  0  0  0  0  0
   -0.0906  -10.2639  -35.1810 H   0  0  0  0  0  0  0  0  0  0  0  0
   -0.4182   -5.9674  -37.4738 H   0  0  0  0  0  0  0  0  0  0  0  0
   -1.5304   -5.5227  -33.4318 H   0  0  0  0  0  0  0  0  0  0  0  0
   -0.7674   -7.7791  -32.9798 H   0  0  0  0  0  0  0  0  0  0  0  0
    0.3472   -8.2207  -37.0166 H   0  0  0  0  0  0  0  0  0  0  0  0
   -4.6970   -4.7983  -36.2829 H   0  0  0  0  0  0  0  0  0  0  0  0
   -3.8911   -4.8022  -34.7326 H   0  0  0  0  0  0  0  0  0  0  0  0
   -3.4648   -5.9893  -35.9418 H   0  0  0  0  0  0  0  0  0  0  0  0
  1  2  1  0  0  0  0
  1  3  1  0  0  0  0
  1  6  1  0  0  0  0
  2  5  1  0  0  0  0
  2 10  2  0  0  0  0
  3  4  1  0  0  0  0
  3 13  2  0  0  0  0
  4  5  1  0  0  0  0
  4  8  2  0  0  0  0
  6  7  1  0  0  0  0
  6  9  1  0  0  0  0
  6 27  1  1  0  0  0
  7 12  1  0  0  0  0
  7 28  1  0  0  0  0
  7 29  1  0  0  0  0
  8 18  1  0  0  0  0
  8 30  1  0  0  0  0
  9 15  1  0  0  0  0
  9 21  2  0  0  0  0
 11 14  1  0  0  0  0
 11 16  2  0  0  0  0
 11 22  1  0  0  0  0
 12 17  1  0  0  0  0
 12 23  2  0  0  0  0
 14 19  2  0  0  0  0
 14 20  1  0  0  0  0
 18 24  1  0  0  0  0
 18 25  2  0  0  0  0
 19 25  1  0  0  0  0
 19 31  1  0  0  0  0
 20 24  2  0  0  0  0
 20 32  1  0  0  0  0
 22 26  1  0  0  0  0
 24 33  1  0  0  0  0
 25 34  1  0  0  0  0
 26 35  1  0  0  0  0
 26 36  1  0  0  0  0
 26 37  1  0  0  0  0
M  CHG  2  15  -1  17  -1
M  END
$$$$
