HTS1710-01011638-01
 OpenBabel03232612353D

 50 52  0  0  1  0  0  0  0  0999 V2000
    3.4824  -12.2872  -29.7138 N   0  0  0  0  0  0  0  0  0  0  0  0
    3.1943  -12.4667  -28.3700 C   0  0  0  0  0  0  0  0  0  0  0  0
    3.0938  -11.6218  -27.4987 O   0  0  0  0  0  0  0  0  0  0  0  0
    3.0563  -14.0052  -28.5363 C   0  0  1  0  0  0  0  0  0  0  0  0
    3.4699  -13.7252  -30.0172 C   0  0  1  0  0  0  0  0  0  0  0  0
    2.2260  -13.8995  -31.3486 S   0  0  0  0  0  0  0  0  0  0  0  0
    3.3610  -13.0945  -32.5395 C   0  0  0  0  0  0  0  0  0  0  0  0
    3.6255  -11.6589  -32.0727 C   0  0  0  0  0  0  0  0  0  0  0  0
    3.7077  -11.2810  -30.7475 C   0  0  0  0  0  0  0  0  0  0  0  0
    4.0006   -9.8516  -30.2969 C   0  0  0  0  0  0  0  0  0  0  0  0
    5.1408   -9.4443  -30.4126 O   0  5  0  0  0  0  0  0  0  0  0  0
    3.0987   -9.1650  -29.8529 O   0  0  0  0  0  0  0  0  0  0  0  0
    3.7879  -10.7361  -33.2816 C   0  0  0  0  0  0  0  0  0  0  0  0
    2.5468  -10.7079  -34.0172 O   0  0  0  0  0  0  0  0  0  0  0  0
    2.3734   -9.9903  -35.1760 C   0  0  0  0  0  0  0  0  0  0  0  0
    3.2081   -9.2025  -35.5837 O   0  0  0  0  0  0  0  0  0  0  0  0
    1.0529  -10.2489  -35.9254 C   0  0  0  0  0  0  0  0  0  0  0  0
    4.0983  -14.7080  -27.7850 N   0  0  0  0  0  0  0  0  0  0  0  0
    5.4288  -14.3147  -27.8035 C   0  0  0  0  0  0  0  0  0  0  0  0
    6.4261  -15.1320  -26.9748 C   0  0  0  0  0  0  0  0  0  0  0  0
    5.9721  -16.6022  -26.7856 C   0  0  0  0  0  0  0  0  0  0  0  0
    6.8932  -17.4143  -25.9747 N   0  0  0  0  0  0  0  0  0  0  0  0
    6.4300  -18.4571  -25.2142 N   0  0  0  0  0  0  0  0  0  0  0  0
    7.4925  -18.8720  -24.5472 C   0  0  0  0  0  0  0  0  0  0  0  0
    7.4824  -19.9793  -23.5237 C   0  0  0  0  0  0  0  0  0  0  0  0
    8.6601  -18.1124  -24.8787 C   0  0  0  0  0  0  0  0  0  0  0  0
    8.2466  -17.1891  -25.7983 C   0  0  0  0  0  0  0  0  0  0  0  0
   10.0112  -18.2377  -24.3765 N   0  0  0  0  0  0  0  0  0  0  0  0
   10.8354  -17.4259  -24.7858 O   0  5  0  0  0  0  0  0  0  0  0  0
   10.2854  -19.1765  -23.6393 O   0  0  0  0  0  0  0  0  0  0  0  0
    5.7754  -13.3537  -28.4693 O   0  0  0  0  0  0  0  0  0  0  0  0
    2.1865  -14.5681  -28.2689 H   0  0  0  0  0  0  0  0  0  0  0  0
    4.2733  -14.3296  -30.3833 H   0  0  0  0  0  0  0  0  0  0  0  0
    2.9126  -13.0804  -33.5109 H   0  0  0  0  0  0  0  0  0  0  0  0
    4.2818  -13.6371  -32.5894 H   0  0  0  0  0  0  0  0  0  0  0  0
    4.5707  -11.1037  -33.9117 H   0  0  0  0  0  0  0  0  0  0  0  0
    4.0377   -9.7487  -32.9534 H   0  0  0  0  0  0  0  0  0  0  0  0
    0.4752  -10.9732  -35.3904 H   0  0  0  0  0  0  0  0  0  0  0  0
    1.2662  -10.6172  -36.9071 H   0  0  0  0  0  0  0  0  0  0  0  0
    0.5001   -9.3358  -35.9994 H   0  0  0  0  0  0  0  0  0  0  0  0
    3.8446  -15.4912  -27.2449 H   0  0  0  0  0  0  0  0  0  0  0  0
    6.5271  -14.6768  -26.0117 H   0  0  0  0  0  0  0  0  0  0  0  0
    7.3569  -15.1433  -27.5026 H   0  0  0  0  0  0  0  0  0  0  0  0
    5.8861  -17.0546  -27.7514 H   0  0  0  0  0  0  0  0  0  0  0  0
    5.0408  -16.5729  -26.2594 H   0  0  0  0  0  0  0  0  0  0  0  0
    6.4978  -20.3926  -23.4550 H   0  0  0  0  0  0  0  0  0  0  0  0
    7.7719  -19.5872  -22.5711 H   0  0  0  0  0  0  0  0  0  0  0  0
    8.1704  -20.7439  -23.8186 H   0  0  0  0  0  0  0  0  0  0  0  0
    8.8246  -16.4723  -26.2643 H   0  0  0  0  0  0  0  0  0  0  0  0
    9.9295  -17.6196  -25.1384 H   0  0  0  0  0  0  0  0  0  0  0  0
  1  2  1  0  0  0  0
  1  5  1  0  0  0  0
  1  9  1  0  0  0  0
  2  3  2  0  0  0  0
  2  4  1  0  0  0  0
  4  5  1  0  0  0  0
  4 18  1  0  0  0  0
  4 32  1  1  0  0  0
  5  6  1  0  0  0  0
  5 33  1  6  0  0  0
  6  7  1  0  0  0  0
  7  8  1  0  0  0  0
  7 34  1  0  0  0  0
  7 35  1  0  0  0  0
  8  9  2  0  0  0  0
  8 13  1  0  0  0  0
  9 10  1  0  0  0  0
 10 11  1  0  0  0  0
 10 12  2  0  0  0  0
 13 14  1  0  0  0  0
 13 36  1  0  0  0  0
 13 37  1  0  0  0  0
 14 15  1  0  0  0  0
 15 16  2  0  0  0  0
 15 17  1  0  0  0  0
 17 38  1  0  0  0  0
 17 39  1  0  0  0  0
 17 40  1  0  0  0  0
 18 19  1  0  0  0  0
 18 41  1  0  0  0  0
 19 20  1  0  0  0  0
 19 31  2  0  0  0  0
 20 21  1  0  0  0  0
 20 42  1  0  0  0  0
 20 43  1  0  0  0  0
 21 22  1  0  0  0  0
 21 44  1  0  0  0  0
 21 45  1  0  0  0  0
 22 23  1  0  0  0  0
 22 27  1  0  0  0  0
 23 24  2  0  0  0  0
 24 25  1  0  0  0  0
 24 26  1  0  0  0  0
 25 46  1  0  0  0  0
 25 47  1  0  0  0  0
 25 48  1  0  0  0  0
 26 27  2  0  0  0  0
 26 28  1  0  0  0  0
 27 49  1  0  0  0  0
 28 29  1  0  0  0  0
 28 30  2  0  0  0  0
 28 50  1  0  0  0  0
M  CHG  2  11  -1  29  -1
M  END
$$$$
