HTS1710-01458428-01
 OpenBabel03232612353D

 35 34  0  0  0  0  0  0  0  0999 V2000
    3.2073  -11.6414  -28.0113 C   0  0  0  0  0  0  0  0  0  0  0  0
    6.2192  -14.4012  -27.5930 C   0  0  0  0  0  0  0  0  0  0  0  0
    5.4067   -8.6400  -32.3744 C   0  0  0  0  0  0  0  0  0  0  0  0
    3.9811  -13.8880  -28.6178 N   0  3  0  0  0  0  0  0  0  0  0  0
    6.4142  -13.2045  -27.7072 O   0  5  0  0  0  0  0  0  0  0  0  0
    4.2513  -11.1822  -28.4372 O   0  5  0  0  0  0  0  0  0  0  0  0
    5.4087   -8.6402  -31.1557 O   0  5  0  0  0  0  0  0  0  0  0  0
    4.8267  -14.9175  -27.9666 C   0  0  0  0  0  0  0  0  0  0  0  0
    3.2120  -13.1137  -27.6202 C   0  0  0  0  0  0  0  0  0  0  0  0
    2.1652  -11.0311  -27.8635 O   0  0  0  0  0  0  0  0  0  0  0  0
    7.0308  -15.2189  -27.1994 O   0  0  0  0  0  0  0  0  0  0  0  0
    5.7543   -7.7112  -33.0824 O   0  0  0  0  0  0  0  0  0  0  0  0
    4.9486   -9.9248  -33.0773 C   0  0  0  0  0  0  0  0  0  0  0  0
    3.1055  -14.5092  -29.6384 C   0  0  0  0  0  0  0  0  0  0  0  0
    4.3998  -10.9851  -32.0898 C   0  0  0  0  0  0  0  0  0  0  0  0
    2.9378  -13.6224  -30.8961 C   0  0  0  0  0  0  0  0  0  0  0  0
    4.1648  -12.3628  -32.7584 C   0  0  0  0  0  0  0  0  0  0  0  0
    4.2319  -13.5251  -31.7414 C   0  0  0  0  0  0  0  0  0  0  0  0
    4.5901  -13.2240  -29.0958 H   0  0  0  0  0  0  0  0  0  0  0  0
    4.3355  -15.2480  -27.0754 H   0  0  0  0  0  0  0  0  0  0  0  0
    4.9590  -15.7135  -28.6693 H   0  0  0  0  0  0  0  0  0  0  0  0
    3.6643  -13.2251  -26.6569 H   0  0  0  0  0  0  0  0  0  0  0  0
    2.2059  -13.4764  -27.5868 H   0  0  0  0  0  0  0  0  0  0  0  0
    5.7822  -10.3441  -33.6010 H   0  0  0  0  0  0  0  0  0  0  0  0
    4.1535   -9.6622  -33.7434 H   0  0  0  0  0  0  0  0  0  0  0  0
    2.1413  -14.6776  -29.2064 H   0  0  0  0  0  0  0  0  0  0  0  0
    3.5647  -15.4254  -29.9460 H   0  0  0  0  0  0  0  0  0  0  0  0
    3.4699  -10.6343  -31.6934 H   0  0  0  0  0  0  0  0  0  0  0  0
    5.1326  -11.1203  -31.3219 H   0  0  0  0  0  0  0  0  0  0  0  0
    2.6584  -12.6375  -30.5847 H   0  0  0  0  0  0  0  0  0  0  0  0
    2.1864  -14.0739  -31.5097 H   0  0  0  0  0  0  0  0  0  0  0  0
    4.9151  -12.5154  -33.5060 H   0  0  0  0  0  0  0  0  0  0  0  0
    3.1841  -12.3571  -33.1862 H   0  0  0  0  0  0  0  0  0  0  0  0
    5.0627  -13.3650  -31.0863 H   0  0  0  0  0  0  0  0  0  0  0  0
    4.3437  -14.4390  -32.2864 H   0  0  0  0  0  0  0  0  0  0  0  0
  1  6  1  0  0  0  0
  1  9  1  0  0  0  0
  1 10  2  0  0  0  0
  2  8  1  0  0  0  0
  2  5  1  0  0  0  0
  2 11  2  0  0  0  0
  3 13  1  0  0  0  0
  3  7  1  0  0  0  0
  3 12  2  0  0  0  0
  4  9  1  0  0  0  0
  4  8  1  0  0  0  0
  4 14  1  0  0  0  0
  4 19  1  0  0  0  0
  8 20  1  0  0  0  0
  8 21  1  0  0  0  0
  9 22  1  0  0  0  0
  9 23  1  0  0  0  0
 13 15  1  0  0  0  0
 13 24  1  0  0  0  0
 13 25  1  0  0  0  0
 14 16  1  0  0  0  0
 14 26  1  0  0  0  0
 14 27  1  0  0  0  0
 15 17  1  0  0  0  0
 15 28  1  0  0  0  0
 15 29  1  0  0  0  0
 16 18  1  0  0  0  0
 16 30  1  0  0  0  0
 16 31  1  0  0  0  0
 17 18  1  0  0  0  0
 17 32  1  0  0  0  0
 17 33  1  0  0  0  0
 18 34  1  0  0  0  0
 18 35  1  0  0  0  0
M  CHG  4   4   1   5  -1   6  -1   7  -1
M  END
$$$$
