HTS1710-01264993-01
 OpenBabel03232612353D

 51 53  0  0  1  0  0  0  0  0999 V2000
    3.1782  -10.1678  -31.0485 C   0  0  0  0  0  0  0  0  0  0  0  0
    2.7887   -7.7325  -31.6961 C   0  0  0  0  0  0  0  0  0  0  0  0
    3.6114   -8.9957  -31.9183 C   0  0  2  0  0  0  0  0  0  0  0  0
    3.1510  -10.0388  -29.6686 C   0  0  0  0  0  0  0  0  0  0  0  0
    1.3995   -7.7415  -31.6693 C   0  0  0  0  0  0  0  0  0  0  0  0
    3.7987   -9.3125  -33.4185 C   0  0  0  0  0  0  0  0  0  0  0  0
    0.6233   -6.5066  -31.4708 C   0  0  0  0  0  0  0  0  0  0  0  0
    2.7755  -11.1604  -28.7946 C   0  0  0  0  0  0  0  0  0  0  0  0
    3.5384   -6.5804  -31.5422 O   0  0  0  0  0  0  0  0  0  0  0  0
    2.8332  -11.3327  -31.7079 O   0  0  0  0  0  0  0  0  0  0  0  0
    1.4683   -5.3261  -31.3153 C   0  0  0  0  0  0  0  0  0  0  0  0
    2.4492  -12.3728  -29.5430 C   0  0  0  0  0  0  0  0  0  0  0  0
    2.4917  -12.4108  -30.9205 C   0  0  0  0  0  0  0  0  0  0  0  0
    2.8426   -5.4056  -31.3546 C   0  0  0  0  0  0  0  0  0  0  0  0
    5.0270   -9.1541  -34.1130 C   0  0  0  0  0  0  0  0  0  0  0  0
    2.6731   -9.7844  -34.1242 C   0  0  0  0  0  0  0  0  0  0  0  0
   -0.5961   -6.4558  -31.4358 O   0  0  0  0  0  0  0  0  0  0  0  0
    2.7392  -11.1003  -27.5769 O   0  0  0  0  0  0  0  0  0  0  0  0
    0.6284   -8.8425  -31.8057 O   0  0  0  0  0  0  0  0  0  0  0  0
    3.4695   -8.9055  -29.0016 O   0  0  0  0  0  0  0  0  0  0  0  0
    5.0959   -9.4690  -35.4881 C   0  0  0  0  0  0  0  0  0  0  0  0
    2.7448  -10.0927  -35.4903 C   0  0  0  0  0  0  0  0  0  0  0  0
    3.9647   -9.9325  -36.1735 C   0  0  0  0  0  0  0  0  0  0  0  0
    6.1442   -8.7038  -33.4329 O   0  0  0  0  0  0  0  0  0  0  0  0
    2.1466  -13.6849  -31.6453 C   0  0  0  0  0  0  0  0  0  0  0  0
    3.6696   -4.1588  -31.1824 C   0  0  0  0  0  0  0  0  0  0  0  0
    1.6005  -10.5461  -36.1176 O   0  0  0  0  0  0  0  0  0  0  0  0
    0.7643  -13.7190  -31.9841 O   0  0  0  0  0  0  0  0  0  0  0  0
    3.9240   -3.9015  -29.8050 O   0  0  0  0  0  0  0  0  0  0  0  0
    6.6786   -7.3753  -33.5558 C   0  0  0  0  0  0  0  0  0  0  0  0
    0.7224  -11.5255  -35.5336 C   0  0  0  0  0  0  0  0  0  0  0  0
    4.5991   -8.7908  -31.5613 H   0  0  0  0  0  0  0  0  0  0  0  0
    1.0232   -4.4061  -31.1719 H   0  0  0  0  0  0  0  0  0  0  0  0
    2.1796  -13.2241  -29.0258 H   0  0  0  0  0  0  0  0  0  0  0  0
    1.7779   -9.9054  -33.6251 H   0  0  0  0  0  0  0  0  0  0  0  0
   -0.3030   -8.7745  -31.7299 H   0  0  0  0  0  0  0  0  0  0  0  0
    3.3431   -8.8564  -28.0745 H   0  0  0  0  0  0  0  0  0  0  0  0
    5.9887   -9.3565  -35.9935 H   0  0  0  0  0  0  0  0  0  0  0  0
    4.0264  -10.1564  -37.1791 H   0  0  0  0  0  0  0  0  0  0  0  0
    2.3733  -14.5189  -31.0145 H   0  0  0  0  0  0  0  0  0  0  0  0
    2.7206  -13.7310  -32.5471 H   0  0  0  0  0  0  0  0  0  0  0  0
    3.1418   -3.3280  -31.6019 H   0  0  0  0  0  0  0  0  0  0  0  0
    4.6055   -4.2988  -31.6817 H   0  0  0  0  0  0  0  0  0  0  0  0
    0.5623  -14.5541  -32.4345 H   0  0  0  0  0  0  0  0  0  0  0  0
    4.4457   -3.0883  -29.7189 H   0  0  0  0  0  0  0  0  0  0  0  0
    7.5409   -7.2784  -32.9299 H   0  0  0  0  0  0  0  0  0  0  0  0
    5.9380   -6.6638  -33.2554 H   0  0  0  0  0  0  0  0  0  0  0  0
    6.9545   -7.1946  -34.5737 H   0  0  0  0  0  0  0  0  0  0  0  0
   -0.0919  -11.7172  -36.2008 H   0  0  0  0  0  0  0  0  0  0  0  0
    0.3425  -11.1550  -34.6045 H   0  0  0  0  0  0  0  0  0  0  0  0
    1.2637  -12.4323  -35.3616 H   0  0  0  0  0  0  0  0  0  0  0  0
  1  3  1  0  0  0  0
  1  4  2  0  0  0  0
  1 10  1  0  0  0  0
  2  3  1  0  0  0  0
  2  5  2  0  0  0  0
  2  9  1  0  0  0  0
  3  6  1  0  0  0  0
  3 32  1  1  0  0  0
  4  8  1  0  0  0  0
  4 20  1  0  0  0  0
  5  7  1  0  0  0  0
  5 19  1  0  0  0  0
  6 15  2  0  0  0  0
  6 16  1  0  0  0  0
  7 17  2  0  0  0  0
  7 11  1  0  0  0  0
  8 18  2  0  0  0  0
  8 12  1  0  0  0  0
  9 14  1  0  0  0  0
 10 13  1  0  0  0  0
 11 14  2  0  0  0  0
 11 33  1  0  0  0  0
 12 13  2  0  0  0  0
 12 34  1  0  0  0  0
 13 25  1  0  0  0  0
 14 26  1  0  0  0  0
 15 21  1  0  0  0  0
 15 24  1  0  0  0  0
 16 22  2  0  0  0  0
 16 35  1  0  0  0  0
 19 36  1  0  0  0  0
 20 37  1  0  0  0  0
 21 23  2  0  0  0  0
 21 38  1  0  0  0  0
 22 23  1  0  0  0  0
 22 27  1  0  0  0  0
 23 39  1  0  0  0  0
 24 30  1  0  0  0  0
 25 28  1  0  0  0  0
 25 40  1  0  0  0  0
 25 41  1  0  0  0  0
 26 29  1  0  0  0  0
 26 42  1  0  0  0  0
 26 43  1  0  0  0  0
 27 31  1  0  0  0  0
 28 44  1  0  0  0  0
 29 45  1  0  0  0  0
 30 46  1  0  0  0  0
 30 47  1  0  0  0  0
 30 48  1  0  0  0  0
 31 49  1  0  0  0  0
 31 50  1  0  0  0  0
 31 51  1  0  0  0  0
M  END
$$$$
