HTS1710-00574514-01
 OpenBabel03232612353D

 36 37  0  0  1  0  0  0  0  0999 V2000
    3.0827  -10.3399  -32.0020 N   0  0  0  0  0  0  0  0  0  0  0  0
    2.2274   -9.5973  -32.8146 C   0  0  0  0  0  0  0  0  0  0  0  0
    3.9357   -9.6972  -30.9657 C   0  0  2  0  0  0  0  0  0  0  0  0
    3.0944  -11.7018  -32.2881 C   0  0  0  0  0  0  0  0  0  0  0  0
    1.5371  -10.4841  -33.7790 C   0  0  0  0  0  0  0  0  0  0  0  0
    2.0766   -8.3885  -32.7342 O   0  0  0  0  0  0  0  0  0  0  0  0
    3.1618   -9.4598  -29.6355 C   0  0  0  0  0  0  0  0  0  0  0  0
    4.6283   -8.4384  -31.5381 C   0  0  0  0  0  0  0  0  0  0  0  0
    1.9911  -12.1679  -33.6142 S   0  0  0  0  0  0  0  0  0  0  0  0
    4.0769  -12.8496  -31.5602 S   0  0  0  0  0  0  0  0  0  0  0  0
    0.6368   -9.9810  -34.6975 C   0  0  0  0  0  0  0  0  0  0  0  0
    3.3958  -10.5865  -28.6177 C   0  0  0  0  0  0  0  0  0  0  0  0
    5.5945   -8.6224  -32.2592 O   0  5  0  0  0  0  0  0  0  0  0  0
    4.1801   -7.3438  -31.2383 O   0  0  0  0  0  0  0  0  0  0  0  0
    0.0855   -8.6345  -35.0432 C   0  0  0  0  0  0  0  0  0  0  0  0
    4.5170  -11.0604  -28.5600 O   0  5  0  0  0  0  0  0  0  0  0  0
    2.4500  -10.9179  -27.9232 O   0  0  0  0  0  0  0  0  0  0  0  0
   -0.7580   -8.0023  -34.1050 C   0  0  0  0  0  0  0  0  0  0  0  0
    0.3626   -7.9688  -36.2557 C   0  0  0  0  0  0  0  0  0  0  0  0
   -1.3172   -6.7326  -34.3667 C   0  0  0  0  0  0  0  0  0  0  0  0
   -0.1910   -6.7069  -36.5211 C   0  0  0  0  0  0  0  0  0  0  0  0
   -1.0284   -6.0879  -35.5833 C   0  0  0  0  0  0  0  0  0  0  0  0
   -2.1467   -6.0936  -33.4614 O   0  0  0  0  0  0  0  0  0  0  0  0
   -1.5616   -4.8600  -35.8564 O   0  0  0  0  0  0  0  0  0  0  0  0
   -2.3882   -6.5853  -32.1315 C   0  0  0  0  0  0  0  0  0  0  0  0
    4.7214  -10.3721  -30.6977 H   0  0  0  0  0  0  0  0  0  0  0  0
    2.1154   -9.4025  -29.8513 H   0  0  0  0  0  0  0  0  0  0  0  0
    3.5217   -8.5487  -29.2048 H   0  0  0  0  0  0  0  0  0  0  0  0
    0.2446  -10.7230  -35.2980 H   0  0  0  0  0  0  0  0  0  0  0  0
   -0.9696   -8.4759  -33.2128 H   0  0  0  0  0  0  0  0  0  0  0  0
    0.9782   -8.4140  -36.9540 H   0  0  0  0  0  0  0  0  0  0  0  0
    0.0199   -6.2317  -37.4126 H   0  0  0  0  0  0  0  0  0  0  0  0
   -2.0365   -4.3976  -35.1941 H   0  0  0  0  0  0  0  0  0  0  0  0
   -3.0597   -5.9250  -31.6236 H   0  0  0  0  0  0  0  0  0  0  0  0
   -1.4632   -6.6345  -31.5960 H   0  0  0  0  0  0  0  0  0  0  0  0
   -2.8214   -7.5623  -32.1856 H   0  0  0  0  0  0  0  0  0  0  0  0
  1  2  1  0  0  0  0
  1  3  1  0  0  0  0
  1  4  1  0  0  0  0
  2  5  1  0  0  0  0
  2  6  2  0  0  0  0
  3  7  1  0  0  0  0
  3  8  1  0  0  0  0
  3 26  1  1  0  0  0
  4  9  1  0  0  0  0
  4 10  2  0  0  0  0
  5 11  2  0  0  0  0
  5  9  1  0  0  0  0
  7 12  1  0  0  0  0
  7 27  1  0  0  0  0
  7 28  1  0  0  0  0
  8 13  1  0  0  0  0
  8 14  2  0  0  0  0
 11 15  1  0  0  0  0
 11 29  1  0  0  0  0
 12 16  1  0  0  0  0
 12 17  2  0  0  0  0
 15 18  2  0  0  0  0
 15 19  1  0  0  0  0
 18 20  1  0  0  0  0
 18 30  1  0  0  0  0
 19 21  2  0  0  0  0
 19 31  1  0  0  0  0
 20 22  2  0  0  0  0
 20 23  1  0  0  0  0
 21 22  1  0  0  0  0
 21 32  1  0  0  0  0
 22 24  1  0  0  0  0
 23 25  1  0  0  0  0
 24 33  1  0  0  0  0
 25 34  1  0  0  0  0
 25 35  1  0  0  0  0
 25 36  1  0  0  0  0
M  CHG  2  13  -1  16  -1
M  END
$$$$
