HTS1710-03146977-01
 OpenBabel03232612353D

 40 43  0  0  0  0  0  0  0  0999 V2000
    1.8333  -10.3477  -36.3552 N   0  0  0  0  0  0  0  0  0  0  0  0
    4.0254  -11.3226  -34.3991 N   0  0  0  0  0  0  0  0  0  0  0  0
    1.8104   -9.1777  -37.1041 C   0  0  0  0  0  0  0  0  0  0  0  0
    3.6576  -10.2880  -33.5450 C   0  0  0  0  0  0  0  0  0  0  0  0
    0.8801  -10.3439  -35.3420 C   0  0  0  0  0  0  0  0  0  0  0  0
    4.2304  -12.5176  -33.7212 C   0  0  0  0  0  0  0  0  0  0  0  0
    0.7170   -8.3495  -36.5268 C   0  0  0  0  0  0  0  0  0  0  0  0
    3.6540  -10.8751  -32.1775 C   0  0  0  0  0  0  0  0  0  0  0  0
    0.1591   -9.0493  -35.4730 C   0  0  0  0  0  0  0  0  0  0  0  0
    3.9961  -12.2107  -32.2854 C   0  0  0  0  0  0  0  0  0  0  0  0
    0.2528   -7.0837  -36.8995 C   0  0  0  0  0  0  0  0  0  0  0  0
    3.3770  -10.2841  -30.9391 C   0  0  0  0  0  0  0  0  0  0  0  0
    4.1414  -11.1828  -35.8618 C   0  0  0  0  0  0  0  0  0  0  0  0
    2.7963  -11.4413  -36.5764 C   0  0  0  0  0  0  0  0  0  0  0  0
    3.4517  -11.0917  -29.7750 C   0  0  0  0  0  0  0  0  0  0  0  0
   -0.8197   -6.5162  -36.1667 C   0  0  0  0  0  0  0  0  0  0  0  0
   -1.3510   -5.1480  -36.5329 C   0  0  0  0  0  0  0  0  0  0  0  0
    3.1558  -10.5008  -28.4141 C   0  0  0  0  0  0  0  0  0  0  0  0
   -0.9006   -8.5223  -34.7300 C   0  0  0  0  0  0  0  0  0  0  0  0
    4.0825  -13.0341  -31.1603 C   0  0  0  0  0  0  0  0  0  0  0  0
    2.5364   -8.8929  -38.0411 O   0  0  0  0  0  0  0  0  0  0  0  0
    3.3996   -9.1370  -33.8547 O   0  0  0  0  0  0  0  0  0  0  0  0
    0.6753  -11.2219  -34.5208 O   0  0  0  0  0  0  0  0  0  0  0  0
    4.5425  -13.5915  -34.2051 O   0  0  0  0  0  0  0  0  0  0  0  0
   -1.3871   -7.2473  -35.0840 C   0  0  0  0  0  0  0  0  0  0  0  0
    3.8066  -12.4642  -29.9014 C   0  0  0  0  0  0  0  0  0  0  0  0
   -0.7684   -4.5319  -37.4100 O   0  5  0  0  0  0  0  0  0  0  0  0
    3.6454   -9.4160  -28.1523 O   0  5  0  0  0  0  0  0  0  0  0  0
    2.4443  -11.1465  -27.6623 O   0  0  0  0  0  0  0  0  0  0  0  0
   -2.3307   -4.7442  -35.9299 O   0  0  0  0  0  0  0  0  0  0  0  0
    0.6808   -6.5752  -37.6889 H   0  0  0  0  0  0  0  0  0  0  0  0
    3.1247   -9.2855  -30.8744 H   0  0  0  0  0  0  0  0  0  0  0  0
    4.8635  -11.8865  -36.2199 H   0  0  0  0  0  0  0  0  0  0  0  0
    4.4412  -10.1781  -36.0751 H   0  0  0  0  0  0  0  0  0  0  0  0
    2.9760  -11.5358  -37.6269 H   0  0  0  0  0  0  0  0  0  0  0  0
    2.3752  -12.3384  -36.1729 H   0  0  0  0  0  0  0  0  0  0  0  0
   -1.3145   -9.0503  -33.9458 H   0  0  0  0  0  0  0  0  0  0  0  0
    4.3405  -14.0294  -31.2484 H   0  0  0  0  0  0  0  0  0  0  0  0
   -2.1682   -6.8365  -34.5493 H   0  0  0  0  0  0  0  0  0  0  0  0
    3.8629  -13.0529  -29.0555 H   0  0  0  0  0  0  0  0  0  0  0  0
  1  3  1  0  0  0  0
  1  5  1  0  0  0  0
  1 14  1  0  0  0  0
  2  4  1  0  0  0  0
  2  6  1  0  0  0  0
  2 13  1  0  0  0  0
  3  7  1  0  0  0  0
  3 21  2  0  0  0  0
  4  8  1  0  0  0  0
  4 22  2  0  0  0  0
  5  9  1  0  0  0  0
  5 23  2  0  0  0  0
  6 10  1  0  0  0  0
  6 24  2  0  0  0  0
  7  9  2  0  0  0  0
  7 11  1  0  0  0  0
  8 10  2  0  0  0  0
  8 12  1  0  0  0  0
  9 19  1  0  0  0  0
 10 20  1  0  0  0  0
 11 16  2  0  0  0  0
 11 31  1  0  0  0  0
 12 15  2  0  0  0  0
 12 32  1  0  0  0  0
 13 14  1  0  0  0  0
 13 33  1  0  0  0  0
 13 34  1  0  0  0  0
 14 35  1  0  0  0  0
 14 36  1  0  0  0  0
 15 18  1  0  0  0  0
 15 26  1  0  0  0  0
 16 17  1  0  0  0  0
 16 25  1  0  0  0  0
 17 27  1  0  0  0  0
 17 30  2  0  0  0  0
 18 28  1  0  0  0  0
 18 29  2  0  0  0  0
 19 25  2  0  0  0  0
 19 37  1  0  0  0  0
 20 26  2  0  0  0  0
 20 38  1  0  0  0  0
 25 39  1  0  0  0  0
 26 40  1  0  0  0  0
M  CHG  2  27  -1  28  -1
M  END
$$$$
