HTS1710-01681422-01
 OpenBabel03232612343D

 37 38  0  0  0  0  0  0  0  0999 V2000
    5.9262  -16.4860  -27.4587 C   0  0  0  0  0  0  0  0  0  0  0  0
    5.4288  -15.1969  -27.0578 O   0  0  0  0  0  0  0  0  0  0  0  0
    5.3241  -14.1928  -27.9826 C   0  0  0  0  0  0  0  0  0  0  0  0
    6.1711  -13.3268  -28.1366 O   0  0  0  0  0  0  0  0  0  0  0  0
    4.0441  -14.2586  -28.7894 C   0  0  0  0  0  0  0  0  0  0  0  0
    4.0882  -14.1190  -30.1927 C   0  0  0  0  0  0  0  0  0  0  0  0
    2.9087  -14.1408  -30.9620 C   0  0  0  0  0  0  0  0  0  0  0  0
    2.9467  -13.9584  -32.3294 N   0  0  0  0  0  0  0  0  0  0  0  0
    2.6171  -12.5472  -33.2215 S   0  0  0  0  0  0  0  0  0  0  0  0
    1.1607  -12.4396  -33.0904 O   0  0  0  0  0  0  0  0  0  0  0  0
    3.2886  -12.7099  -34.5147 O   0  0  0  0  0  0  0  0  0  0  0  0
    3.3276  -11.2012  -32.2532 C   0  0  0  0  0  0  0  0  0  0  0  0
    4.2349  -10.3178  -32.8588 C   0  0  0  0  0  0  0  0  0  0  0  0
    4.7612   -9.2264  -32.1396 C   0  0  0  0  0  0  0  0  0  0  0  0
    4.3552   -9.0331  -30.8002 C   0  0  0  0  0  0  0  0  0  0  0  0
    3.4465   -9.9174  -30.1789 C   0  0  0  0  0  0  0  0  0  0  0  0
    2.9420  -11.0064  -30.9179 C   0  0  0  0  0  0  0  0  0  0  0  0
    3.0089   -9.6999  -28.7473 C   0  0  0  0  0  0  0  0  0  0  0  0
    2.5598  -10.6575  -28.1417 O   0  5  0  0  0  0  0  0  0  0  0  0
    3.1360   -8.5789  -28.2838 O   0  0  0  0  0  0  0  0  0  0  0  0
    5.7369   -8.2766  -32.7996 C   0  0  0  0  0  0  0  0  0  0  0  0
    6.1527   -7.3427  -32.1357 O   0  5  0  0  0  0  0  0  0  0  0  0
    6.0491   -8.5056  -33.9557 O   0  0  0  0  0  0  0  0  0  0  0  0
    1.6730  -14.3547  -30.3330 C   0  0  0  0  0  0  0  0  0  0  0  0
    1.6133  -14.5111  -28.9412 C   0  0  0  0  0  0  0  0  0  0  0  0
    2.7871  -14.4566  -28.1728 C   0  0  0  0  0  0  0  0  0  0  0  0
    2.6833  -14.5852  -26.8315 F   0  0  0  0  0  0  0  0  0  0  0  0
    5.9394  -17.1418  -26.6135 H   0  0  0  0  0  0  0  0  0  0  0  0
    6.9188  -16.3811  -27.8444 H   0  0  0  0  0  0  0  0  0  0  0  0
    5.2904  -16.8937  -28.2167 H   0  0  0  0  0  0  0  0  0  0  0  0
    4.9991  -13.9991  -30.6628 H   0  0  0  0  0  0  0  0  0  0  0  0
    3.1977  -14.7495  -32.8589 H   0  0  0  0  0  0  0  0  0  0  0  0
    4.5191  -10.4691  -33.8393 H   0  0  0  0  0  0  0  0  0  0  0  0
    4.7291   -8.2324  -30.2671 H   0  0  0  0  0  0  0  0  0  0  0  0
    2.2840  -11.6657  -30.4737 H   0  0  0  0  0  0  0  0  0  0  0  0
    0.8083  -14.3968  -30.8948 H   0  0  0  0  0  0  0  0  0  0  0  0
    0.7034  -14.6669  -28.4798 H   0  0  0  0  0  0  0  0  0  0  0  0
  1  2  1  0  0  0  0
  1 28  1  0  0  0  0
  1 29  1  0  0  0  0
  1 30  1  0  0  0  0
  2  3  1  0  0  0  0
  3  4  2  0  0  0  0
  3  5  1  0  0  0  0
  5  6  2  0  0  0  0
  5 26  1  0  0  0  0
  6  7  1  0  0  0  0
  6 31  1  0  0  0  0
  7  8  1  0  0  0  0
  7 24  2  0  0  0  0
  8  9  1  0  0  0  0
  8 32  1  0  0  0  0
  9 10  2  0  0  0  0
  9 11  2  0  0  0  0
  9 12  1  0  0  0  0
 12 13  2  0  0  0  0
 12 17  1  0  0  0  0
 13 14  1  0  0  0  0
 13 33  1  0  0  0  0
 14 15  2  0  0  0  0
 14 21  1  0  0  0  0
 15 16  1  0  0  0  0
 15 34  1  0  0  0  0
 16 17  2  0  0  0  0
 16 18  1  0  0  0  0
 17 35  1  0  0  0  0
 18 19  1  0  0  0  0
 18 20  2  0  0  0  0
 21 22  1  0  0  0  0
 21 23  2  0  0  0  0
 24 25  1  0  0  0  0
 24 36  1  0  0  0  0
 25 26  2  0  0  0  0
 25 37  1  0  0  0  0
 26 27  1  0  0  0  0
M  CHG  2  19  -1  22  -1
M  END
$$$$
