HTS1710-04817291-01
 OpenBabel03232612363D

 42 43  0  0  0  0  0  0  0  0999 V2000
    4.8685   -9.5971  -32.4858 C   0  0  0  0  0  0  0  0  0  0  0  0
    1.7289   -9.0141  -36.9431 C   0  0  0  0  0  0  0  0  0  0  0  0
    1.8362  -10.1640  -36.1548 N   0  0  0  0  0  0  0  0  0  0  0  0
    0.7132   -8.0529  -36.4885 C   0  0  0  0  0  0  0  0  0  0  0  0
    5.1557   -8.5379  -31.6505 C   0  0  0  0  0  0  0  0  0  0  0  0
    1.0648  -10.3357  -34.9879 C   0  0  0  0  0  0  0  0  0  0  0  0
    0.1156   -9.4119  -34.5817 C   0  0  0  0  0  0  0  0  0  0  0  0
    4.9318   -8.7614  -30.3164 O   0  0  0  0  0  0  0  0  0  0  0  0
    4.4118  -10.6136  -31.6062 C   0  0  0  0  0  0  0  0  0  0  0  0
    4.9820   -9.6866  -33.9586 C   0  0  0  0  0  0  0  0  0  0  0  0
   -0.0733   -8.2213  -35.3743 C   0  0  0  0  0  0  0  0  0  0  0  0
    4.4765  -10.0507  -30.3592 C   0  0  0  0  0  0  0  0  0  0  0  0
    2.4041   -8.8165  -37.9408 O   0  0  0  0  0  0  0  0  0  0  0  0
    5.6780   -8.9320  -34.6161 O   0  0  0  0  0  0  0  0  0  0  0  0
    4.2457  -10.6752  -34.5968 N   0  0  0  0  0  0  0  0  0  0  0  0
    2.8341  -11.1873  -36.5782 C   0  0  0  0  0  0  0  0  0  0  0  0
   -0.9967   -7.2642  -35.0300 O   0  0  0  0  0  0  0  0  0  0  0  0
    5.6795   -7.1964  -32.0942 C   0  0  0  0  0  0  0  0  0  0  0  0
    1.2691  -11.5406  -34.0832 C   0  0  0  0  0  0  0  0  0  0  0  0
    4.2586  -10.8833  -36.0494 C   0  0  0  0  0  0  0  0  0  0  0  0
    4.0704  -10.7521  -29.0915 C   0  0  0  0  0  0  0  0  0  0  0  0
   -1.8426   -7.3785  -33.8714 C   0  0  0  0  0  0  0  0  0  0  0  0
    0.5819   -7.1933  -37.0442 H   0  0  0  0  0  0  0  0  0  0  0  0
   -0.4445   -9.5721  -33.7300 H   0  0  0  0  0  0  0  0  0  0  0  0
    4.0999  -11.5661  -31.8520 H   0  0  0  0  0  0  0  0  0  0  0  0
    3.6852  -11.2681  -34.0458 H   0  0  0  0  0  0  0  0  0  0  0  0
    2.8640  -11.2153  -37.6475 H   0  0  0  0  0  0  0  0  0  0  0  0
    2.5293  -12.1273  -36.1678 H   0  0  0  0  0  0  0  0  0  0  0  0
    5.7959   -7.1931  -33.1578 H   0  0  0  0  0  0  0  0  0  0  0  0
    6.6263   -7.0123  -31.6311 H   0  0  0  0  0  0  0  0  0  0  0  0
    4.9881   -6.4314  -31.8087 H   0  0  0  0  0  0  0  0  0  0  0  0
    2.0217  -12.1765  -34.5005 H   0  0  0  0  0  0  0  0  0  0  0  0
    0.3506  -12.0829  -33.9986 H   0  0  0  0  0  0  0  0  0  0  0  0
    1.5788  -11.2102  -33.1137 H   0  0  0  0  0  0  0  0  0  0  0  0
    4.6280   -9.9996  -36.5265 H   0  0  0  0  0  0  0  0  0  0  0  0
    4.8899  -11.7188  -36.2691 H   0  0  0  0  0  0  0  0  0  0  0  0
    3.7441  -11.7447  -29.3219 H   0  0  0  0  0  0  0  0  0  0  0  0
    3.2719  -10.2132  -28.6258 H   0  0  0  0  0  0  0  0  0  0  0  0
    4.9066  -10.7971  -28.4253 H   0  0  0  0  0  0  0  0  0  0  0  0
   -2.4769   -6.5191  -33.8067 H   0  0  0  0  0  0  0  0  0  0  0  0
   -1.2363   -7.4413  -32.9920 H   0  0  0  0  0  0  0  0  0  0  0  0
   -2.4436   -8.2599  -33.9540 H   0  0  0  0  0  0  0  0  0  0  0  0
  1  5  2  0  0  0  0
  1  9  1  0  0  0  0
  1 10  1  0  0  0  0
  2  3  1  0  0  0  0
  2  4  1  0  0  0  0
  2 13  2  0  0  0  0
  3 16  1  0  0  0  0
  3  6  1  0  0  0  0
  4 11  2  0  0  0  0
  4 23  1  0  0  0  0
  5  8  1  0  0  0  0
  5 18  1  0  0  0  0
  6  7  2  0  0  0  0
  6 19  1  0  0  0  0
  7 11  1  0  0  0  0
  7 24  1  0  0  0  0
  8 12  1  0  0  0  0
  9 12  2  0  0  0  0
  9 25  1  0  0  0  0
 10 14  2  0  0  0  0
 10 15  1  0  0  0  0
 11 17  1  0  0  0  0
 12 21  1  0  0  0  0
 15 20  1  0  0  0  0
 15 26  1  0  0  0  0
 16 20  1  0  0  0  0
 16 27  1  0  0  0  0
 16 28  1  0  0  0  0
 17 22  1  0  0  0  0
 18 29  1  0  0  0  0
 18 30  1  0  0  0  0
 18 31  1  0  0  0  0
 19 32  1  0  0  0  0
 19 33  1  0  0  0  0
 19 34  1  0  0  0  0
 20 35  1  0  0  0  0
 20 36  1  0  0  0  0
 21 37  1  0  0  0  0
 21 38  1  0  0  0  0
 21 39  1  0  0  0  0
 22 40  1  0  0  0  0
 22 41  1  0  0  0  0
 22 42  1  0  0  0  0
M  END
$$$$
