HTS1710-02789733-01
 OpenBabel03232612353D

 50 52  0  0  1  0  0  0  0  0999 V2000
    5.7507   -7.5514  -33.0062 C   0  0  0  0  0  0  0  0  0  0  0  0
    5.0155   -7.2569  -31.8716 C   0  0  0  0  0  0  0  0  0  0  0  0
    4.2524   -9.6532  -31.8887 C   0  0  0  0  0  0  0  0  0  0  0  0
    5.0363   -9.8136  -32.9991 C   0  0  0  0  0  0  0  0  0  0  0  0
    4.0413   -8.2535  -31.3084 C   0  0  2  0  0  0  0  0  0  0  0  0
    5.6828   -8.7777  -33.6225 O   0  0  0  0  0  0  0  0  0  0  0  0
    6.6378   -6.5457  -33.6055 C   0  0  0  0  0  0  0  0  0  0  0  0
    5.0545   -6.0413  -31.2157 O   0  0  0  0  0  0  0  0  0  0  0  0
    2.6082   -7.7743  -31.5411 C   0  0  0  0  0  0  0  0  0  0  0  0
    6.6413   -5.2735  -32.8852 C   0  0  0  0  0  0  0  0  0  0  0  0
    3.5110  -10.7480  -31.1330 C   0  0  0  0  0  0  0  0  0  0  0  0
    5.8735   -5.0757  -31.7586 C   0  0  0  0  0  0  0  0  0  0  0  0
    1.8256   -8.3461  -32.5601 C   0  0  0  0  0  0  0  0  0  0  0  0
    0.4988   -7.9134  -32.7733 C   0  0  0  0  0  0  0  0  0  0  0  0
    5.2446  -11.0376  -33.5910 N   0  0  0  0  0  0  0  0  0  0  0  0
    2.0559   -6.7659  -30.7309 C   0  0  0  0  0  0  0  0  0  0  0  0
    7.3069   -6.7439  -34.6057 O   0  0  0  0  0  0  0  0  0  0  0  0
   -0.0472   -6.9000  -31.9591 C   0  0  0  0  0  0  0  0  0  0  0  0
    2.5317  -11.3140  -31.5939 O   0  0  0  0  0  0  0  0  0  0  0  0
    0.7400   -6.3291  -30.9360 C   0  0  0  0  0  0  0  0  0  0  0  0
    4.0344  -11.0541  -29.9046 O   0  0  0  0  0  0  0  0  0  0  0  0
   -0.2929   -8.4604  -33.7683 O   0  0  0  0  0  0  0  0  0  0  0  0
   -1.3503   -6.4940  -32.1864 O   0  0  0  0  0  0  0  0  0  0  0  0
    5.9049   -3.7460  -31.0489 C   0  0  0  0  0  0  0  0  0  0  0  0
    4.6129   -3.3836  -30.5695 O   0  0  0  0  0  0  0  0  0  0  0  0
    3.6728  -12.2742  -29.2221 C   0  0  0  0  0  0  0  0  0  0  0  0
    0.2365   -9.2471  -34.8514 C   0  0  0  0  0  0  0  0  0  0  0  0
   -1.8905   -5.2618  -31.6779 C   0  0  0  0  0  0  0  0  0  0  0  0
    4.6269  -13.4112  -29.6518 C   0  0  0  0  0  0  0  0  0  0  0  0
    4.2171   -8.3251  -30.2554 H   0  0  0  0  0  0  0  0  0  0  0  0
    7.2349   -4.5029  -33.2299 H   0  0  0  0  0  0  0  0  0  0  0  0
    2.2243   -9.0879  -33.1567 H   0  0  0  0  0  0  0  0  0  0  0  0
    5.2959  -11.8498  -33.0370 H   0  0  0  0  0  0  0  0  0  0  0  0
    5.3423  -11.1014  -34.5686 H   0  0  0  0  0  0  0  0  0  0  0  0
    2.6239   -6.3445  -29.9794 H   0  0  0  0  0  0  0  0  0  0  0  0
    0.3452   -5.5873  -30.3368 H   0  0  0  0  0  0  0  0  0  0  0  0
    6.2468   -2.9953  -31.7305 H   0  0  0  0  0  0  0  0  0  0  0  0
    6.5655   -3.8262  -30.2111 H   0  0  0  0  0  0  0  0  0  0  0  0
    4.6587   -2.5139  -30.1423 H   0  0  0  0  0  0  0  0  0  0  0  0
    2.6672  -12.5387  -29.4746 H   0  0  0  0  0  0  0  0  0  0  0  0
    3.7498  -12.1262  -28.1652 H   0  0  0  0  0  0  0  0  0  0  0  0
   -0.5634   -9.5583  -35.4903 H   0  0  0  0  0  0  0  0  0  0  0  0
    0.7335  -10.1086  -34.4568 H   0  0  0  0  0  0  0  0  0  0  0  0
    0.9329   -8.6593  -35.4122 H   0  0  0  0  0  0  0  0  0  0  0  0
   -2.9118   -5.1674  -31.9828 H   0  0  0  0  0  0  0  0  0  0  0  0
   -1.3257   -4.4388  -32.0633 H   0  0  0  0  0  0  0  0  0  0  0  0
   -1.8359   -5.2625  -30.6093 H   0  0  0  0  0  0  0  0  0  0  0  0
    4.5510  -13.5603  -30.7087 H   0  0  0  0  0  0  0  0  0  0  0  0
    4.3577  -14.3137  -29.1440 H   0  0  0  0  0  0  0  0  0  0  0  0
    5.6328  -13.1468  -29.4003 H   0  0  0  0  0  0  0  0  0  0  0  0
  1  2  2  0  0  0  0
  1  6  1  0  0  0  0
  1  7  1  0  0  0  0
  2  5  1  0  0  0  0
  2  8  1  0  0  0  0
  3  4  2  0  0  0  0
  3  5  1  0  0  0  0
  3 11  1  0  0  0  0
  4  6  1  0  0  0  0
  4 15  1  0  0  0  0
  5  9  1  0  0  0  0
  5 30  1  1  0  0  0
  7 10  1  0  0  0  0
  7 17  2  0  0  0  0
  8 12  1  0  0  0  0
  9 13  2  0  0  0  0
  9 16  1  0  0  0  0
 10 12  2  0  0  0  0
 10 31  1  0  0  0  0
 11 19  2  0  0  0  0
 11 21  1  0  0  0  0
 12 24  1  0  0  0  0
 13 14  1  0  0  0  0
 13 32  1  0  0  0  0
 14 18  2  0  0  0  0
 14 22  1  0  0  0  0
 15 33  1  0  0  0  0
 15 34  1  0  0  0  0
 16 20  2  0  0  0  0
 16 35  1  0  0  0  0
 18 20  1  0  0  0  0
 18 23  1  0  0  0  0
 20 36  1  0  0  0  0
 21 26  1  0  0  0  0
 22 27  1  0  0  0  0
 23 28  1  0  0  0  0
 24 25  1  0  0  0  0
 24 37  1  0  0  0  0
 24 38  1  0  0  0  0
 25 39  1  0  0  0  0
 26 29  1  0  0  0  0
 26 40  1  0  0  0  0
 26 41  1  0  0  0  0
 27 42  1  0  0  0  0
 27 43  1  0  0  0  0
 27 44  1  0  0  0  0
 28 45  1  0  0  0  0
 28 46  1  0  0  0  0
 28 47  1  0  0  0  0
 29 48  1  0  0  0  0
 29 49  1  0  0  0  0
 29 50  1  0  0  0  0
M  END
$$$$
