HTS1710-02617453-01
 OpenBabel03232612343D

 29 30  0  0  0  0  0  0  0  0999 V2000
    4.7108  -14.1284  -27.6339 S   0  0  0  0  0  0  0  0  0  0  0  0
    4.4433  -10.9647  -30.2567 C   0  0  0  0  0  0  0  0  0  0  0  0
    2.8264  -10.1687  -34.6076 C   0  0  0  0  0  0  0  0  0  0  0  0
    2.7459  -10.6440  -33.2069 C   0  0  0  0  0  0  0  0  0  0  0  0
    4.1413  -11.6175  -31.4743 C   0  0  0  0  0  0  0  0  0  0  0  0
    4.5020  -13.1451  -29.1353 C   0  0  0  0  0  0  0  0  0  0  0  0
    4.6125  -11.7414  -29.0915 C   0  0  0  0  0  0  0  0  0  0  0  0
    4.5760   -9.4620  -30.1688 C   0  0  0  0  0  0  0  0  0  0  0  0
    4.0568   -9.9338  -35.2017 C   0  0  0  0  0  0  0  0  0  0  0  0
    3.9588  -10.8953  -32.6333 O   0  0  0  0  0  0  0  0  0  0  0  0
    1.6441   -9.9290  -35.4065 C   0  0  0  0  0  0  0  0  0  0  0  0
    3.1219   -9.2330  -37.3062 C   0  0  0  0  0  0  0  0  0  0  0  0
    4.1816   -9.4851  -36.4898 O   0  0  0  0  0  0  0  0  0  0  0  0
    1.8093   -9.4809  -36.6967 C   0  0  0  0  0  0  0  0  0  0  0  0
    3.3884  -14.0734  -27.0019 O   0  0  0  0  0  0  0  0  0  0  0  0
    5.1149  -15.4453  -28.1365 O   0  0  0  0  0  0  0  0  0  0  0  0
    1.6884  -10.7957  -32.6160 O   0  0  0  0  0  0  0  0  0  0  0  0
    4.0284  -13.0187  -31.5182 C   0  0  0  0  0  0  0  0  0  0  0  0
    5.7608  -13.3889  -26.9284 O   0  0  0  0  0  1  0  0  0  0  0  0
    3.7954   -8.8803  -29.4349 O   0  5  0  0  0  0  0  0  0  0  0  0
    4.2034  -13.7789  -30.3532 C   0  0  0  0  0  0  0  0  0  0  0  0
    3.2595   -8.8323  -38.4486 O   0  0  0  0  0  0  0  0  0  0  0  0
    5.4560   -8.9280  -30.8229 O   0  0  0  0  0  0  0  0  0  0  0  0
    4.8201  -11.2750  -28.1946 H   0  0  0  0  0  0  0  0  0  0  0  0
    4.9131  -10.1039  -34.6514 H   0  0  0  0  0  0  0  0  0  0  0  0
    0.7014  -10.0898  -35.0186 H   0  0  0  0  0  0  0  0  0  0  0  0
    0.9659   -9.3101  -37.2664 H   0  0  0  0  0  0  0  0  0  0  0  0
    3.8159  -13.4894  -32.4117 H   0  0  0  0  0  0  0  0  0  0  0  0
    4.1126  -14.8063  -30.3903 H   0  0  0  0  0  0  0  0  0  0  0  0
  1  6  1  0  0  0  0
  1 15  2  0  0  0  0
  1 16  2  0  0  0  0
  1 19  1  0  0  0  0
  2  5  2  0  0  0  0
  2  7  1  0  0  0  0
  2  8  1  0  0  0  0
  3  4  1  0  0  0  0
  3  9  2  0  0  0  0
  3 11  1  0  0  0  0
  4 10  1  0  0  0  0
  4 17  2  0  0  0  0
  5 10  1  0  0  0  0
  5 18  1  0  0  0  0
  6  7  2  0  0  0  0
  6 21  1  0  0  0  0
  7 24  1  0  0  0  0
  8 20  1  0  0  0  0
  8 23  2  0  0  0  0
  9 13  1  0  0  0  0
  9 25  1  0  0  0  0
 11 14  2  0  0  0  0
 11 26  1  0  0  0  0
 12 13  1  0  0  0  0
 12 14  1  0  0  0  0
 12 22  2  0  0  0  0
 14 27  1  0  0  0  0
 18 21  2  0  0  0  0
 18 28  1  0  0  0  0
 21 29  1  0  0  0  0
M  CHG  1  20  -1
M  END
$$$$
