HTS1710-00277855-01
 OpenBabel03232612363D

 37 39  0  0  1  0  0  0  0  0999 V2000
    3.8611  -12.2579  -32.7032 C   0  0  0  0  0  0  0  0  0  0  0  0
    3.8942  -11.5850  -31.3123 C   0  0  1  0  0  0  0  0  0  0  0  0
    4.7152  -12.3622  -30.3760 N   0  0  0  0  0  0  0  0  0  0  0  0
    4.1715  -13.1622  -29.3780 C   0  0  0  0  0  0  0  0  0  0  0  0
    2.9597  -13.2344  -29.2556 O   0  0  0  0  0  0  0  0  0  0  0  0
    5.0983  -13.9220  -28.4659 C   0  0  0  0  0  0  0  0  0  0  0  0
    6.2540  -13.3300  -28.0859 N   0  0  0  0  0  0  0  0  0  0  0  0
    7.0596  -14.0360  -27.2680 C   0  0  0  0  0  0  0  0  0  0  0  0
    6.7217  -15.3281  -26.8278 C   0  0  0  0  0  0  0  0  0  0  0  0
    5.5740  -15.9281  -27.2002 N   0  0  0  0  0  0  0  0  0  0  0  0
    4.7665  -15.2207  -28.0187 C   0  0  0  0  0  0  0  0  0  0  0  0
    4.3265  -10.1296  -31.3665 C   0  0  0  0  0  0  0  0  0  0  0  0
    4.7292   -9.3801  -32.4442 C   0  0  0  0  0  0  0  0  0  0  0  0
    4.7747   -9.7640  -33.8923 C   0  0  0  0  0  0  0  0  0  0  0  0
    3.7638   -9.6164  -34.5549 O   0  5  0  0  0  0  0  0  0  0  0  0
    5.7978  -10.2443  -34.3409 O   0  0  0  0  0  0  0  0  0  0  0  0
    4.9748   -8.0979  -31.8270 C   0  0  0  0  0  0  0  0  0  0  0  0
    4.6235   -8.0836  -30.5442 N   0  0  0  0  0  0  0  0  0  0  0  0
    4.2191   -9.4110  -30.2219 O   0  0  0  0  0  0  0  0  0  0  0  0
    5.6347   -6.9777  -32.5268 C   0  0  0  0  0  0  0  0  0  0  0  0
    5.4172   -5.6583  -32.0802 C   0  0  0  0  0  0  0  0  0  0  0  0
    6.1029   -4.6023  -32.6982 C   0  0  0  0  0  0  0  0  0  0  0  0
    7.0124   -4.8956  -33.7253 C   0  0  0  0  0  0  0  0  0  0  0  0
    7.2707   -6.1536  -34.1313 N   0  0  0  0  0  0  0  0  0  0  0  0
    6.6033   -7.1659  -33.5396 C   0  0  0  0  0  0  0  0  0  0  0  0
    3.5507  -13.2766  -32.5993 H   0  0  0  0  0  0  0  0  0  0  0  0
    4.8380  -12.2253  -33.1385 H   0  0  0  0  0  0  0  0  0  0  0  0
    3.1716  -11.7376  -33.3347 H   0  0  0  0  0  0  0  0  0  0  0  0
    2.8882  -11.5766  -30.9479 H   0  0  0  0  0  0  0  0  0  0  0  0
    5.6951  -12.3148  -30.4587 H   0  0  0  0  0  0  0  0  0  0  0  0
    7.9495  -13.6165  -26.9560 H   0  0  0  0  0  0  0  0  0  0  0  0
    7.3707  -15.8308  -26.2022 H   0  0  0  0  0  0  0  0  0  0  0  0
    3.8769  -15.6425  -28.3283 H   0  0  0  0  0  0  0  0  0  0  0  0
    4.7602   -5.4713  -31.3066 H   0  0  0  0  0  0  0  0  0  0  0  0
    5.9412   -3.6269  -32.4025 H   0  0  0  0  0  0  0  0  0  0  0  0
    7.5038   -4.1154  -34.1887 H   0  0  0  0  0  0  0  0  0  0  0  0
    6.8110   -8.1302  -33.8428 H   0  0  0  0  0  0  0  0  0  0  0  0
  1  2  1  0  0  0  0
  1 26  1  0  0  0  0
  1 27  1  0  0  0  0
  1 28  1  0  0  0  0
  2  3  1  0  0  0  0
  2 12  1  0  0  0  0
  2 29  1  1  0  0  0
  3  4  1  0  0  0  0
  3 30  1  0  0  0  0
  4  5  2  0  0  0  0
  4  6  1  0  0  0  0
  6  7  2  0  0  0  0
  6 11  1  0  0  0  0
  7  8  1  0  0  0  0
  8  9  2  0  0  0  0
  8 31  1  0  0  0  0
  9 10  1  0  0  0  0
  9 32  1  0  0  0  0
 10 11  2  0  0  0  0
 11 33  1  0  0  0  0
 12 13  2  0  0  0  0
 12 19  1  0  0  0  0
 13 14  1  0  0  0  0
 13 17  1  0  0  0  0
 14 15  1  0  0  0  0
 14 16  2  0  0  0  0
 17 18  2  0  0  0  0
 17 20  1  0  0  0  0
 18 19  1  0  0  0  0
 20 21  2  0  0  0  0
 20 25  1  0  0  0  0
 21 22  1  0  0  0  0
 21 34  1  0  0  0  0
 22 23  2  0  0  0  0
 22 35  1  0  0  0  0
 23 24  1  0  0  0  0
 23 36  1  0  0  0  0
 24 25  2  0  0  0  0
 25 37  1  0  0  0  0
M  CHG  1  15  -1
M  END
$$$$
