HTS1710-01430544-01
 OpenBabel03232612353D

 47 49  0  0  1  0  0  0  0  0999 V2000
    3.6128   -7.6957  -31.6274 C   0  0  0  0  0  0  0  0  0  0  0  0
    2.7513   -9.9443  -30.8826 C   0  0  0  0  0  0  0  0  0  0  0  0
    2.3819   -8.5402  -31.3438 C   0  0  2  0  0  0  0  0  0  0  0  0
    4.7258   -8.2626  -32.2265 C   0  0  0  0  0  0  0  0  0  0  0  0
    3.4516  -10.1297  -29.7011 C   0  0  0  0  0  0  0  0  0  0  0  0
    3.8453  -11.4687  -29.2396 C   0  0  0  0  0  0  0  0  0  0  0  0
    5.9417   -7.4798  -32.4927 C   0  0  0  0  0  0  0  0  0  0  0  0
    2.3658  -10.9864  -31.7067 O   0  0  0  0  0  0  0  0  0  0  0  0
    3.5568   -6.3749  -31.2212 O   0  0  0  0  0  0  0  0  0  0  0  0
    3.4192  -12.5291  -30.1513 C   0  0  0  0  0  0  0  0  0  0  0  0
    5.8233   -6.0900  -32.0559 C   0  0  0  0  0  0  0  0  0  0  0  0
    1.4431   -8.5460  -32.5548 C   0  0  0  0  0  0  0  0  0  0  0  0
    4.6793   -5.6097  -31.4552 C   0  0  0  0  0  0  0  0  0  0  0  0
    2.7186  -12.2565  -31.3067 C   0  0  0  0  0  0  0  0  0  0  0  0
    2.6432  -10.2788  -36.3404 C   0  0  0  0  0  0  0  0  0  0  0  0
    1.8772   -9.0639  -33.7922 C   0  0  0  0  0  0  0  0  0  0  0  0
    4.4634  -11.6862  -28.2097 O   0  0  0  0  0  0  0  0  0  0  0  0
    6.9472   -7.9291  -33.0187 O   0  0  0  0  0  0  0  0  0  0  0  0
    1.3917   -9.5996  -36.1277 O   0  0  0  0  0  0  0  0  0  0  0  0
    1.0101   -9.0806  -34.9048 C   0  0  0  0  0  0  0  0  0  0  0  0
    3.8411   -9.1282  -28.8798 O   0  0  0  0  0  0  0  0  0  0  0  0
    4.8116   -9.5570  -32.6109 O   0  0  0  0  0  0  0  0  0  0  0  0
    2.7691  -11.2966  -35.4632 F   0  0  0  0  0  0  0  0  0  0  0  0
    3.6801   -9.4412  -36.1162 F   0  0  0  0  0  0  0  0  0  0  0  0
    0.1372   -8.0304  -32.4445 C   0  0  0  0  0  0  0  0  0  0  0  0
    4.6090   -4.1683  -31.0201 C   0  0  0  0  0  0  0  0  0  0  0  0
    2.3080  -13.3809  -32.2241 C   0  0  0  0  0  0  0  0  0  0  0  0
    3.6767   -3.9927  -29.9574 O   0  0  0  0  0  0  0  0  0  0  0  0
    1.2090  -13.0030  -33.0480 O   0  0  0  0  0  0  0  0  0  0  0  0
   -0.7217   -8.0322  -33.5541 C   0  0  0  0  0  0  0  0  0  0  0  0
   -0.2862   -8.5561  -34.7803 C   0  0  0  0  0  0  0  0  0  0  0  0
    1.8505   -8.0937  -30.5295 H   0  0  0  0  0  0  0  0  0  0  0  0
    3.6492  -13.5090  -29.9236 H   0  0  0  0  0  0  0  0  0  0  0  0
    6.6194   -5.4496  -32.2013 H   0  0  0  0  0  0  0  0  0  0  0  0
    2.6525  -10.6324  -37.3502 H   0  0  0  0  0  0  0  0  0  0  0  0
    2.8363   -9.4334  -33.8847 H   0  0  0  0  0  0  0  0  0  0  0  0
    4.3545   -9.3188  -28.1194 H   0  0  0  0  0  0  0  0  0  0  0  0
    4.0722  -10.1244  -32.5144 H   0  0  0  0  0  0  0  0  0  0  0  0
   -0.1897   -7.6493  -31.5430 H   0  0  0  0  0  0  0  0  0  0  0  0
    4.3061   -3.5675  -31.8521 H   0  0  0  0  0  0  0  0  0  0  0  0
    5.5768   -3.8733  -30.6721 H   0  0  0  0  0  0  0  0  0  0  0  0
    2.0256  -14.2271  -31.6332 H   0  0  0  0  0  0  0  0  0  0  0  0
    3.1372  -13.6199  -32.8566 H   0  0  0  0  0  0  0  0  0  0  0  0
    3.6435   -3.0559  -29.7079 H   0  0  0  0  0  0  0  0  0  0  0  0
    0.9122  -13.7697  -33.5628 H   0  0  0  0  0  0  0  0  0  0  0  0
   -1.6754   -7.6474  -33.4678 H   0  0  0  0  0  0  0  0  0  0  0  0
   -0.9212   -8.5561  -35.5939 H   0  0  0  0  0  0  0  0  0  0  0  0
  1  3  1  0  0  0  0
  1  4  2  0  0  0  0
  1  9  1  0  0  0  0
  2  3  1  0  0  0  0
  2  5  2  0  0  0  0
  2  8  1  0  0  0  0
  3 12  1  0  0  0  0
  3 32  1  1  0  0  0
  4  7  1  0  0  0  0
  4 22  1  0  0  0  0
  5  6  1  0  0  0  0
  5 21  1  0  0  0  0
  6 17  2  0  0  0  0
  6 10  1  0  0  0  0
  7 18  2  0  0  0  0
  7 11  1  0  0  0  0
  8 14  1  0  0  0  0
  9 13  1  0  0  0  0
 10 14  2  0  0  0  0
 10 33  1  0  0  0  0
 11 13  2  0  0  0  0
 11 34  1  0  0  0  0
 12 16  2  0  0  0  0
 12 25  1  0  0  0  0
 13 26  1  0  0  0  0
 14 27  1  0  0  0  0
 15 19  1  0  0  0  0
 15 23  1  0  0  0  0
 15 24  1  0  0  0  0
 15 35  1  0  0  0  0
 16 20  1  0  0  0  0
 16 36  1  0  0  0  0
 19 20  1  0  0  0  0
 20 31  2  0  0  0  0
 21 37  1  0  0  0  0
 22 38  1  0  0  0  0
 25 30  2  0  0  0  0
 25 39  1  0  0  0  0
 26 28  1  0  0  0  0
 26 40  1  0  0  0  0
 26 41  1  0  0  0  0
 27 29  1  0  0  0  0
 27 42  1  0  0  0  0
 27 43  1  0  0  0  0
 28 44  1  0  0  0  0
 29 45  1  0  0  0  0
 30 31  1  0  0  0  0
 30 46  1  0  0  0  0
 31 47  1  0  0  0  0
M  END
$$$$
