HTS1710-00277863-01
 OpenBabel03232612353D

 36 37  0  0  1  0  0  0  0  0999 V2000
    3.5894  -11.4036  -34.2883 C   0  0  0  0  0  0  0  0  0  0  0  0
    3.8879  -10.2624  -33.2898 C   0  0  1  0  0  0  0  0  0  0  0  0
    4.3327  -10.8199  -32.0037 N   0  0  0  0  0  0  0  0  0  0  0  0
    3.4949  -11.4933  -31.1251 C   0  0  0  0  0  0  0  0  0  0  0  0
    2.3197  -11.6393  -31.4146 O   0  0  0  0  0  0  0  0  0  0  0  0
    4.0456  -12.0167  -29.8524 C   0  0  0  0  0  0  0  0  0  0  0  0
    3.6653  -11.7863  -28.5439 C   0  0  0  0  0  0  0  0  0  0  0  0
    2.5474  -10.8796  -28.0917 C   0  0  0  0  0  0  0  0  0  0  0  0
    4.4102  -12.4345  -27.5913 O   0  0  0  0  0  0  0  0  0  0  0  0
    5.2971  -13.1032  -28.3884 C   0  0  0  0  0  0  0  0  0  0  0  0
    6.3547  -13.9827  -27.7794 C   0  0  0  0  0  0  0  0  0  0  0  0
    5.1473  -12.9047  -29.7348 C   0  0  0  0  0  0  0  0  0  0  0  0
    4.8477   -9.2314  -33.8601 C   0  0  0  0  0  0  0  0  0  0  0  0
    5.5436   -8.2365  -33.2203 C   0  0  0  0  0  0  0  0  0  0  0  0
    5.5963   -7.8716  -31.7692 C   0  0  0  0  0  0  0  0  0  0  0  0
    5.4914   -6.7009  -31.4549 O   0  5  0  0  0  0  0  0  0  0  0  0
    5.7392   -8.7701  -30.9596 O   0  0  0  0  0  0  0  0  0  0  0  0
    6.2358   -7.6103  -34.3129 C   0  0  0  0  0  0  0  0  0  0  0  0
    7.1663   -6.4328  -34.1475 C   0  0  0  0  0  0  0  0  0  0  0  0
    5.9714   -8.1917  -35.4794 N   0  0  0  0  0  0  0  0  0  0  0  0
    5.0631   -9.2574  -35.1990 O   0  0  0  0  0  0  0  0  0  0  0  0
    2.9117  -12.1005  -33.8413 H   0  0  0  0  0  0  0  0  0  0  0  0
    4.5007  -11.9042  -34.5407 H   0  0  0  0  0  0  0  0  0  0  0  0
    3.1490  -10.9962  -35.1743 H   0  0  0  0  0  0  0  0  0  0  0  0
    2.9804   -9.7246  -33.1100 H   0  0  0  0  0  0  0  0  0  0  0  0
    5.2779  -10.7093  -31.7517 H   0  0  0  0  0  0  0  0  0  0  0  0
    2.0665  -10.4527  -28.9470 H   0  0  0  0  0  0  0  0  0  0  0  0
    2.9473  -10.0979  -27.4802 H   0  0  0  0  0  0  0  0  0  0  0  0
    1.8355  -11.4451  -27.5275 H   0  0  0  0  0  0  0  0  0  0  0  0
    6.2595  -13.9693  -26.7138 H   0  0  0  0  0  0  0  0  0  0  0  0
    7.3227  -13.6199  -28.0557 H   0  0  0  0  0  0  0  0  0  0  0  0
    6.2341  -14.9844  -28.1358 H   0  0  0  0  0  0  0  0  0  0  0  0
    5.7116  -13.3114  -30.4972 H   0  0  0  0  0  0  0  0  0  0  0  0
    7.2084   -6.1537  -33.1153 H   0  0  0  0  0  0  0  0  0  0  0  0
    6.8044   -5.6084  -34.7255 H   0  0  0  0  0  0  0  0  0  0  0  0
    8.1455   -6.7020  -34.4844 H   0  0  0  0  0  0  0  0  0  0  0  0
  1  2  1  0  0  0  0
  1 22  1  0  0  0  0
  1 23  1  0  0  0  0
  1 24  1  0  0  0  0
  2  3  1  0  0  0  0
  2 13  1  0  0  0  0
  2 25  1  1  0  0  0
  3  4  1  0  0  0  0
  3 26  1  0  0  0  0
  4  5  2  0  0  0  0
  4  6  1  0  0  0  0
  6  7  2  0  0  0  0
  6 12  1  0  0  0  0
  7  8  1  0  0  0  0
  7  9  1  0  0  0  0
  8 27  1  0  0  0  0
  8 28  1  0  0  0  0
  8 29  1  0  0  0  0
  9 10  1  0  0  0  0
 10 11  1  0  0  0  0
 10 12  2  0  0  0  0
 11 30  1  0  0  0  0
 11 31  1  0  0  0  0
 11 32  1  0  0  0  0
 12 33  1  0  0  0  0
 13 14  2  0  0  0  0
 13 21  1  0  0  0  0
 14 15  1  0  0  0  0
 14 18  1  0  0  0  0
 15 16  1  0  0  0  0
 15 17  2  0  0  0  0
 18 19  1  0  0  0  0
 18 20  2  0  0  0  0
 19 34  1  0  0  0  0
 19 35  1  0  0  0  0
 19 36  1  0  0  0  0
 20 21  1  0  0  0  0
M  CHG  1  16  -1
M  END
$$$$
