HTS1710-00147674-01
 OpenBabel03232612353D

 18 18  0  0  0  0  0  0  0  0999 V2000
    3.3910  -10.0738  -28.9310 P   0  0  0  0  0  0  0  0  0  0  0  0
    4.7890   -9.8264  -32.3384 C   0  0  0  0  0  0  0  0  0  0  0  0
    3.7149  -10.3877  -31.6017 C   0  0  0  0  0  0  0  0  0  0  0  0
    5.3944   -8.4905  -31.9863 C   0  0  0  0  0  0  0  0  0  0  0  0
    3.2131   -9.7066  -30.5032 O   0  0  0  0  0  0  0  0  0  0  0  0
    2.1612  -10.7500  -28.4359 O   0  0  0  0  0  0  0  0  0  0  0  0
    5.1387   -8.0426  -30.8805 O   0  5  0  0  0  0  0  0  0  0  0  0
    4.5565  -10.9834  -28.7712 O   0  0  0  0  0  1  0  0  0  0  0  0
    3.6213   -8.8278  -28.1517 O   0  0  0  0  0  1  0  0  0  0  0  0
    6.1164   -7.9582  -32.8121 O   0  0  0  0  0  0  0  0  0  0  0  0
    5.3208  -10.5334  -33.4350 C   0  0  0  0  0  0  0  0  0  0  0  0
    3.1911  -11.6435  -31.9897 C   0  0  0  0  0  0  0  0  0  0  0  0
    4.7938  -11.7780  -33.8086 C   0  0  0  0  0  0  0  0  0  0  0  0
    3.7286  -12.3308  -33.0874 C   0  0  0  0  0  0  0  0  0  0  0  0
    6.1067  -10.1309  -33.9691 H   0  0  0  0  0  0  0  0  0  0  0  0
    2.4072  -12.0569  -31.4607 H   0  0  0  0  0  0  0  0  0  0  0  0
    5.1906  -12.2860  -34.6145 H   0  0  0  0  0  0  0  0  0  0  0  0
    3.3386  -13.2454  -33.3640 H   0  0  0  0  0  0  0  0  0  0  0  0
  1  5  1  0  0  0  0
  1  6  2  0  0  0  0
  1  8  1  0  0  0  0
  1  9  1  0  0  0  0
  2  3  2  0  0  0  0
  2  4  1  0  0  0  0
  2 11  1  0  0  0  0
  3  5  1  0  0  0  0
  3 12  1  0  0  0  0
  4  7  1  0  0  0  0
  4 10  2  0  0  0  0
 11 13  2  0  0  0  0
 11 15  1  0  0  0  0
 12 14  2  0  0  0  0
 12 16  1  0  0  0  0
 13 14  1  0  0  0  0
 13 17  1  0  0  0  0
 14 18  1  0  0  0  0
M  CHG  1   7  -1
M  END
$$$$
