HTS1710-00907078-01
 OpenBabel03232612353D

 40 42  0  0  1  0  0  0  0  0999 V2000
    5.1745   -7.6558  -31.7563 C   0  0  0  0  0  0  0  0  0  0  0  0
    5.2952   -8.5850  -32.7753 C   0  0  0  0  0  0  0  0  0  0  0  0
    4.3316  -10.2780  -31.1775 C   0  0  0  0  0  0  0  0  0  0  0  0
    4.2848   -9.2677  -30.2607 C   0  0  0  0  0  0  0  0  0  0  0  0
    4.7306   -9.9716  -32.6273 C   0  0  1  0  0  0  0  0  0  0  0  0
    4.5915   -7.9631  -30.5492 O   0  0  0  0  0  0  0  0  0  0  0  0
    5.6620   -6.2807  -31.9316 C   0  0  0  0  0  0  0  0  0  0  0  0
    5.8853   -8.3202  -33.9964 O   0  0  0  0  0  0  0  0  0  0  0  0
    6.2694   -6.0451  -33.2398 C   0  0  0  0  0  0  0  0  0  0  0  0
    3.9996  -11.7266  -30.8508 C   0  0  0  0  0  0  0  0  0  0  0  0
    3.5670  -10.1907  -33.6100 C   0  0  0  0  0  0  0  0  0  0  0  0
    6.3613   -7.0411  -34.1865 C   0  0  0  0  0  0  0  0  0  0  0  0
    3.9145   -9.4943  -28.9557 N   0  0  0  0  0  0  0  0  0  0  0  0
    5.5726   -5.4171  -31.0757 O   0  0  0  0  0  0  0  0  0  0  0  0
    3.7391  -10.8416  -34.8572 C   0  0  0  0  0  0  0  0  0  0  0  0
    4.7390  -12.4961  -30.2572 O   0  0  0  0  0  0  0  0  0  0  0  0
    2.7583  -12.0922  -31.3001 O   0  0  0  0  0  0  0  0  0  0  0  0
    4.9583  -11.3193  -35.2496 O   0  0  0  0  0  0  0  0  0  0  0  0
    6.9910   -6.7517  -35.5256 C   0  0  0  0  0  0  0  0  0  0  0  0
    2.2801   -9.7374  -33.2530 C   0  0  0  0  0  0  0  0  0  0  0  0
    6.6262   -5.4591  -36.0041 O   0  0  0  0  0  0  0  0  0  0  0  0
    2.6429  -11.0135  -35.7198 C   0  0  0  0  0  0  0  0  0  0  0  0
    2.5812  -13.3601  -31.9566 C   0  0  0  0  0  0  0  0  0  0  0  0
    1.1910   -9.9117  -34.1189 C   0  0  0  0  0  0  0  0  0  0  0  0
    1.3723  -10.5481  -35.3550 C   0  0  0  0  0  0  0  0  0  0  0  0
    5.5022  -10.6693  -32.8775 H   0  0  0  0  0  0  0  0  0  0  0  0
    6.6394   -5.1073  -33.4602 H   0  0  0  0  0  0  0  0  0  0  0  0
    4.2193  -10.3072  -28.4915 H   0  0  0  0  0  0  0  0  0  0  0  0
    3.3446   -8.8435  -28.4857 H   0  0  0  0  0  0  0  0  0  0  0  0
    5.1520  -12.2324  -35.1682 H   0  0  0  0  0  0  0  0  0  0  0  0
    6.6651   -7.4883  -36.2299 H   0  0  0  0  0  0  0  0  0  0  0  0
    8.0545   -6.7802  -35.4107 H   0  0  0  0  0  0  0  0  0  0  0  0
    2.1382   -9.2716  -32.3431 H   0  0  0  0  0  0  0  0  0  0  0  0
    6.6630   -4.8217  -35.2739 H   0  0  0  0  0  0  0  0  0  0  0  0
    2.7745  -11.4857  -36.6279 H   0  0  0  0  0  0  0  0  0  0  0  0
    1.5552  -13.4762  -32.2372 H   0  0  0  0  0  0  0  0  0  0  0  0
    2.8600  -14.1491  -31.2898 H   0  0  0  0  0  0  0  0  0  0  0  0
    3.1967  -13.3981  -32.8310 H   0  0  0  0  0  0  0  0  0  0  0  0
    0.2557   -9.5715  -33.8462 H   0  0  0  0  0  0  0  0  0  0  0  0
    0.5722  -10.6733  -35.9946 H   0  0  0  0  0  0  0  0  0  0  0  0
  1  2  2  0  0  0  0
  1  6  1  0  0  0  0
  1  7  1  0  0  0  0
  2  5  1  0  0  0  0
  2  8  1  0  0  0  0
  3  4  2  0  0  0  0
  3 10  1  0  0  0  0
  3  5  1  0  0  0  0
  4  6  1  0  0  0  0
  4 13  1  0  0  0  0
  5 11  1  0  0  0  0
  5 26  1  6  0  0  0
  7  9  1  0  0  0  0
  7 14  2  0  0  0  0
  8 12  1  0  0  0  0
  9 12  2  0  0  0  0
  9 27  1  0  0  0  0
 10 16  2  0  0  0  0
 10 17  1  0  0  0  0
 11 15  2  0  0  0  0
 11 20  1  0  0  0  0
 12 19  1  0  0  0  0
 13 28  1  0  0  0  0
 13 29  1  0  0  0  0
 15 18  1  0  0  0  0
 15 22  1  0  0  0  0
 17 23  1  0  0  0  0
 18 30  1  0  0  0  0
 19 21  1  0  0  0  0
 19 31  1  0  0  0  0
 19 32  1  0  0  0  0
 20 24  2  0  0  0  0
 20 33  1  0  0  0  0
 21 34  1  0  0  0  0
 22 25  2  0  0  0  0
 22 35  1  0  0  0  0
 23 36  1  0  0  0  0
 23 37  1  0  0  0  0
 23 38  1  0  0  0  0
 24 25  1  0  0  0  0
 24 39  1  0  0  0  0
 25 40  1  0  0  0  0
M  END
$$$$
