HTS1710-05334051-01
 OpenBabel03232612343D

 44 44  0  0  1  0  0  0  0  0999 V2000
    0.9074  -14.4792  -32.2065 C   0  0  0  0  0  0  0  0  0  0  0  0
    2.1006  -13.4943  -32.1586 C   0  0  0  0  0  0  0  0  0  0  0  0
    2.5875  -13.3118  -30.6980 C   0  0  0  0  0  0  0  0  0  0  0  0
    1.7119  -12.1326  -32.8126 C   0  0  0  0  0  0  0  0  0  0  0  0
    1.8567  -12.0949  -34.3707 C   0  0  2  0  0  0  0  0  0  0  0  0
    3.3630  -12.0526  -34.7545 C   0  0  0  0  0  0  0  0  0  0  0  0
    4.0866  -11.0175  -33.9988 N   0  0  0  0  0  0  0  0  0  0  0  0
    4.5343   -9.8310  -34.5692 C   0  0  0  0  0  0  0  0  0  0  0  0
    4.3302   -9.6247  -35.7527 O   0  0  0  0  0  0  0  0  0  0  0  0
    5.2505   -8.8737  -33.6938 C   0  0  0  0  0  0  0  0  0  0  0  0
    6.3373   -8.1562  -34.0775 N   0  0  0  0  0  0  0  0  0  0  0  0
    6.6351   -7.4516  -32.9977 C   0  0  0  0  0  0  0  0  0  0  0  0
    5.8311   -7.6318  -31.8918 O   0  0  0  0  0  0  0  0  0  0  0  0
    4.9590   -8.5568  -32.3951 C   0  0  0  0  0  0  0  0  0  0  0  0
    3.8513   -9.1081  -31.5320 C   0  0  0  0  0  0  0  0  0  0  0  0
    4.0320   -8.6389  -30.1821 O   0  0  0  0  0  0  0  0  0  0  0  0
    3.0235   -9.0655  -29.2387 C   0  0  0  0  0  0  0  0  0  0  0  0
    3.3869  -10.3724  -28.5107 C   0  0  0  0  0  0  0  0  0  0  0  0
    4.5206  -10.8055  -28.6195 O   0  5  0  0  0  0  0  0  0  0  0  0
    2.4905  -10.9058  -27.8809 O   0  0  0  0  0  0  0  0  0  0  0  0
    1.0839  -10.8893  -34.9952 C   0  0  0  0  0  0  0  0  0  0  0  0
    0.9811   -9.6807  -34.0561 C   0  0  0  0  0  0  0  0  0  0  0  0
    0.0381   -9.6563  -33.2831 O   0  5  0  0  0  0  0  0  0  0  0  0
    1.8321   -8.8153  -34.1620 O   0  0  0  0  0  0  0  0  0  0  0  0
    1.1918  -15.4064  -31.7543 H   0  0  0  0  0  0  0  0  0  0  0  0
    0.6268  -14.6504  -33.2248 H   0  0  0  0  0  0  0  0  0  0  0  0
    0.0788  -14.0619  -31.6736 H   0  0  0  0  0  0  0  0  0  0  0  0
    2.9124  -13.9017  -32.7242 H   0  0  0  0  0  0  0  0  0  0  0  0
    1.7946  -12.9045  -30.1061 H   0  0  0  0  0  0  0  0  0  0  0  0
    3.4239  -12.6447  -30.6816 H   0  0  0  0  0  0  0  0  0  0  0  0
    2.8799  -14.2604  -30.2984 H   0  0  0  0  0  0  0  0  0  0  0  0
    2.3415  -11.3721  -32.4001 H   0  0  0  0  0  0  0  0  0  0  0  0
    0.6745  -11.9785  -32.6000 H   0  0  0  0  0  0  0  0  0  0  0  0
    1.4184  -12.9850  -34.7715 H   0  0  0  0  0  0  0  0  0  0  0  0
    3.4489  -11.8428  -35.8003 H   0  0  0  0  0  0  0  0  0  0  0  0
    3.7950  -13.0025  -34.5182 H   0  0  0  0  0  0  0  0  0  0  0  0
    4.2621  -11.1727  -33.0426 H   0  0  0  0  0  0  0  0  0  0  0  0
    7.4328   -6.7970  -32.9838 H   0  0  0  0  0  0  0  0  0  0  0  0
    3.8828  -10.1775  -31.5474 H   0  0  0  0  0  0  0  0  0  0  0  0
    2.9040   -8.7795  -31.9055 H   0  0  0  0  0  0  0  0  0  0  0  0
    2.1052   -9.2148  -29.7672 H   0  0  0  0  0  0  0  0  0  0  0  0
    2.9402   -8.3004  -28.4953 H   0  0  0  0  0  0  0  0  0  0  0  0
    0.0942  -11.2121  -35.2425 H   0  0  0  0  0  0  0  0  0  0  0  0
    1.6331  -10.5740  -35.8575 H   0  0  0  0  0  0  0  0  0  0  0  0
  1  2  1  0  0  0  0
  1 25  1  0  0  0  0
  1 26  1  0  0  0  0
  1 27  1  0  0  0  0
  2  3  1  0  0  0  0
  2  4  1  0  0  0  0
  2 28  1  0  0  0  0
  3 29  1  0  0  0  0
  3 30  1  0  0  0  0
  3 31  1  0  0  0  0
  4  5  1  0  0  0  0
  4 32  1  0  0  0  0
  4 33  1  0  0  0  0
  5  6  1  0  0  0  0
  5 21  1  0  0  0  0
  5 34  1  6  0  0  0
  6  7  1  0  0  0  0
  6 35  1  0  0  0  0
  6 36  1  0  0  0  0
  7  8  1  0  0  0  0
  7 37  1  0  0  0  0
  8  9  2  0  0  0  0
  8 10  1  0  0  0  0
 10 11  1  0  0  0  0
 10 14  2  0  0  0  0
 11 12  2  0  0  0  0
 12 13  1  0  0  0  0
 12 38  1  0  0  0  0
 13 14  1  0  0  0  0
 14 15  1  0  0  0  0
 15 16  1  0  0  0  0
 15 39  1  0  0  0  0
 15 40  1  0  0  0  0
 16 17  1  0  0  0  0
 17 18  1  0  0  0  0
 17 41  1  0  0  0  0
 17 42  1  0  0  0  0
 18 19  1  0  0  0  0
 18 20  2  0  0  0  0
 21 22  1  0  0  0  0
 21 43  1  0  0  0  0
 21 44  1  0  0  0  0
 22 23  1  0  0  0  0
 22 24  2  0  0  0  0
M  CHG  2  19  -1  23  -1
M  END
$$$$
