HTS1710-00098865-01
 OpenBabel03232612353D

 23 22  0  0  0  0  0  0  0  0999 V2000
    4.5115   -8.3199  -31.1377 C   0  0  0  0  0  0  0  0  0  0  0  0
    3.4010  -11.1405  -28.5180 C   0  0  0  0  0  0  0  0  0  0  0  0
    4.2899   -9.9399  -35.7520 C   0  0  0  0  0  0  0  0  0  0  0  0
    3.7489   -7.4162  -30.8395 O   0  5  0  0  0  0  0  0  0  0  0  0
    3.9136   -9.5262  -31.8959 C   0  0  0  0  0  0  0  0  0  0  0  0
    4.6056  -11.3041  -28.4363 O   0  5  0  0  0  0  0  0  0  0  0  0
    5.4676  -10.1598  -35.9769 O   0  5  0  0  0  0  0  0  0  0  0  0
    3.9138  -10.8136  -31.0177 C   0  0  0  0  0  0  0  0  0  0  0  0
    4.6706   -9.7736  -33.2330 C   0  0  0  0  0  0  0  0  0  0  0  0
    3.7564  -10.3132  -34.3628 C   0  0  0  0  0  0  0  0  0  0  0  0
    2.8293  -10.8261  -29.9074 C   0  0  0  0  0  0  0  0  0  0  0  0
    5.7018   -8.3505  -30.8743 O   0  0  0  0  0  0  0  0  0  0  0  0
    3.5051   -9.4261  -36.5311 O   0  0  0  0  0  0  0  0  0  0  0  0
    2.6178  -11.1764  -27.5839 O   0  0  0  0  0  0  0  0  0  0  0  0
    2.8956   -9.2881  -32.1234 H   0  0  0  0  0  0  0  0  0  0  0  0
    4.8727  -10.9015  -30.5512 H   0  0  0  0  0  0  0  0  0  0  0  0
    3.6942  -11.6318  -31.6713 H   0  0  0  0  0  0  0  0  0  0  0  0
    5.4489  -10.4862  -33.0561 H   0  0  0  0  0  0  0  0  0  0  0  0
    5.0553   -8.8299  -33.5593 H   0  0  0  0  0  0  0  0  0  0  0  0
    3.7035  -11.3791  -34.2867 H   0  0  0  0  0  0  0  0  0  0  0  0
    2.7884   -9.8718  -34.2478 H   0  0  0  0  0  0  0  0  0  0  0  0
    2.3627   -9.8638  -29.8749 H   0  0  0  0  0  0  0  0  0  0  0  0
    2.1304  -11.5993  -30.1497 H   0  0  0  0  0  0  0  0  0  0  0  0
  1  4  1  0  0  0  0
  1  5  1  0  0  0  0
  1 12  2  0  0  0  0
  2 11  1  0  0  0  0
  2  6  1  0  0  0  0
  2 14  2  0  0  0  0
  3 10  1  0  0  0  0
  3  7  1  0  0  0  0
  3 13  2  0  0  0  0
  5  8  1  0  0  0  0
  5  9  1  0  0  0  0
  5 15  1  0  0  0  0
  8 11  1  0  0  0  0
  8 16  1  0  0  0  0
  8 17  1  0  0  0  0
  9 10  1  0  0  0  0
  9 18  1  0  0  0  0
  9 19  1  0  0  0  0
 10 20  1  0  0  0  0
 10 21  1  0  0  0  0
 11 22  1  0  0  0  0
 11 23  1  0  0  0  0
M  CHG  3   4  -1   6  -1   7  -1
M  END
$$$$
