HTS1710-01929760-01
 OpenBabel03232612353D

 35 35  0  0  0  0  0  0  0  0999 V2000
    3.3768  -10.9132  -29.7035 C   0  0  0  0  0  0  0  0  0  0  0  0
    3.3901   -9.5653  -29.3917 C   0  0  0  0  0  0  0  0  0  0  0  0
    1.8783   -8.0041  -30.6487 C   0  0  0  0  0  0  0  0  0  0  0  0
    3.1155   -8.4690  -30.3296 C   0  0  0  0  0  0  0  0  0  0  0  0
    3.0742  -11.4048  -31.1132 C   0  0  0  0  0  0  0  0  0  0  0  0
    3.6709  -12.0164  -28.6859 C   0  0  0  0  0  0  0  0  0  0  0  0
    1.5236   -6.8942  -31.5928 C   0  0  0  0  0  0  0  0  0  0  0  0
    0.3072   -7.0570  -32.4673 C   0  0  0  0  0  0  0  0  0  0  0  0
    3.6270  -10.9649  -32.1062 O   0  0  0  0  0  0  0  0  0  0  0  0
    2.9014  -12.3430  -27.7950 O   0  0  0  0  0  0  0  0  0  0  0  0
    2.1933   -5.8787  -31.6711 O   0  0  0  0  0  0  0  0  0  0  0  0
   -0.9417   -6.5140  -32.0983 C   0  0  0  0  0  0  0  0  0  0  0  0
    0.4083   -7.7931  -33.6665 C   0  0  0  0  0  0  0  0  0  0  0  0
    3.6476   -9.0991  -28.1462 O   0  5  0  0  0  0  0  0  0  0  0  0
    2.1259  -12.3803  -31.3569 N   0  0  0  0  0  0  0  0  0  0  0  0
    4.2124   -7.8869  -30.8676 O   0  5  0  0  0  0  0  0  0  0  0  0
    4.8885  -12.6168  -28.8515 O   0  0  0  0  0  0  0  0  0  0  0  0
   -1.9458   -7.4134  -34.1197 C   0  0  0  0  0  0  0  0  0  0  0  0
   -0.7128   -7.9678  -34.4927 C   0  0  0  0  0  0  0  0  0  0  0  0
   -2.0639   -6.6896  -32.9244 C   0  0  0  0  0  0  0  0  0  0  0  0
   -3.0260   -7.5826  -34.9121 F   0  0  0  0  0  0  0  0  0  0  0  0
    5.0677  -13.9981  -28.4879 C   0  0  0  0  0  0  0  0  0  0  0  0
    6.0964  -14.0586  -27.3433 C   0  0  0  0  0  0  0  0  0  0  0  0
    1.0853   -8.4729  -30.1837 H   0  0  0  0  0  0  0  0  0  0  0  0
   -1.0311   -5.9850  -31.2168 H   0  0  0  0  0  0  0  0  0  0  0  0
    1.3139   -8.2064  -33.9385 H   0  0  0  0  0  0  0  0  0  0  0  0
    1.9518  -12.6782  -32.2790 H   0  0  0  0  0  0  0  0  0  0  0  0
    1.6245  -12.7772  -30.6084 H   0  0  0  0  0  0  0  0  0  0  0  0
   -0.6301   -8.5025  -35.3715 H   0  0  0  0  0  0  0  0  0  0  0  0
   -2.9741   -6.2866  -32.6521 H   0  0  0  0  0  0  0  0  0  0  0  0
    5.4281  -14.5515  -29.3299 H   0  0  0  0  0  0  0  0  0  0  0  0
    4.1374  -14.4241  -28.1750 H   0  0  0  0  0  0  0  0  0  0  0  0
    7.0202  -13.6296  -27.6710 H   0  0  0  0  0  0  0  0  0  0  0  0
    6.2569  -15.0783  -27.0615 H   0  0  0  0  0  0  0  0  0  0  0  0
    5.7268  -13.5100  -26.5023 H   0  0  0  0  0  0  0  0  0  0  0  0
  1  2  2  0  0  0  0
  1  5  1  0  0  0  0
  1  6  1  0  0  0  0
  2  4  1  0  0  0  0
  2 14  1  0  0  0  0
  3  4  2  0  0  0  0
  3  7  1  0  0  0  0
  3 24  1  0  0  0  0
  4 16  1  0  0  0  0
  5  9  2  0  0  0  0
  5 15  1  0  0  0  0
  6 10  2  0  0  0  0
  6 17  1  0  0  0  0
  7  8  1  0  0  0  0
  7 11  2  0  0  0  0
  8 12  2  0  0  0  0
  8 13  1  0  0  0  0
 12 20  1  0  0  0  0
 12 25  1  0  0  0  0
 13 19  2  0  0  0  0
 13 26  1  0  0  0  0
 15 27  1  0  0  0  0
 15 28  1  0  0  0  0
 17 22  1  0  0  0  0
 18 19  1  0  0  0  0
 18 20  2  0  0  0  0
 18 21  1  0  0  0  0
 19 29  1  0  0  0  0
 20 30  1  0  0  0  0
 22 23  1  0  0  0  0
 22 31  1  0  0  0  0
 22 32  1  0  0  0  0
 23 33  1  0  0  0  0
 23 34  1  0  0  0  0
 23 35  1  0  0  0  0
M  CHG  2  14  -1  16  -1
M  END
$$$$
