HTS1710-00243157-01
 OpenBabel03232612353D

 21 22  0  0  0  0  0  0  0  0999 V2000
    3.8529  -10.3417  -30.2417 C   0  0  0  0  0  0  0  0  0  0  0  0
    4.6786   -9.6592  -31.1659 C   0  0  0  0  0  0  0  0  0  0  0  0
    4.3931   -9.7661  -32.5473 C   0  0  0  0  0  0  0  0  0  0  0  0
    3.2896  -10.5517  -32.9626 C   0  0  0  0  0  0  0  0  0  0  0  0
    2.5078  -11.1944  -32.0716 N   0  0  0  0  0  0  0  0  0  0  0  0
    4.0670  -10.2867  -28.7446 C   0  0  0  0  0  0  0  0  0  0  0  0
    2.7786  -11.0912  -30.7576 C   0  0  0  0  0  0  0  0  0  0  0  0
    3.4759  -10.1303  -36.7789 C   0  0  0  0  0  0  0  0  0  0  0  0
    3.7962  -10.0018  -35.3063 C   0  0  0  0  0  0  0  0  0  0  0  0
    3.0080  -10.6573  -34.3379 C   0  0  0  0  0  0  0  0  0  0  0  0
    5.1837   -9.1079  -33.5111 C   0  0  0  0  0  0  0  0  0  0  0  0
    4.8882   -9.2242  -34.8760 C   0  0  0  0  0  0  0  0  0  0  0  0
    3.9203   -9.2149  -28.1823 O   0  5  0  0  0  0  0  0  0  0  0  0
    3.0995  -11.2175  -37.1808 O   0  5  0  0  0  0  0  0  0  0  0  0
    5.7266   -8.8931  -30.7316 O   0  5  0  0  0  0  0  0  0  0  0  0
    4.3891  -11.3259  -28.1959 O   0  0  0  0  0  0  0  0  0  0  0  0
    3.6149   -9.1380  -37.4737 O   0  0  0  0  0  0  0  0  0  0  0  0
    2.1658  -11.5880  -30.0923 H   0  0  0  0  0  0  0  0  0  0  0  0
    2.2051  -11.2284  -34.6450 H   0  0  0  0  0  0  0  0  0  0  0  0
    5.9874   -8.5353  -33.2088 H   0  0  0  0  0  0  0  0  0  0  0  0
    5.4750   -8.7364  -35.5707 H   0  0  0  0  0  0  0  0  0  0  0  0
  1  2  2  0  0  0  0
  1  6  1  0  0  0  0
  1  7  1  0  0  0  0
  2  3  1  0  0  0  0
  2 15  1  0  0  0  0
  3 11  2  0  0  0  0
  3  4  1  0  0  0  0
  4  5  1  0  0  0  0
  4 10  2  0  0  0  0
  5  7  2  0  0  0  0
  6 13  1  0  0  0  0
  6 16  2  0  0  0  0
  7 18  1  0  0  0  0
  8  9  1  0  0  0  0
  8 14  1  0  0  0  0
  8 17  2  0  0  0  0
  9 10  1  0  0  0  0
  9 12  2  0  0  0  0
 10 19  1  0  0  0  0
 11 12  1  0  0  0  0
 11 20  1  0  0  0  0
 12 21  1  0  0  0  0
M  CHG  3  13  -1  14  -1  15  -1
M  END
$$$$
