HTS1710-01161306-01
 OpenBabel03232612363D

 34 36  0  0  1  0  0  0  0  0999 V2000
    2.8830  -10.2042  -32.4982 N   0  0  0  0  0  0  0  0  0  0  0  0
    2.8284  -11.5388  -32.8871 C   0  0  0  0  0  0  0  0  0  0  0  0
    2.0070   -9.3741  -33.1968 C   0  0  0  0  0  0  0  0  0  0  0  0
    1.2342  -10.1605  -34.1867 C   0  0  0  0  0  0  0  0  0  0  0  0
    1.6385  -11.8641  -34.1794 S   0  0  0  0  0  0  0  0  0  0  0  0
    3.8358   -9.6669  -31.4886 C   0  0  2  0  0  0  0  0  0  0  0  0
    3.1095   -9.2003  -30.1920 C   0  0  0  0  0  0  0  0  0  0  0  0
    0.3049   -9.5619  -35.0116 C   0  0  0  0  0  0  0  0  0  0  0  0
    4.7576   -8.5999  -32.1256 C   0  0  0  0  0  0  0  0  0  0  0  0
    3.7932  -12.7767  -32.2967 S   0  0  0  0  0  0  0  0  0  0  0  0
   -0.5818   -6.1620  -36.5054 C   0  0  0  0  0  0  0  0  0  0  0  0
    3.4012  -10.1249  -29.0019 C   0  0  0  0  0  0  0  0  0  0  0  0
   -1.2285   -5.5782  -35.4558 C   0  0  0  0  0  0  0  0  0  0  0  0
    1.9020   -8.1716  -33.0151 O   0  0  0  0  0  0  0  0  0  0  0  0
   -0.5314   -5.3131  -37.5684 O   0  0  0  0  0  0  0  0  0  0  0  0
   -0.2168   -8.1757  -35.2189 C   0  0  0  0  0  0  0  0  0  0  0  0
   -1.6340   -4.3194  -35.7762 O   0  0  0  0  0  0  0  0  0  0  0  0
   -1.2034   -4.0874  -37.1507 C   0  0  0  0  0  0  0  0  0  0  0  0
   -0.0604   -7.4572  -36.4324 C   0  0  0  0  0  0  0  0  0  0  0  0
    5.6530   -8.9742  -32.8651 O   0  5  0  0  0  0  0  0  0  0  0  0
    2.4453  -10.5857  -28.4033 O   0  5  0  0  0  0  0  0  0  0  0  0
   -1.4089   -6.2439  -34.2431 C   0  0  0  0  0  0  0  0  0  0  0  0
    4.5206   -7.4364  -31.8494 O   0  0  0  0  0  0  0  0  0  0  0  0
   -0.8952   -7.5519  -34.1346 C   0  0  0  0  0  0  0  0  0  0  0  0
    4.5724  -10.3212  -28.7233 O   0  0  0  0  0  0  0  0  0  0  0  0
    4.4789  -10.4582  -31.1642 H   0  0  0  0  0  0  0  0  0  0  0  0
    2.0547   -9.1914  -30.3715 H   0  0  0  0  0  0  0  0  0  0  0  0
    3.4698   -8.2233  -29.9461 H   0  0  0  0  0  0  0  0  0  0  0  0
   -0.1433  -10.2418  -35.6455 H   0  0  0  0  0  0  0  0  0  0  0  0
   -2.0482   -3.8932  -37.7781 H   0  0  0  0  0  0  0  0  0  0  0  0
   -0.5558   -3.2387  -37.2228 H   0  0  0  0  0  0  0  0  0  0  0  0
    0.4250   -7.8793  -37.2394 H   0  0  0  0  0  0  0  0  0  0  0  0
   -1.9004   -5.7950  -33.4543 H   0  0  0  0  0  0  0  0  0  0  0  0
   -1.0136   -8.0687  -33.2492 H   0  0  0  0  0  0  0  0  0  0  0  0
  1  2  1  0  0  0  0
  1  3  1  0  0  0  0
  1  6  1  0  0  0  0
  2  5  1  0  0  0  0
  2 10  2  0  0  0  0
  3  4  1  0  0  0  0
  3 14  2  0  0  0  0
  4  8  2  0  0  0  0
  4  5  1  0  0  0  0
  6  7  1  0  0  0  0
  6  9  1  0  0  0  0
  6 26  1  1  0  0  0
  7 12  1  0  0  0  0
  7 27  1  0  0  0  0
  7 28  1  0  0  0  0
  8 16  1  0  0  0  0
  8 29  1  0  0  0  0
  9 20  1  0  0  0  0
  9 23  2  0  0  0  0
 11 19  2  0  0  0  0
 11 15  1  0  0  0  0
 11 13  1  0  0  0  0
 12 21  1  0  0  0  0
 12 25  2  0  0  0  0
 13 22  2  0  0  0  0
 13 17  1  0  0  0  0
 15 18  1  0  0  0  0
 16 19  1  0  0  0  0
 16 24  2  0  0  0  0
 17 18  1  0  0  0  0
 18 30  1  0  0  0  0
 18 31  1  0  0  0  0
 19 32  1  0  0  0  0
 22 24  1  0  0  0  0
 22 33  1  0  0  0  0
 24 34  1  0  0  0  0
M  CHG  2  20  -1  21  -1
M  END
$$$$
