HTS1710-02483552-01
 OpenBabel03232612353D

 47 49  0  0  1  0  0  0  0  0999 V2000
    5.7771   -7.5661  -33.2400 C   0  0  0  0  0  0  0  0  0  0  0  0
    5.1245   -7.3004  -32.0497 C   0  0  0  0  0  0  0  0  0  0  0  0
    4.5175   -9.7342  -31.9744 C   0  0  0  0  0  0  0  0  0  0  0  0
    5.2096   -9.8650  -33.1491 C   0  0  0  0  0  0  0  0  0  0  0  0
    4.2367   -8.3364  -31.4189 C   0  0  2  0  0  0  0  0  0  0  0  0
    5.7104   -8.7965  -33.8495 O   0  0  0  0  0  0  0  0  0  0  0  0
    6.5718   -6.5277  -33.9083 C   0  0  0  0  0  0  0  0  0  0  0  0
    5.1676   -6.0839  -31.3968 O   0  0  0  0  0  0  0  0  0  0  0  0
    2.7677   -7.9607  -31.6073 C   0  0  0  0  0  0  0  0  0  0  0  0
    6.5913   -5.2584  -33.1826 C   0  0  0  0  0  0  0  0  0  0  0  0
    3.9439  -10.8608  -31.1280 C   0  0  0  0  0  0  0  0  0  0  0  0
    5.9107   -5.0909  -31.9966 C   0  0  0  0  0  0  0  0  0  0  0  0
    1.9983   -8.5898  -32.6040 C   0  0  0  0  0  0  0  0  0  0  0  0
    0.6429   -8.2422  -32.7918 C   0  0  0  0  0  0  0  0  0  0  0  0
    5.4570  -11.0834  -33.7351 N   0  0  0  0  0  0  0  0  0  0  0  0
    2.1745   -6.9763  -30.7984 C   0  0  0  0  0  0  0  0  0  0  0  0
    7.1624   -6.7002  -34.9608 O   0  0  0  0  0  0  0  0  0  0  0  0
    0.0557   -7.2530  -31.9767 C   0  0  0  0  0  0  0  0  0  0  0  0
    4.3482  -11.1081  -30.0025 O   0  0  0  0  0  0  0  0  0  0  0  0
    0.8296   -6.6220  -30.9785 C   0  0  0  0  0  0  0  0  0  0  0  0
    2.9446  -11.5781  -31.7262 O   0  0  0  0  0  0  0  0  0  0  0  0
   -0.1335   -8.8483  -33.7635 O   0  0  0  0  0  0  0  0  0  0  0  0
   -1.2729   -6.9257  -32.1844 O   0  0  0  0  0  0  0  0  0  0  0  0
    5.9631   -3.7664  -31.2753 C   0  0  0  0  0  0  0  0  0  0  0  0
    5.1271   -3.7666  -30.1201 O   0  0  0  0  0  0  0  0  0  0  0  0
    2.7748  -12.9716  -31.4049 C   0  0  0  0  0  0  0  0  0  0  0  0
    0.4162   -9.6620  -34.8155 C   0  0  0  0  0  0  0  0  0  0  0  0
   -1.7188   -5.5854  -32.4560 C   0  0  0  0  0  0  0  0  0  0  0  0
    4.4532   -8.3614  -30.3714 H   0  0  0  0  0  0  0  0  0  0  0  0
    7.1293   -4.4670  -33.5691 H   0  0  0  0  0  0  0  0  0  0  0  0
    2.4287   -9.3117  -33.2028 H   0  0  0  0  0  0  0  0  0  0  0  0
    6.0093  -11.1353  -34.5484 H   0  0  0  0  0  0  0  0  0  0  0  0
    5.0820  -11.9042  -33.3415 H   0  0  0  0  0  0  0  0  0  0  0  0
    2.7330   -6.5106  -30.0662 H   0  0  0  0  0  0  0  0  0  0  0  0
    0.4041   -5.8976  -30.3793 H   0  0  0  0  0  0  0  0  0  0  0  0
    5.6361   -2.9949  -31.9408 H   0  0  0  0  0  0  0  0  0  0  0  0
    6.9712   -3.5956  -30.9599 H   0  0  0  0  0  0  0  0  0  0  0  0
    5.2141   -2.9183  -29.6578 H   0  0  0  0  0  0  0  0  0  0  0  0
    1.9519  -13.3684  -31.9620 H   0  0  0  0  0  0  0  0  0  0  0  0
    2.5796  -13.0750  -30.3580 H   0  0  0  0  0  0  0  0  0  0  0  0
    3.6667  -13.5068  -31.6560 H   0  0  0  0  0  0  0  0  0  0  0  0
   -0.3752  -10.0190  -35.4409 H   0  0  0  0  0  0  0  0  0  0  0  0
    0.9361  -10.4939  -34.3882 H   0  0  0  0  0  0  0  0  0  0  0  0
    1.0965   -9.0780  -35.3995 H   0  0  0  0  0  0  0  0  0  0  0  0
   -2.7815   -5.5813  -32.5799 H   0  0  0  0  0  0  0  0  0  0  0  0
   -1.2539   -5.2294  -33.3516 H   0  0  0  0  0  0  0  0  0  0  0  0
   -1.4525   -4.9485  -31.6385 H   0  0  0  0  0  0  0  0  0  0  0  0
  1  2  2  0  0  0  0
  1  6  1  0  0  0  0
  1  7  1  0  0  0  0
  2  5  1  0  0  0  0
  2  8  1  0  0  0  0
  3  4  2  0  0  0  0
  3  5  1  0  0  0  0
  3 11  1  0  0  0  0
  4  6  1  0  0  0  0
  4 15  1  0  0  0  0
  5  9  1  0  0  0  0
  5 29  1  1  0  0  0
  7 10  1  0  0  0  0
  7 17  2  0  0  0  0
  8 12  1  0  0  0  0
  9 13  2  0  0  0  0
  9 16  1  0  0  0  0
 10 12  2  0  0  0  0
 10 30  1  0  0  0  0
 11 19  2  0  0  0  0
 11 21  1  0  0  0  0
 12 24  1  0  0  0  0
 13 14  1  0  0  0  0
 13 31  1  0  0  0  0
 14 18  2  0  0  0  0
 14 22  1  0  0  0  0
 15 32  1  0  0  0  0
 15 33  1  0  0  0  0
 16 20  2  0  0  0  0
 16 34  1  0  0  0  0
 18 20  1  0  0  0  0
 18 23  1  0  0  0  0
 20 35  1  0  0  0  0
 21 26  1  0  0  0  0
 22 27  1  0  0  0  0
 23 28  1  0  0  0  0
 24 25  1  0  0  0  0
 24 36  1  0  0  0  0
 24 37  1  0  0  0  0
 25 38  1  0  0  0  0
 26 39  1  0  0  0  0
 26 40  1  0  0  0  0
 26 41  1  0  0  0  0
 27 42  1  0  0  0  0
 27 43  1  0  0  0  0
 27 44  1  0  0  0  0
 28 45  1  0  0  0  0
 28 46  1  0  0  0  0
 28 47  1  0  0  0  0
M  END
$$$$
