HTS1710-00844636-01
 OpenBabel03232612353D

 37 38  0  0  1  0  0  0  0  0999 V2000
   -0.2482   -8.0864  -35.3481 N   0  0  0  0  0  0  0  0  0  0  0  0
   -0.0057   -7.3449  -36.4937 C   0  0  0  0  0  0  0  0  0  0  0  0
   -0.8548   -6.1240  -36.6133 C   0  0  0  0  0  0  0  0  0  0  0  0
   -1.9820   -6.6162  -34.4942 N   0  0  0  0  0  0  0  0  0  0  0  0
   -1.2043   -7.6957  -34.4113 C   0  0  0  0  0  0  0  0  0  0  0  0
    1.5391   -9.0241  -33.9542 C   0  0  0  0  0  0  0  0  0  0  0  0
   -1.7996   -5.8306  -35.6032 C   0  0  0  0  0  0  0  0  0  0  0  0
    0.5387   -9.3077  -35.0726 C   0  0  0  0  0  0  0  0  0  0  0  0
    2.7891   -9.6183  -34.0417 N   0  0  0  0  0  0  0  0  0  0  0  0
    5.1052   -8.8731  -33.7071 C   0  0  0  0  0  0  0  0  0  0  0  0
    3.8367   -9.4228  -33.0294 C   0  0  2  0  0  0  0  0  0  0  0  0
    0.8274   -7.6500  -37.3325 O   0  0  0  0  0  0  0  0  0  0  0  0
    4.3850  -10.1846  -29.7975 C   0  0  0  0  0  0  0  0  0  0  0  0
    1.2644   -8.2884  -33.0219 O   0  0  0  0  0  0  0  0  0  0  0  0
    5.2344   -9.0617  -34.9056 O   0  5  0  0  0  0  0  0  0  0  0  0
    4.9397   -9.1390  -30.0888 O   0  5  0  0  0  0  0  0  0  0  0  0
    4.1220  -10.7601  -32.2936 C   0  0  0  0  0  0  0  0  0  0  0  0
    3.5032  -10.8355  -30.8720 C   0  0  0  0  0  0  0  0  0  0  0  0
    5.8947   -8.2703  -33.0005 O   0  0  0  0  0  0  0  0  0  0  0  0
   -0.7209   -5.2636  -37.7210 C   0  0  0  0  0  0  0  0  0  0  0  0
    4.4816  -10.7627  -28.7286 O   0  0  0  0  0  0  0  0  0  0  0  0
   -2.5968   -4.6771  -35.7248 C   0  0  0  0  0  0  0  0  0  0  0  0
   -1.5216   -4.1174  -37.8284 C   0  0  0  0  0  0  0  0  0  0  0  0
   -2.4605   -3.8247  -36.8301 C   0  0  0  0  0  0  0  0  0  0  0  0
   -1.3202   -8.2957  -33.5797 H   0  0  0  0  0  0  0  0  0  0  0  0
   -0.1192  -10.0961  -34.7718 H   0  0  0  0  0  0  0  0  0  0  0  0
    1.0646   -9.6014  -35.9570 H   0  0  0  0  0  0  0  0  0  0  0  0
    2.9832  -10.1958  -34.8151 H   0  0  0  0  0  0  0  0  0  0  0  0
    3.5080   -8.7128  -32.2995 H   0  0  0  0  0  0  0  0  0  0  0  0
    5.1819  -10.8785  -32.2072 H   0  0  0  0  0  0  0  0  0  0  0  0
    3.6697  -11.5379  -32.8727 H   0  0  0  0  0  0  0  0  0  0  0  0
    2.5572  -10.3357  -30.8852 H   0  0  0  0  0  0  0  0  0  0  0  0
    3.4052  -11.8709  -30.6207 H   0  0  0  0  0  0  0  0  0  0  0  0
   -0.0300   -5.4780  -38.4569 H   0  0  0  0  0  0  0  0  0  0  0  0
   -3.2894   -4.4560  -34.9924 H   0  0  0  0  0  0  0  0  0  0  0  0
   -1.4197   -3.4903  -38.6417 H   0  0  0  0  0  0  0  0  0  0  0  0
   -3.0515   -2.9823  -36.9082 H   0  0  0  0  0  0  0  0  0  0  0  0
  1  2  1  0  0  0  0
  1  5  1  0  0  0  0
  1  8  1  0  0  0  0
  2  3  1  0  0  0  0
  2 12  2  0  0  0  0
  3 20  2  0  0  0  0
  3  7  1  0  0  0  0
  4  5  2  0  0  0  0
  4  7  1  0  0  0  0
  5 25  1  0  0  0  0
  6  8  1  0  0  0  0
  6  9  1  0  0  0  0
  6 14  2  0  0  0  0
  7 22  2  0  0  0  0
  8 26  1  0  0  0  0
  8 27  1  0  0  0  0
  9 11  1  0  0  0  0
  9 28  1  0  0  0  0
 10 11  1  0  0  0  0
 10 15  1  0  0  0  0
 10 19  2  0  0  0  0
 11 17  1  0  0  0  0
 11 29  1  1  0  0  0
 13 18  1  0  0  0  0
 13 16  1  0  0  0  0
 13 21  2  0  0  0  0
 17 18  1  0  0  0  0
 17 30  1  0  0  0  0
 17 31  1  0  0  0  0
 18 32  1  0  0  0  0
 18 33  1  0  0  0  0
 20 23  1  0  0  0  0
 20 34  1  0  0  0  0
 22 24  1  0  0  0  0
 22 35  1  0  0  0  0
 23 24  2  0  0  0  0
 23 36  1  0  0  0  0
 24 37  1  0  0  0  0
M  CHG  2  15  -1  16  -1
M  END
$$$$
