HTS1710-01935388-01
 OpenBabel03232612353D

 45 47  0  0  1  0  0  0  0  0999 V2000
    4.3822   -9.0153  -30.6732 C   0  0  0  0  0  0  0  0  0  0  0  0
    4.8462   -9.8652  -31.6614 C   0  0  0  0  0  0  0  0  0  0  0  0
    5.5670   -7.8187  -32.9209 C   0  0  0  0  0  0  0  0  0  0  0  0
    5.0828   -7.0922  -31.8665 C   0  0  0  0  0  0  0  0  0  0  0  0
    4.3843   -7.6488  -30.8265 O   0  0  0  0  0  0  0  0  0  0  0  0
    5.2967   -9.3227  -32.9874 C   0  0  2  0  0  0  0  0  0  0  0  0
    3.8652   -9.5489  -29.4061 C   0  0  0  0  0  0  0  0  0  0  0  0
    4.8914  -11.2411  -31.5421 O   0  0  0  0  0  0  0  0  0  0  0  0
    3.9281  -11.0070  -29.3243 C   0  0  0  0  0  0  0  0  0  0  0  0
    6.3337   -7.2818  -34.1195 C   0  0  0  0  0  0  0  0  0  0  0  0
    4.4299  -11.7692  -30.3564 C   0  0  0  0  0  0  0  0  0  0  0  0
    4.2712   -9.6407  -34.0769 C   0  0  0  0  0  0  0  0  0  0  0  0
    5.2579   -5.7319  -31.7586 N   0  0  0  0  0  0  0  0  0  0  0  0
    3.4293   -8.8517  -28.5062 O   0  0  0  0  0  0  0  0  0  0  0  0
    6.2036   -7.7460  -35.2423 O   0  0  0  0  0  0  0  0  0  0  0  0
    2.3893  -10.2135  -36.1058 N   0  0  0  0  0  0  0  0  0  0  0  0
    7.1603   -6.2277  -33.8446 O   0  0  0  0  0  0  0  0  0  0  0  0
    4.4834  -13.2683  -30.2269 C   0  0  0  0  0  0  0  0  0  0  0  0
    5.4032  -13.6562  -29.2127 O   0  0  0  0  0  0  0  0  0  0  0  0
    7.0647   -3.2425  -32.5341 O   0  0  0  0  0  0  0  0  0  0  0  0
    2.0298   -9.5352  -34.9978 C   0  0  0  0  0  0  0  0  0  0  0  0
    3.6721  -10.6139  -36.2155 C   0  0  0  0  0  0  0  0  0  0  0  0
    4.6422  -10.3506  -35.2327 C   0  0  0  0  0  0  0  0  0  0  0  0
    2.9286   -9.2297  -33.9620 C   0  0  0  0  0  0  0  0  0  0  0  0
    6.8410   -4.8951  -34.2990 C   0  0  0  0  0  0  0  0  0  0  0  0
    7.7802   -3.8725  -33.6121 C   0  0  0  0  0  0  0  0  0  0  0  0
    6.3596   -2.0515  -32.9168 C   0  0  0  0  0  0  0  0  0  0  0  0
    6.2193   -9.8041  -33.2364 H   0  0  0  0  0  0  0  0  0  0  0  0
    3.5877  -11.4776  -28.4714 H   0  0  0  0  0  0  0  0  0  0  0  0
    4.5387   -5.1708  -31.3883 H   0  0  0  0  0  0  0  0  0  0  0  0
    6.1026   -5.3196  -32.0516 H   0  0  0  0  0  0  0  0  0  0  0  0
    4.7925  -13.6901  -31.1605 H   0  0  0  0  0  0  0  0  0  0  0  0
    3.5101  -13.6242  -29.9610 H   0  0  0  0  0  0  0  0  0  0  0  0
    4.9385  -14.1709  -28.5345 H   0  0  0  0  0  0  0  0  0  0  0  0
    1.0495   -9.2261  -34.9062 H   0  0  0  0  0  0  0  0  0  0  0  0
    3.9546  -11.1373  -37.0589 H   0  0  0  0  0  0  0  0  0  0  0  0
    5.6142  -10.6742  -35.3578 H   0  0  0  0  0  0  0  0  0  0  0  0
    2.6098   -8.7114  -33.1285 H   0  0  0  0  0  0  0  0  0  0  0  0
    5.8252   -4.6681  -34.0509 H   0  0  0  0  0  0  0  0  0  0  0  0
    6.9716   -4.8406  -35.3596 H   0  0  0  0  0  0  0  0  0  0  0  0
    8.6415   -4.3768  -33.2266 H   0  0  0  0  0  0  0  0  0  0  0  0
    8.0973   -3.1353  -34.3198 H   0  0  0  0  0  0  0  0  0  0  0  0
    5.8563   -1.6454  -32.0643 H   0  0  0  0  0  0  0  0  0  0  0  0
    5.6425   -2.2894  -33.6745 H   0  0  0  0  0  0  0  0  0  0  0  0
    7.0545   -1.3321  -33.2968 H   0  0  0  0  0  0  0  0  0  0  0  0
  1  2  2  0  0  0  0
  1  5  1  0  0  0  0
  1  7  1  0  0  0  0
  2  6  1  0  0  0  0
  2  8  1  0  0  0  0
  3  4  2  0  0  0  0
  3  6  1  0  0  0  0
  3 10  1  0  0  0  0
  4  5  1  0  0  0  0
  4 13  1  0  0  0  0
  6 12  1  0  0  0  0
  6 28  1  6  0  0  0
  7  9  1  0  0  0  0
  7 14  2  0  0  0  0
  8 11  1  0  0  0  0
  9 11  2  0  0  0  0
  9 29  1  0  0  0  0
 10 15  2  0  0  0  0
 10 17  1  0  0  0  0
 11 18  1  0  0  0  0
 12 23  2  0  0  0  0
 12 24  1  0  0  0  0
 13 30  1  0  0  0  0
 13 31  1  0  0  0  0
 16 21  1  0  0  0  0
 16 22  2  0  0  0  0
 17 25  1  0  0  0  0
 18 19  1  0  0  0  0
 18 32  1  0  0  0  0
 18 33  1  0  0  0  0
 19 34  1  0  0  0  0
 20 26  1  0  0  0  0
 20 27  1  0  0  0  0
 21 24  2  0  0  0  0
 21 35  1  0  0  0  0
 22 23  1  0  0  0  0
 22 36  1  0  0  0  0
 23 37  1  0  0  0  0
 24 38  1  0  0  0  0
 25 26  1  0  0  0  0
 25 39  1  0  0  0  0
 25 40  1  0  0  0  0
 26 41  1  0  0  0  0
 26 42  1  0  0  0  0
 27 43  1  0  0  0  0
 27 44  1  0  0  0  0
 27 45  1  0  0  0  0
M  END
$$$$
