HTS1710-00768749-01
 OpenBabel03232612353D

 44 45  0  0  0  0  0  0  0  0999 V2000
   -0.7216   -5.7076  -36.5199 C   0  0  0  0  0  0  0  0  0  0  0  0
    0.0598   -6.5502  -37.2597 O   0  0  0  0  0  0  0  0  0  0  0  0
    0.3116   -8.0440  -35.3810 C   0  0  0  0  0  0  0  0  0  0  0  0
    0.5895   -7.7145  -36.8101 C   0  0  0  0  0  0  0  0  0  0  0  0
   -0.4664   -7.2439  -34.5344 C   0  0  0  0  0  0  0  0  0  0  0  0
   -1.0155   -6.0289  -35.1794 C   0  0  0  0  0  0  0  0  0  0  0  0
   -1.2318   -4.5386  -37.1289 C   0  0  0  0  0  0  0  0  0  0  0  0
    3.1860  -10.0634  -31.7867 N   0  0  0  0  0  0  0  0  0  0  0  0
    2.2102  -10.2162  -32.7864 C   0  0  0  0  0  0  0  0  0  0  0  0
    0.9311   -9.3529  -34.8835 C   0  0  0  0  0  0  0  0  0  0  0  0
   -1.8623   -5.1614  -34.4581 C   0  0  0  0  0  0  0  0  0  0  0  0
    3.5664  -10.4664  -29.3292 C   0  0  0  0  0  0  0  0  0  0  0  0
    4.0160   -7.7121  -31.3022 C   0  0  0  0  0  0  0  0  0  0  0  0
   -2.0763   -3.6901  -36.3836 C   0  0  0  0  0  0  0  0  0  0  0  0
    3.2820  -11.0887  -30.7086 C   0  0  0  0  0  0  0  0  0  0  0  0
    4.3178   -9.0968  -31.8982 C   0  0  0  0  0  0  0  0  0  0  0  0
    1.2398   -8.4285  -37.5523 O   0  0  0  0  0  0  0  0  0  0  0  0
    2.1189   -9.1487  -33.8987 C   0  0  0  0  0  0  0  0  0  0  0  0
    1.4749  -11.1898  -32.8306 O   0  0  0  0  0  0  0  0  0  0  0  0
   -2.3872   -4.0072  -35.0541 C   0  0  0  0  0  0  0  0  0  0  0  0
    4.7278  -10.3633  -28.9727 O   0  5  0  0  0  0  0  0  0  0  0  0
    2.9745   -7.5902  -30.6788 O   0  5  0  0  0  0  0  0  0  0  0  0
   -0.7353   -7.6318  -33.0866 C   0  0  0  0  0  0  0  0  0  0  0  0
    2.5979  -10.1023  -28.6850 O   0  0  0  0  0  0  0  0  0  0  0  0
    4.8459   -6.8361  -31.4702 O   0  0  0  0  0  0  0  0  0  0  0  0
   -2.6125   -2.5626  -36.9401 O   0  0  0  0  0  0  0  0  0  0  0  0
   -0.8862   -4.2137  -38.5872 C   0  0  0  0  0  0  0  0  0  0  0  0
    1.2853   -9.9023  -35.7306 H   0  0  0  0  0  0  0  0  0  0  0  0
    0.1672   -9.8764  -34.3476 H   0  0  0  0  0  0  0  0  0  0  0  0
   -2.0984   -5.3800  -33.4775 H   0  0  0  0  0  0  0  0  0  0  0  0
    2.3566  -11.6235  -30.6598 H   0  0  0  0  0  0  0  0  0  0  0  0
    4.0984  -11.7376  -30.9479 H   0  0  0  0  0  0  0  0  0  0  0  0
    5.1628   -9.5070  -31.3859 H   0  0  0  0  0  0  0  0  0  0  0  0
    4.5007   -8.9521  -32.9425 H   0  0  0  0  0  0  0  0  0  0  0  0
    3.0289   -9.1717  -34.4613 H   0  0  0  0  0  0  0  0  0  0  0  0
    1.9562   -8.2102  -33.4114 H   0  0  0  0  0  0  0  0  0  0  0  0
   -3.0069   -3.3862  -34.5106 H   0  0  0  0  0  0  0  0  0  0  0  0
   -0.2282   -8.5469  -32.8623 H   0  0  0  0  0  0  0  0  0  0  0  0
   -1.7874   -7.7625  -32.9419 H   0  0  0  0  0  0  0  0  0  0  0  0
   -0.3794   -6.8587  -32.4382 H   0  0  0  0  0  0  0  0  0  0  0  0
   -2.0498   -1.8908  -37.2719 H   0  0  0  0  0  0  0  0  0  0  0  0
   -0.2383   -4.9706  -38.9774 H   0  0  0  0  0  0  0  0  0  0  0  0
   -0.3947   -3.2644  -38.6343 H   0  0  0  0  0  0  0  0  0  0  0  0
   -1.7846   -4.1794  -39.1675 H   0  0  0  0  0  0  0  0  0  0  0  0
  1  2  1  0  0  0  0
  1  6  2  0  0  0  0
  1  7  1  0  0  0  0
  2  4  1  0  0  0  0
  3  5  2  0  0  0  0
  3 10  1  0  0  0  0
  3  4  1  0  0  0  0
  4 17  2  0  0  0  0
  5  6  1  0  0  0  0
  5 23  1  0  0  0  0
  6 11  1  0  0  0  0
  7 14  2  0  0  0  0
  7 27  1  0  0  0  0
  8  9  1  0  0  0  0
  8 15  1  0  0  0  0
  8 16  1  0  0  0  0
  9 18  1  0  0  0  0
  9 19  2  0  0  0  0
 10 18  1  0  0  0  0
 10 28  1  0  0  0  0
 10 29  1  0  0  0  0
 11 20  2  0  0  0  0
 11 30  1  0  0  0  0
 12 15  1  0  0  0  0
 12 21  1  0  0  0  0
 12 24  2  0  0  0  0
 13 16  1  0  0  0  0
 13 22  1  0  0  0  0
 13 25  2  0  0  0  0
 14 20  1  0  0  0  0
 14 26  1  0  0  0  0
 15 31  1  0  0  0  0
 15 32  1  0  0  0  0
 16 33  1  0  0  0  0
 16 34  1  0  0  0  0
 18 35  1  0  0  0  0
 18 36  1  0  0  0  0
 20 37  1  0  0  0  0
 23 38  1  0  0  0  0
 23 39  1  0  0  0  0
 23 40  1  0  0  0  0
 26 41  1  0  0  0  0
 27 42  1  0  0  0  0
 27 43  1  0  0  0  0
 27 44  1  0  0  0  0
M  CHG  2  21  -1  22  -1
M  END
$$$$
