HTS1710-01246789-01
 OpenBabel03232612353D

 37 38  0  0  1  0  0  0  0  0999 V2000
   -0.5031   -8.0733  -34.8960 N   0  0  0  0  0  0  0  0  0  0  0  0
   -0.0242   -7.5200  -36.0736 C   0  0  0  0  0  0  0  0  0  0  0  0
   -0.8097   -6.3461  -36.5519 C   0  0  0  0  0  0  0  0  0  0  0  0
   -2.3323   -6.4980  -34.6389 N   0  0  0  0  0  0  0  0  0  0  0  0
   -1.6181   -7.5508  -34.2418 C   0  0  0  0  0  0  0  0  0  0  0  0
    1.4648   -8.8484  -33.6439 C   0  0  0  0  0  0  0  0  0  0  0  0
   -1.9201   -5.8983  -35.8013 C   0  0  0  0  0  0  0  0  0  0  0  0
    0.1548   -9.2628  -34.3142 C   0  0  0  0  0  0  0  0  0  0  0  0
    2.5589   -9.6869  -33.7941 N   0  0  0  0  0  0  0  0  0  0  0  0
    4.9177   -9.2278  -34.3200 C   0  0  0  0  0  0  0  0  0  0  0  0
    3.8737   -9.4056  -33.2020 C   0  0  2  0  0  0  0  0  0  0  0  0
    0.9464   -7.9496  -36.6764 O   0  0  0  0  0  0  0  0  0  0  0  0
    4.2951   -9.3698  -29.9647 C   0  0  0  0  0  0  0  0  0  0  0  0
    1.5524   -7.8240  -32.9884 O   0  0  0  0  0  0  0  0  0  0  0  0
    4.6791   -9.7563  -35.3918 O   0  5  0  0  0  0  0  0  0  0  0  0
    5.4411   -9.0744  -30.2570 O   0  5  0  0  0  0  0  0  0  0  0  0
    4.2353  -10.5652  -32.2349 C   0  0  0  0  0  0  0  0  0  0  0  0
    3.5948  -10.4256  -30.8300 C   0  0  0  0  0  0  0  0  0  0  0  0
    5.9236   -8.5892  -34.0584 O   0  0  0  0  0  0  0  0  0  0  0  0
   -0.4526   -5.6829  -37.7436 C   0  0  0  0  0  0  0  0  0  0  0  0
    3.6651   -8.9110  -29.0273 O   0  0  0  0  0  0  0  0  0  0  0  0
   -2.6533   -4.7860  -36.2577 C   0  0  0  0  0  0  0  0  0  0  0  0
   -1.1938   -4.5786  -38.1881 C   0  0  0  0  0  0  0  0  0  0  0  0
   -2.2924   -4.1289  -37.4437 C   0  0  0  0  0  0  0  0  0  0  0  0
   -1.9169   -8.0212  -33.3731 H   0  0  0  0  0  0  0  0  0  0  0  0
   -0.4921   -9.7075  -33.5871 H   0  0  0  0  0  0  0  0  0  0  0  0
    0.3611   -9.9698  -35.0904 H   0  0  0  0  0  0  0  0  0  0  0  0
    2.4494  -10.5102  -34.3227 H   0  0  0  0  0  0  0  0  0  0  0  0
    3.8561   -8.4943  -32.6416 H   0  0  0  0  0  0  0  0  0  0  0  0
    5.2988  -10.5908  -32.1205 H   0  0  0  0  0  0  0  0  0  0  0  0
    3.8501  -11.4651  -32.6669 H   0  0  0  0  0  0  0  0  0  0  0  0
    2.5685  -10.1467  -30.9474 H   0  0  0  0  0  0  0  0  0  0  0  0
    3.6931  -11.3684  -30.3338 H   0  0  0  0  0  0  0  0  0  0  0  0
    0.3579   -6.0116  -38.2914 H   0  0  0  0  0  0  0  0  0  0  0  0
   -3.4641   -4.4508  -35.7143 H   0  0  0  0  0  0  0  0  0  0  0  0
   -0.9305   -4.0977  -39.0624 H   0  0  0  0  0  0  0  0  0  0  0  0
   -2.8364   -3.3141  -37.7679 H   0  0  0  0  0  0  0  0  0  0  0  0
  1  2  1  0  0  0  0
  1  5  1  0  0  0  0
  1  8  1  0  0  0  0
  2  3  1  0  0  0  0
  2 12  2  0  0  0  0
  3 20  2  0  0  0  0
  3  7  1  0  0  0  0
  4  5  2  0  0  0  0
  4  7  1  0  0  0  0
  5 25  1  0  0  0  0
  6  8  1  0  0  0  0
  6  9  1  0  0  0  0
  6 14  2  0  0  0  0
  7 22  2  0  0  0  0
  8 26  1  0  0  0  0
  8 27  1  0  0  0  0
  9 11  1  0  0  0  0
  9 28  1  0  0  0  0
 10 11  1  0  0  0  0
 10 15  1  0  0  0  0
 10 19  2  0  0  0  0
 11 17  1  0  0  0  0
 11 29  1  1  0  0  0
 13 18  1  0  0  0  0
 13 16  1  0  0  0  0
 13 21  2  0  0  0  0
 17 18  1  0  0  0  0
 17 30  1  0  0  0  0
 17 31  1  0  0  0  0
 18 32  1  0  0  0  0
 18 33  1  0  0  0  0
 20 23  1  0  0  0  0
 20 34  1  0  0  0  0
 22 24  1  0  0  0  0
 22 35  1  0  0  0  0
 23 24  2  0  0  0  0
 23 36  1  0  0  0  0
 24 37  1  0  0  0  0
M  CHG  2  15  -1  16  -1
M  END
$$$$
