HTS1710-04762103-01
 OpenBabel03232612353D

 44 46  0  0  0  0  0  0  0  0999 V2000
    3.0907   -9.9044  -36.9795 C   0  0  0  0  0  0  0  0  0  0  0  0
    3.2183  -10.5152  -35.6384 N   0  0  0  0  0  0  0  0  0  0  0  0
    4.6009  -10.7819  -35.1938 C   0  0  0  0  0  0  0  0  0  0  0  0
    5.1775   -9.6001  -34.4625 C   0  0  0  0  0  0  0  0  0  0  0  0
    5.1508   -9.4510  -33.1020 C   0  0  0  0  0  0  0  0  0  0  0  0
    5.7495   -8.1875  -32.8606 C   0  0  0  0  0  0  0  0  0  0  0  0
    5.9511   -7.5560  -31.5342 C   0  0  0  0  0  0  0  0  0  0  0  0
    6.1958   -6.3636  -31.4869 O   0  5  0  0  0  0  0  0  0  0  0  0
    5.8579   -8.2804  -30.5577 O   0  0  0  0  0  0  0  0  0  0  0  0
    6.0683   -7.7267  -34.1237 C   0  0  0  0  0  0  0  0  0  0  0  0
    6.7200   -6.4044  -34.4390 C   0  0  0  0  0  0  0  0  0  0  0  0
    5.7349   -8.5642  -35.1588 O   0  0  0  0  0  0  0  0  0  0  0  0
    2.1250  -10.8031  -34.8129 C   0  0  0  0  0  0  0  0  0  0  0  0
    0.9724  -10.6069  -35.1610 O   0  0  0  0  0  0  0  0  0  0  0  0
    2.4157  -11.3923  -33.4614 C   0  0  0  0  0  0  0  0  0  0  0  0
    2.2788  -10.6006  -32.3094 C   0  0  0  0  0  0  0  0  0  0  0  0
    2.5288  -11.1469  -31.0397 C   0  0  0  0  0  0  0  0  0  0  0  0
    2.9138  -12.4953  -30.9060 C   0  0  0  0  0  0  0  0  0  0  0  0
    3.0251  -13.2928  -32.0614 C   0  0  0  0  0  0  0  0  0  0  0  0
    2.7733  -12.7465  -33.3293 C   0  0  0  0  0  0  0  0  0  0  0  0
    3.1613  -13.0465  -29.6135 N   0  0  0  0  0  0  0  0  0  0  0  0
    2.8503  -14.4422  -29.2797 C   0  0  0  0  0  0  0  0  0  0  0  0
    3.4263  -14.6723  -27.8568 C   0  0  0  0  0  0  0  0  0  0  0  0
    3.9859  -13.3614  -27.5304 N   0  0  0  0  0  0  0  0  0  0  0  0
    3.8275  -12.4624  -28.5576 C   0  0  0  0  0  0  0  0  0  0  0  0
    4.2269  -11.3129  -28.4996 O   0  0  0  0  0  0  0  0  0  0  0  0
    4.0626   -9.7841  -37.4106 H   0  0  0  0  0  0  0  0  0  0  0  0
    2.6183   -8.9483  -36.8926 H   0  0  0  0  0  0  0  0  0  0  0  0
    2.4989  -10.5390  -37.6056 H   0  0  0  0  0  0  0  0  0  0  0  0
    5.2078  -10.9922  -36.0496 H   0  0  0  0  0  0  0  0  0  0  0  0
    4.5857  -11.6178  -34.5259 H   0  0  0  0  0  0  0  0  0  0  0  0
    4.7769  -10.1130  -32.4043 H   0  0  0  0  0  0  0  0  0  0  0  0
    6.9138   -5.8762  -33.5289 H   0  0  0  0  0  0  0  0  0  0  0  0
    6.0674   -5.8234  -35.0566 H   0  0  0  0  0  0  0  0  0  0  0  0
    7.6415   -6.5752  -34.9555 H   0  0  0  0  0  0  0  0  0  0  0  0
    1.9931   -9.6127  -32.3961 H   0  0  0  0  0  0  0  0  0  0  0  0
    2.4299  -10.5564  -30.1992 H   0  0  0  0  0  0  0  0  0  0  0  0
    3.2935  -14.2855  -31.9751 H   0  0  0  0  0  0  0  0  0  0  0  0
    2.8508  -13.3413  -34.1691 H   0  0  0  0  0  0  0  0  0  0  0  0
    3.3124  -15.1053  -29.9809 H   0  0  0  0  0  0  0  0  0  0  0  0
    1.7979  -14.6316  -29.3150 H   0  0  0  0  0  0  0  0  0  0  0  0
    4.1851  -15.4266  -27.8634 H   0  0  0  0  0  0  0  0  0  0  0  0
    2.6990  -15.0151  -27.1508 H   0  0  0  0  0  0  0  0  0  0  0  0
    4.4246  -13.1480  -26.6752 H   0  0  0  0  0  0  0  0  0  0  0  0
  1  2  1  0  0  0  0
  1 27  1  0  0  0  0
  1 28  1  0  0  0  0
  1 29  1  0  0  0  0
  2  3  1  0  0  0  0
  2 13  1  0  0  0  0
  3  4  1  0  0  0  0
  3 30  1  0  0  0  0
  3 31  1  0  0  0  0
  4  5  2  0  0  0  0
  4 12  1  0  0  0  0
  5  6  1  0  0  0  0
  5 32  1  0  0  0  0
  6  7  1  0  0  0  0
  6 10  2  0  0  0  0
  7  8  1  0  0  0  0
  7  9  2  0  0  0  0
 10 11  1  0  0  0  0
 10 12  1  0  0  0  0
 11 33  1  0  0  0  0
 11 34  1  0  0  0  0
 11 35  1  0  0  0  0
 13 14  2  0  0  0  0
 13 15  1  0  0  0  0
 15 16  2  0  0  0  0
 15 20  1  0  0  0  0
 16 17  1  0  0  0  0
 16 36  1  0  0  0  0
 17 18  2  0  0  0  0
 17 37  1  0  0  0  0
 18 19  1  0  0  0  0
 18 21  1  0  0  0  0
 19 20  2  0  0  0  0
 19 38  1  0  0  0  0
 20 39  1  0  0  0  0
 21 22  1  0  0  0  0
 21 25  1  0  0  0  0
 22 23  1  0  0  0  0
 22 40  1  0  0  0  0
 22 41  1  0  0  0  0
 23 24  1  0  0  0  0
 23 42  1  0  0  0  0
 23 43  1  0  0  0  0
 24 25  1  0  0  0  0
 24 44  1  0  0  0  0
 25 26  2  0  0  0  0
M  CHG  1   8  -1
M  END
$$$$
