HTS1710-05464385-01
 OpenBabel03232612353D

 43 45  0  0  1  0  0  0  0  0999 V2000
    6.8566   -7.2949  -33.4294 C   0  0  0  0  0  0  0  0  0  0  0  0
    5.6827   -8.2094  -33.6780 C   0  0  0  0  0  0  0  0  0  0  0  0
    5.5349   -8.7390  -34.9245 O   0  0  0  0  0  0  0  0  0  0  0  0
    4.3982   -9.4726  -34.7482 C   0  0  0  0  0  0  0  0  0  0  0  0
    3.8653  -10.2440  -35.9286 C   0  0  0  0  0  0  0  0  0  0  0  0
    3.8350   -9.4392  -33.4868 C   0  0  0  0  0  0  0  0  0  0  0  0
    4.7195   -8.5699  -32.7552 C   0  0  0  0  0  0  0  0  0  0  0  0
    4.6179   -8.1371  -31.3293 C   0  0  0  0  0  0  0  0  0  0  0  0
    5.4402   -8.5602  -30.5378 O   0  5  0  0  0  0  0  0  0  0  0  0
    3.7170   -7.3792  -31.0208 O   0  0  0  0  0  0  0  0  0  0  0  0
    2.3240  -10.2829  -32.9598 S   0  0  0  0  0  0  0  0  0  0  0  0
    1.6971  -10.8035  -34.1787 O   0  0  0  0  0  0  0  0  0  0  0  0
    1.5760   -9.4639  -32.0014 O   0  0  0  0  0  0  0  0  0  0  0  0
    2.9363  -11.6277  -32.1161 N   0  0  0  0  0  0  0  0  0  0  0  0
    4.1519  -12.2685  -32.6159 C   0  0  0  0  0  0  0  0  0  0  0  0
    4.2968  -13.5716  -31.8072 C   0  0  0  0  0  0  0  0  0  0  0  0
    2.8939  -13.8582  -31.2114 C   0  0  2  0  0  0  0  0  0  0  0  0
    2.0117  -12.6994  -31.7320 C   0  0  0  0  0  0  0  0  0  0  0  0
    2.9281  -13.9441  -29.7332 N   0  0  0  0  0  0  0  0  0  0  0  0
    2.2103  -15.0055  -29.0185 C   0  0  0  0  0  0  0  0  0  0  0  0
    2.0636  -14.5014  -27.5678 C   0  0  0  0  0  0  0  0  0  0  0  0
    3.0006  -13.2757  -27.4574 C   0  0  0  0  0  0  0  0  0  0  0  0
    3.3356  -12.9230  -28.9014 C   0  0  0  0  0  0  0  0  0  0  0  0
    3.8442  -11.8781  -29.2693 O   0  0  0  0  0  0  0  0  0  0  0  0
    7.4311   -7.2000  -34.3271 H   0  0  0  0  0  0  0  0  0  0  0  0
    7.4703   -7.7050  -32.6548 H   0  0  0  0  0  0  0  0  0  0  0  0
    6.5008   -6.3313  -33.1300 H   0  0  0  0  0  0  0  0  0  0  0  0
    4.5013  -10.0861  -36.7745 H   0  0  0  0  0  0  0  0  0  0  0  0
    2.8762   -9.9064  -36.1581 H   0  0  0  0  0  0  0  0  0  0  0  0
    3.8400  -11.2870  -35.6911 H   0  0  0  0  0  0  0  0  0  0  0  0
    4.9998  -11.6351  -32.4583 H   0  0  0  0  0  0  0  0  0  0  0  0
    4.0948  -12.4596  -33.6671 H   0  0  0  0  0  0  0  0  0  0  0  0
    5.0153  -13.4463  -31.0244 H   0  0  0  0  0  0  0  0  0  0  0  0
    4.6364  -14.3798  -32.4207 H   0  0  0  0  0  0  0  0  0  0  0  0
    2.5061  -14.8090  -31.5124 H   0  0  0  0  0  0  0  0  0  0  0  0
    1.3500  -12.3612  -30.9622 H   0  0  0  0  0  0  0  0  0  0  0  0
    1.4061  -13.0088  -32.5581 H   0  0  0  0  0  0  0  0  0  0  0  0
    2.7703  -15.9170  -29.0426 H   0  0  0  0  0  0  0  0  0  0  0  0
    1.2598  -15.2110  -29.4648 H   0  0  0  0  0  0  0  0  0  0  0  0
    2.3604  -15.2620  -26.8762 H   0  0  0  0  0  0  0  0  0  0  0  0
    1.0501  -14.2474  -27.3372 H   0  0  0  0  0  0  0  0  0  0  0  0
    3.8874  -13.5249  -26.9130 H   0  0  0  0  0  0  0  0  0  0  0  0
    2.5460  -12.4609  -26.9337 H   0  0  0  0  0  0  0  0  0  0  0  0
  1  2  1  0  0  0  0
  1 25  1  0  0  0  0
  1 26  1  0  0  0  0
  1 27  1  0  0  0  0
  2  3  1  0  0  0  0
  2  7  2  0  0  0  0
  3  4  1  0  0  0  0
  4  5  1  0  0  0  0
  4  6  2  0  0  0  0
  5 28  1  0  0  0  0
  5 29  1  0  0  0  0
  5 30  1  0  0  0  0
  6  7  1  0  0  0  0
  6 11  1  0  0  0  0
  7  8  1  0  0  0  0
  8  9  1  0  0  0  0
  8 10  2  0  0  0  0
 11 12  2  0  0  0  0
 11 13  2  0  0  0  0
 11 14  1  0  0  0  0
 14 15  1  0  0  0  0
 14 18  1  0  0  0  0
 15 16  1  0  0  0  0
 15 31  1  0  0  0  0
 15 32  1  0  0  0  0
 16 17  1  0  0  0  0
 16 33  1  0  0  0  0
 16 34  1  0  0  0  0
 17 18  1  0  0  0  0
 17 19  1  0  0  0  0
 17 35  1  6  0  0  0
 18 36  1  0  0  0  0
 18 37  1  0  0  0  0
 19 20  1  0  0  0  0
 19 23  1  0  0  0  0
 20 21  1  0  0  0  0
 20 38  1  0  0  0  0
 20 39  1  0  0  0  0
 21 22  1  0  0  0  0
 21 40  1  0  0  0  0
 21 41  1  0  0  0  0
 22 23  1  0  0  0  0
 22 42  1  0  0  0  0
 22 43  1  0  0  0  0
 23 24  2  0  0  0  0
M  CHG  1   9  -1
M  END
$$$$
