HTS1710-01267784-01
 OpenBabel03232612363D

 45 46  0  0  1  0  0  0  0  0999 V2000
    1.3502   -9.1186  -34.7351 C   0  0  0  0  0  0  0  0  0  0  0  0
    0.9590   -8.5542  -35.9408 C   0  0  0  0  0  0  0  0  0  0  0  0
    0.1334   -7.3371  -35.9907 C   0  0  0  0  0  0  0  0  0  0  0  0
    2.2061  -10.3765  -34.6958 C   0  0  2  0  0  0  0  0  0  0  0  0
    0.9935   -8.5974  -33.5043 O   0  0  0  0  0  0  0  0  0  0  0  0
   -0.2094   -6.8319  -34.6623 C   0  0  0  0  0  0  0  0  0  0  0  0
    0.2160   -7.4602  -33.5132 C   0  0  0  0  0  0  0  0  0  0  0  0
    2.8267  -10.5822  -33.3100 C   0  0  0  0  0  0  0  0  0  0  0  0
    3.7734   -9.6719  -32.7999 C   0  0  0  0  0  0  0  0  0  0  0  0
    4.3400   -9.8666  -31.5223 C   0  0  0  0  0  0  0  0  0  0  0  0
    4.5470  -11.1399  -35.4031 C   0  0  0  0  0  0  0  0  0  0  0  0
    3.2862  -10.3700  -35.8134 C   0  0  0  0  0  0  0  0  0  0  0  0
    3.9610  -10.9823  -30.7503 C   0  0  0  0  0  0  0  0  0  0  0  0
    2.8497  -12.0721  -27.9827 C   0  0  0  0  0  0  0  0  0  0  0  0
   -0.2345   -6.7989  -37.0215 O   0  0  0  0  0  0  0  0  0  0  0  0
    4.5438  -11.1541  -29.5073 O   0  0  0  0  0  0  0  0  0  0  0  0
    2.4441  -11.6856  -32.5257 C   0  0  0  0  0  0  0  0  0  0  0  0
    4.5668  -12.3539  -35.3081 O   0  0  0  0  0  0  0  0  0  0  0  0
    2.4626  -10.9248  -27.8421 O   0  5  0  0  0  0  0  0  0  0  0  0
    1.2789   -9.0443  -37.1594 O   0  0  0  0  0  0  0  0  0  0  0  0
    3.0066  -11.8888  -31.2571 C   0  0  0  0  0  0  0  0  0  0  0  0
    4.2293  -12.2562  -28.6319 C   0  0  0  0  0  0  0  0  0  0  0  0
    5.7096  -10.4418  -35.1411 N   0  0  0  0  0  0  0  0  0  0  0  0
    2.2534  -13.0680  -27.6105 O   0  0  0  0  0  0  0  0  0  0  0  0
    5.2669   -8.9833  -30.9955 O   0  0  0  0  0  0  0  0  0  0  0  0
   -0.1680   -6.9000  -32.1688 C   0  0  0  0  0  0  0  0  0  0  0  0
    5.6939   -7.7903  -31.6757 C   0  0  0  0  0  0  0  0  0  0  0  0
    1.5628  -11.2100  -34.8866 H   0  0  0  0  0  0  0  0  0  0  0  0
   -0.7868   -5.9802  -34.5835 H   0  0  0  0  0  0  0  0  0  0  0  0
    4.0547   -8.8558  -33.3653 H   0  0  0  0  0  0  0  0  0  0  0  0
    2.8762  -10.8229  -36.6919 H   0  0  0  0  0  0  0  0  0  0  0  0
    3.5660   -9.3533  -35.9947 H   0  0  0  0  0  0  0  0  0  0  0  0
    1.7434  -12.3515  -32.8871 H   0  0  0  0  0  0  0  0  0  0  0  0
    1.0553   -8.5628  -37.9316 H   0  0  0  0  0  0  0  0  0  0  0  0
    2.7212  -12.7042  -30.6926 H   0  0  0  0  0  0  0  0  0  0  0  0
    4.2302  -13.1637  -29.1987 H   0  0  0  0  0  0  0  0  0  0  0  0
    4.9663  -12.2951  -27.8572 H   0  0  0  0  0  0  0  0  0  0  0  0
    6.5253  -10.9256  -34.8768 H   0  0  0  0  0  0  0  0  0  0  0  0
    5.7226   -9.4605  -35.2186 H   0  0  0  0  0  0  0  0  0  0  0  0
   -0.7670   -6.0239  -32.3054 H   0  0  0  0  0  0  0  0  0  0  0  0
    0.7162   -6.6459  -31.6225 H   0  0  0  0  0  0  0  0  0  0  0  0
   -0.7262   -7.6321  -31.6236 H   0  0  0  0  0  0  0  0  0  0  0  0
    6.4109   -7.2734  -31.0729 H   0  0  0  0  0  0  0  0  0  0  0  0
    4.8493   -7.1563  -31.8479 H   0  0  0  0  0  0  0  0  0  0  0  0
    6.1390   -8.0537  -32.6124 H   0  0  0  0  0  0  0  0  0  0  0  0
  1  2  2  0  0  0  0
  1  4  1  0  0  0  0
  1  5  1  0  0  0  0
  2  3  1  0  0  0  0
  2 20  1  0  0  0  0
  3 15  2  0  0  0  0
  3  6  1  0  0  0  0
  4  8  1  0  0  0  0
  4 12  1  0  0  0  0
  4 28  1  6  0  0  0
  5  7  1  0  0  0  0
  6  7  2  0  0  0  0
  6 29  1  0  0  0  0
  7 26  1  0  0  0  0
  8  9  2  0  0  0  0
  8 17  1  0  0  0  0
  9 10  1  0  0  0  0
  9 30  1  0  0  0  0
 10 25  1  0  0  0  0
 10 13  2  0  0  0  0
 11 12  1  0  0  0  0
 11 18  2  0  0  0  0
 11 23  1  0  0  0  0
 12 31  1  0  0  0  0
 12 32  1  0  0  0  0
 13 21  1  0  0  0  0
 13 16  1  0  0  0  0
 14 22  1  0  0  0  0
 14 19  1  0  0  0  0
 14 24  2  0  0  0  0
 16 22  1  0  0  0  0
 17 21  2  0  0  0  0
 17 33  1  0  0  0  0
 20 34  1  0  0  0  0
 21 35  1  0  0  0  0
 22 36  1  0  0  0  0
 22 37  1  0  0  0  0
 23 38  1  0  0  0  0
 23 39  1  0  0  0  0
 25 27  1  0  0  0  0
 26 40  1  0  0  0  0
 26 41  1  0  0  0  0
 26 42  1  0  0  0  0
 27 43  1  0  0  0  0
 27 44  1  0  0  0  0
 27 45  1  0  0  0  0
M  CHG  1  19  -1
M  END
$$$$
