HTS1710-01915984-01
 OpenBabel03232612343D

 32 33  0  0  0  0  0  0  0  0999 V2000
    4.3001  -10.5019  -30.7488 C   0  0  0  0  0  0  0  0  0  0  0  0
    3.9866  -10.7550  -32.1064 C   0  0  0  0  0  0  0  0  0  0  0  0
    4.5425  -14.0773  -29.3615 C   0  0  0  0  0  0  0  0  0  0  0  0
    4.4752  -11.5850  -29.8647 C   0  0  0  0  0  0  0  0  0  0  0  0
    4.4716   -9.1066  -30.2106 C   0  0  0  0  0  0  0  0  0  0  0  0
    4.3534  -12.9173  -30.3099 C   0  0  0  0  0  0  0  0  0  0  0  0
    3.7445   -9.6507  -33.0945 C   0  0  0  0  0  0  0  0  0  0  0  0
    5.6607  -14.0833  -28.5295 N   0  0  0  0  0  0  0  0  0  0  0  0
    7.3096  -18.0713  -24.7288 C   0  0  0  0  0  0  0  0  0  0  0  0
    3.8735  -12.0828  -32.5509 C   0  0  0  0  0  0  0  0  0  0  0  0
    6.8549  -17.0296  -25.7289 C   0  0  0  0  0  0  0  0  0  0  0  0
    3.7127  -14.9685  -29.2910 O   0  0  0  0  0  0  0  0  0  0  0  0
    4.0548  -13.1541  -31.6655 C   0  0  0  0  0  0  0  0  0  0  0  0
    3.9423   -8.8591  -29.1411 O   0  5  0  0  0  0  0  0  0  0  0  0
    4.7271   -9.1443  -33.6087 O   0  5  0  0  0  0  0  0  0  0  0  0
    8.4347  -17.9603  -24.2712 O   0  5  0  0  0  0  0  0  0  0  0  0
    5.9983  -15.0630  -27.5968 C   0  0  0  0  0  0  0  0  0  0  0  0
    5.5262  -17.0153  -26.2021 C   0  0  0  0  0  0  0  0  0  0  0  0
    7.7535  -16.0595  -26.2189 C   0  0  0  0  0  0  0  0  0  0  0  0
    5.1484   -8.3310  -30.8636 O   0  0  0  0  0  0  0  0  0  0  0  0
    2.5850   -9.3576  -33.3311 O   0  0  0  0  0  0  0  0  0  0  0  0
    6.5241  -18.9575  -24.4398 O   0  0  0  0  0  0  0  0  0  0  0  0
    7.3287  -15.0958  -27.1473 C   0  0  0  0  0  0  0  0  0  0  0  0
    5.1020  -16.0485  -27.1286 C   0  0  0  0  0  0  0  0  0  0  0  0
    4.6966  -11.3999  -28.8739 H   0  0  0  0  0  0  0  0  0  0  0  0
    6.2747  -13.3178  -28.6086 H   0  0  0  0  0  0  0  0  0  0  0  0
    3.6541  -12.2717  -33.5414 H   0  0  0  0  0  0  0  0  0  0  0  0
    3.9689  -14.1233  -32.0095 H   0  0  0  0  0  0  0  0  0  0  0  0
    4.8571  -17.7243  -25.8633 H   0  0  0  0  0  0  0  0  0  0  0  0
    8.7324  -16.0580  -25.8920 H   0  0  0  0  0  0  0  0  0  0  0  0
    8.0035  -14.4016  -27.5047 H   0  0  0  0  0  0  0  0  0  0  0  0
    4.1280  -16.0584  -27.4697 H   0  0  0  0  0  0  0  0  0  0  0  0
  1  2  2  0  0  0  0
  1  4  1  0  0  0  0
  1  5  1  0  0  0  0
  2  7  1  0  0  0  0
  2 10  1  0  0  0  0
  3  6  1  0  0  0  0
  3  8  1  0  0  0  0
  3 12  2  0  0  0  0
  4  6  2  0  0  0  0
  4 25  1  0  0  0  0
  5 14  1  0  0  0  0
  5 20  2  0  0  0  0
  6 13  1  0  0  0  0
  7 15  1  0  0  0  0
  7 21  2  0  0  0  0
  8 17  1  0  0  0  0
  8 26  1  0  0  0  0
  9 11  1  0  0  0  0
  9 16  1  0  0  0  0
  9 22  2  0  0  0  0
 10 13  2  0  0  0  0
 10 27  1  0  0  0  0
 11 18  2  0  0  0  0
 11 19  1  0  0  0  0
 13 28  1  0  0  0  0
 17 23  1  0  0  0  0
 17 24  2  0  0  0  0
 18 24  1  0  0  0  0
 18 29  1  0  0  0  0
 19 23  2  0  0  0  0
 19 30  1  0  0  0  0
 23 31  1  0  0  0  0
 24 32  1  0  0  0  0
M  CHG  3  14  -1  15  -1  16  -1
M  END
$$$$
