HTS1710-00252831-01
 OpenBabel03232612353D

 41 42  0  0  1  0  0  0  0  0999 V2000
    1.9806  -10.9835  -36.0300 S   0  0  0  0  0  0  0  0  0  0  0  0
    2.9948  -11.0427  -34.6601 N   0  0  0  0  0  0  0  0  0  0  0  0
   -1.7053   -6.2572  -35.1665 N   0  0  0  0  0  0  0  0  0  0  0  0
    3.9660   -9.9549  -34.4117 C   0  0  2  0  0  0  0  0  0  0  0  0
   -3.0869   -6.2882  -35.0779 C   0  0  0  0  0  0  0  0  0  0  0  0
    5.0522   -9.8725  -35.5046 C   0  0  0  0  0  0  0  0  0  0  0  0
    0.8919   -9.5714  -35.7581 C   0  0  0  0  0  0  0  0  0  0  0  0
    2.8670  -10.7172  -37.1674 O   0  0  0  0  0  0  0  0  0  0  0  0
    1.1842  -12.2074  -35.9055 O   0  0  0  0  0  0  0  0  0  0  0  0
   -0.8351   -7.3693  -35.3732 C   0  0  0  0  0  0  0  0  0  0  0  0
    4.6674   -9.1241  -30.5670 C   0  0  0  0  0  0  0  0  0  0  0  0
   -3.7708   -7.2969  -35.0745 O   0  0  0  0  0  0  0  0  0  0  0  0
    4.5656  -10.0620  -32.9776 C   0  0  0  0  0  0  0  0  0  0  0  0
    5.7987  -10.8308  -35.6074 O   0  5  0  0  0  0  0  0  0  0  0  0
    4.3367   -9.8537  -29.6486 O   0  5  0  0  0  0  0  0  0  0  0  0
   -0.0169   -9.5647  -34.6862 C   0  0  0  0  0  0  0  0  0  0  0  0
    0.9388   -8.4739  -36.6354 C   0  0  0  0  0  0  0  0  0  0  0  0
   -0.8729   -8.4688  -34.4928 C   0  0  0  0  0  0  0  0  0  0  0  0
    0.0822   -7.3785  -36.4425 C   0  0  0  0  0  0  0  0  0  0  0  0
    3.8603   -9.2268  -31.8696 C   0  0  0  0  0  0  0  0  0  0  0  0
    5.1245   -8.8531  -36.1705 O   0  0  0  0  0  0  0  0  0  0  0  0
   -1.1924   -4.8856  -35.1818 C   0  0  0  0  0  0  0  0  0  0  0  0
    5.5701   -8.3055  -30.5306 O   0  0  0  0  0  0  0  0  0  0  0  0
   -3.6361   -4.8704  -34.9824 C   0  0  0  0  0  0  0  0  0  0  0  0
   -2.4248   -3.9662  -35.2919 C   0  0  0  0  0  0  0  0  0  0  0  0
    3.5319  -11.9071  -34.7285 H   0  0  0  0  0  0  0  0  0  0  0  0
    3.4329   -9.0288  -34.4661 H   0  0  0  0  0  0  0  0  0  0  0  0
    5.5857   -9.7428  -33.0265 H   0  0  0  0  0  0  0  0  0  0  0  0
    4.4351  -11.0843  -32.6901 H   0  0  0  0  0  0  0  0  0  0  0  0
   -0.0552  -10.3678  -34.0391 H   0  0  0  0  0  0  0  0  0  0  0  0
    1.6050   -8.4735  -37.4236 H   0  0  0  0  0  0  0  0  0  0  0  0
   -1.5342   -8.4685  -33.7005 H   0  0  0  0  0  0  0  0  0  0  0  0
    0.1247   -6.5747  -37.0883 H   0  0  0  0  0  0  0  0  0  0  0  0
    3.6963   -8.2381  -32.2444 H   0  0  0  0  0  0  0  0  0  0  0  0
    2.9462   -9.7299  -31.6326 H   0  0  0  0  0  0  0  0  0  0  0  0
   -0.5456   -4.7409  -36.0218 H   0  0  0  0  0  0  0  0  0  0  0  0
   -0.6244   -4.6720  -34.3005 H   0  0  0  0  0  0  0  0  0  0  0  0
   -4.0123   -4.6757  -33.9998 H   0  0  0  0  0  0  0  0  0  0  0  0
   -4.4514   -4.7034  -35.6550 H   0  0  0  0  0  0  0  0  0  0  0  0
   -2.5027   -3.5603  -36.2789 H   0  0  0  0  0  0  0  0  0  0  0  0
   -2.3646   -3.1360  -34.6196 H   0  0  0  0  0  0  0  0  0  0  0  0
  1  2  1  0  0  0  0
  1  7  1  0  0  0  0
  1  8  2  0  0  0  0
  1  9  2  0  0  0  0
  2  4  1  0  0  0  0
  2 26  1  0  0  0  0
  3 10  1  0  0  0  0
  3  5  1  0  0  0  0
  3 22  1  0  0  0  0
  4  6  1  0  0  0  0
  4 13  1  0  0  0  0
  4 27  1  6  0  0  0
  5 12  2  0  0  0  0
  5 24  1  0  0  0  0
  6 14  1  0  0  0  0
  6 21  2  0  0  0  0
  7 16  2  0  0  0  0
  7 17  1  0  0  0  0
 10 19  1  0  0  0  0
 10 18  2  0  0  0  0
 11 20  1  0  0  0  0
 11 15  1  0  0  0  0
 11 23  2  0  0  0  0
 13 20  1  0  0  0  0
 13 28  1  0  0  0  0
 13 29  1  0  0  0  0
 16 18  1  0  0  0  0
 16 30  1  0  0  0  0
 17 19  2  0  0  0  0
 17 31  1  0  0  0  0
 18 32  1  0  0  0  0
 19 33  1  0  0  0  0
 20 34  1  0  0  0  0
 20 35  1  0  0  0  0
 22 25  1  0  0  0  0
 22 36  1  0  0  0  0
 22 37  1  0  0  0  0
 24 25  1  0  0  0  0
 24 38  1  0  0  0  0
 24 39  1  0  0  0  0
 25 40  1  0  0  0  0
 25 41  1  0  0  0  0
M  CHG  2  14  -1  15  -1
M  END
$$$$
