HTS1710-00688560-01
 OpenBabel03232612353D

 26 27  0  0  0  0  0  0  0  0999 V2000
    5.1244   -9.7506  -33.5394 C   0  0  0  0  0  0  0  0  0  0  0  0
    5.6044   -8.4887  -32.9968 C   0  0  0  0  0  0  0  0  0  0  0  0
    5.3254   -9.7360  -34.9032 C   0  0  0  0  0  0  0  0  0  0  0  0
    4.5449  -10.8635  -32.9067 C   0  0  0  0  0  0  0  0  0  0  0  0
    6.0553   -7.8618  -34.1563 C   0  0  0  0  0  0  0  0  0  0  0  0
    5.6097   -8.0051  -31.5911 C   0  0  0  0  0  0  0  0  0  0  0  0
    5.9044   -8.5730  -35.3268 O   0  0  0  0  0  0  0  0  0  0  0  0
    4.9634  -10.8112  -35.7184 C   0  0  0  0  0  0  0  0  0  0  0  0
    4.1732  -11.9725  -33.7084 C   0  0  0  0  0  0  0  0  0  0  0  0
    6.6831   -6.4930  -34.2193 C   0  0  0  0  0  0  0  0  0  0  0  0
    5.5852   -6.8028  -31.3956 O   0  5  0  0  0  0  0  0  0  0  0  0
    5.6353   -8.8403  -30.7049 O   0  0  0  0  0  0  0  0  0  0  0  0
    4.3804  -11.9370  -35.1073 C   0  0  0  0  0  0  0  0  0  0  0  0
    3.6003  -13.1119  -33.1733 O   0  0  0  0  0  0  0  0  0  0  0  0
    2.6907  -13.1098  -32.0490 C   0  0  0  0  0  0  0  0  0  0  0  0
    1.2334  -12.8381  -32.4642 C   0  0  0  0  0  0  0  0  0  0  0  0
    0.9356  -11.6736  -32.6580 O   0  5  0  0  0  0  0  0  0  0  0  0
    0.4706  -13.7850  -32.5641 O   0  0  0  0  0  0  0  0  0  0  0  0
    4.3939  -10.8735  -31.8858 H   0  0  0  0  0  0  0  0  0  0  0  0
    5.1188  -10.7809  -36.7382 H   0  0  0  0  0  0  0  0  0  0  0  0
    6.7283   -6.0757  -33.2350 H   0  0  0  0  0  0  0  0  0  0  0  0
    6.0941   -5.8591  -34.8487 H   0  0  0  0  0  0  0  0  0  0  0  0
    7.6725   -6.5725  -34.6188 H   0  0  0  0  0  0  0  0  0  0  0  0
    4.1013  -12.7448  -35.6856 H   0  0  0  0  0  0  0  0  0  0  0  0
    2.9980  -12.3497  -31.3614 H   0  0  0  0  0  0  0  0  0  0  0  0
    2.7240  -14.0825  -31.6045 H   0  0  0  0  0  0  0  0  0  0  0  0
  1  2  1  0  0  0  0
  1  3  2  0  0  0  0
  1  4  1  0  0  0  0
  2  5  2  0  0  0  0
  2  6  1  0  0  0  0
  3  7  1  0  0  0  0
  3  8  1  0  0  0  0
  4  9  2  0  0  0  0
  4 19  1  0  0  0  0
  5 10  1  0  0  0  0
  5  7  1  0  0  0  0
  6 11  1  0  0  0  0
  6 12  2  0  0  0  0
  8 13  2  0  0  0  0
  8 20  1  0  0  0  0
  9 14  1  0  0  0  0
  9 13  1  0  0  0  0
 10 21  1  0  0  0  0
 10 22  1  0  0  0  0
 10 23  1  0  0  0  0
 13 24  1  0  0  0  0
 14 15  1  0  0  0  0
 15 16  1  0  0  0  0
 15 25  1  0  0  0  0
 15 26  1  0  0  0  0
 16 17  1  0  0  0  0
 16 18  2  0  0  0  0
M  CHG  2  11  -1  17  -1
M  END
$$$$
