HTS1710-01241930-01
 OpenBabel03232612353D

 44 45  0  0  1  0  0  0  0  0999 V2000
    2.1851  -12.0400  -30.5431 C   0  0  0  0  0  0  0  0  0  0  0  0
    2.8935  -13.3045  -28.4932 C   0  0  0  0  0  0  0  0  0  0  0  0
    2.5037  -10.8574  -29.9241 O   0  0  0  0  0  0  0  0  0  0  0  0
    3.0016  -10.7718  -28.6605 C   0  0  0  0  0  0  0  0  0  0  0  0
    2.3657  -13.2657  -29.8693 C   0  0  0  0  0  0  0  0  0  0  0  0
    3.1846  -12.0601  -27.9632 C   0  0  0  0  0  0  0  0  0  0  0  0
    4.6657  -10.1173  -36.2877 C   0  0  0  0  0  0  0  0  0  0  0  0
    2.7782  -10.4065  -34.6993 N   0  0  0  0  0  0  0  0  0  0  0  0
    1.6802  -12.0027  -31.8530 C   0  0  0  0  0  0  0  0  0  0  0  0
    2.4189  -11.7334  -34.8856 C   0  0  0  0  0  0  0  0  0  0  0  0
    4.1597   -9.9178  -34.8441 C   0  0  1  0  0  0  0  0  0  0  0  0
    2.0292  -14.4593  -30.5418 C   0  0  0  0  0  0  0  0  0  0  0  0
    5.4218   -8.7835  -32.0418 C   0  0  0  0  0  0  0  0  0  0  0  0
    3.2761   -9.7020  -28.1461 O   0  0  0  0  0  0  0  0  0  0  0  0
    5.4420  -11.0342  -36.5051 O   0  5  0  0  0  0  0  0  0  0  0  0
    3.2588  -12.5658  -35.1885 O   0  0  0  0  0  0  0  0  0  0  0  0
    5.5638   -8.0252  -32.9858 O   0  5  0  0  0  0  0  0  0  0  0  0
    5.0946  -10.5991  -33.8026 C   0  0  0  0  0  0  0  0  0  0  0  0
    1.3483  -13.2027  -32.5144 C   0  0  0  0  0  0  0  0  0  0  0  0
    0.8499  -13.2238  -33.8007 O   0  0  0  0  0  0  0  0  0  0  0  0
    0.9497  -12.1074  -34.7044 C   0  0  0  0  0  0  0  0  0  0  0  0
    4.8323  -10.1682  -32.3355 C   0  0  0  0  0  0  0  0  0  0  0  0
    1.5277  -14.4254  -31.8517 C   0  0  0  0  0  0  0  0  0  0  0  0
    4.2265   -9.3550  -37.1315 O   0  0  0  0  0  0  0  0  0  0  0  0
    5.6901   -8.5254  -30.8817 O   0  0  0  0  0  0  0  0  0  0  0  0
    3.1416  -14.5314  -27.6425 C   0  0  0  0  0  0  0  0  0  0  0  0
    1.8285  -15.1334  -27.1005 C   0  0  0  0  0  0  0  0  0  0  0  0
    3.5601  -12.0300  -27.0024 H   0  0  0  0  0  0  0  0  0  0  0  0
    2.0755   -9.7604  -34.4586 H   0  0  0  0  0  0  0  0  0  0  0  0
    1.5521  -11.0972  -32.3312 H   0  0  0  0  0  0  0  0  0  0  0  0
    4.1709   -8.8662  -34.6471 H   0  0  0  0  0  0  0  0  0  0  0  0
    2.1531  -15.3664  -30.0656 H   0  0  0  0  0  0  0  0  0  0  0  0
    6.1065  -10.3536  -34.0488 H   0  0  0  0  0  0  0  0  0  0  0  0
    4.8987  -11.6497  -33.8544 H   0  0  0  0  0  0  0  0  0  0  0  0
    0.5299  -12.3756  -35.6513 H   0  0  0  0  0  0  0  0  0  0  0  0
    0.4147  -11.2724  -34.3025 H   0  0  0  0  0  0  0  0  0  0  0  0
    3.7763  -10.1397  -32.1651 H   0  0  0  0  0  0  0  0  0  0  0  0
    5.3039  -10.8778  -31.6882 H   0  0  0  0  0  0  0  0  0  0  0  0
    1.2890  -15.3074  -32.3313 H   0  0  0  0  0  0  0  0  0  0  0  0
    3.7638  -14.2586  -26.8159 H   0  0  0  0  0  0  0  0  0  0  0  0
    3.6151  -15.2691  -28.2561 H   0  0  0  0  0  0  0  0  0  0  0  0
    1.3346  -14.4134  -26.4821 H   0  0  0  0  0  0  0  0  0  0  0  0
    2.0482  -16.0077  -26.5241 H   0  0  0  0  0  0  0  0  0  0  0  0
    1.1921  -15.3967  -27.9194 H   0  0  0  0  0  0  0  0  0  0  0  0
  1  3  1  0  0  0  0
  1  5  2  0  0  0  0
  1  9  1  0  0  0  0
  2  5  1  0  0  0  0
  2  6  2  0  0  0  0
  2 26  1  0  0  0  0
  3  4  1  0  0  0  0
  4 14  2  0  0  0  0
  4  6  1  0  0  0  0
  5 12  1  0  0  0  0
  6 28  1  0  0  0  0
  7 11  1  0  0  0  0
  7 15  1  0  0  0  0
  7 24  2  0  0  0  0
  8 10  1  0  0  0  0
  8 11  1  0  0  0  0
  8 29  1  0  0  0  0
  9 19  2  0  0  0  0
  9 30  1  0  0  0  0
 10 21  1  0  0  0  0
 10 16  2  0  0  0  0
 11 18  1  0  0  0  0
 11 31  1  1  0  0  0
 12 23  2  0  0  0  0
 12 32  1  0  0  0  0
 13 22  1  0  0  0  0
 13 17  1  0  0  0  0
 13 25  2  0  0  0  0
 18 22  1  0  0  0  0
 18 33  1  0  0  0  0
 18 34  1  0  0  0  0
 19 20  1  0  0  0  0
 19 23  1  0  0  0  0
 20 21  1  0  0  0  0
 21 35  1  0  0  0  0
 21 36  1  0  0  0  0
 22 37  1  0  0  0  0
 22 38  1  0  0  0  0
 23 39  1  0  0  0  0
 26 27  1  0  0  0  0
 26 40  1  0  0  0  0
 26 41  1  0  0  0  0
 27 42  1  0  0  0  0
 27 43  1  0  0  0  0
 27 44  1  0  0  0  0
M  CHG  2  15  -1  17  -1
M  END
$$$$
