HTS1710-00844581-01
 OpenBabel03232612353D

 55 56  0  0  1  0  0  0  0  0999 V2000
    4.0174  -13.1967  -30.3659 C   0  0  0  0  0  0  0  0  0  0  0  0
    3.2859  -12.7483  -31.4662 N   0  0  0  0  0  0  0  0  0  0  0  0
    0.9665  -11.0170  -34.7785 C   0  0  0  0  0  0  0  0  0  0  0  0
    1.0390   -9.6528  -34.5257 N   0  0  0  0  0  0  0  0  0  0  0  0
    3.2006  -13.8147  -29.2134 C   0  0  2  0  0  0  0  0  0  0  0  0
    0.9990   -8.2355  -36.5376 C   0  0  0  0  0  0  0  0  0  0  0  0
    0.2435   -8.6537  -35.2527 C   0  0  2  0  0  0  0  0  0  0  0  0
   -2.7474   -7.2718  -34.6609 C   0  0  0  0  0  0  0  0  0  0  0  0
    1.8491  -11.9631  -33.9510 C   0  0  1  0  0  0  0  0  0  0  0  0
    4.0157  -12.1444  -32.6059 C   0  0  0  0  0  0  0  0  0  0  0  0
    1.9911  -13.3892  -31.8148 C   0  0  0  0  0  0  0  0  0  0  0  0
    5.2207  -13.0187  -30.2641 O   0  0  0  0  0  0  0  0  0  0  0  0
    0.2170  -11.4408  -35.6437 O   0  0  0  0  0  0  0  0  0  0  0  0
    3.7892  -13.4461  -27.8268 C   0  0  0  0  0  0  0  0  0  0  0  0
    2.0041   -8.8508  -36.8496 O   0  5  0  0  0  0  0  0  0  0  0  0
   -2.9135   -7.9777  -33.6824 O   0  5  0  0  0  0  0  0  0  0  0  0
    3.1314  -11.2386  -33.4880 C   0  0  0  0  0  0  0  0  0  0  0  0
    1.0916  -12.5251  -32.7269 C   0  0  0  0  0  0  0  0  0  0  0  0
   -0.1813   -7.4730  -34.3190 C   0  0  0  0  0  0  0  0  0  0  0  0
    3.1855  -15.2829  -29.3497 N   0  3  0  0  0  0  0  0  0  0  0  0
   -1.3727   -6.6020  -34.8182 C   0  0  0  0  0  0  0  0  0  0  0  0
    0.5352   -7.2977  -37.1648 O   0  0  0  0  0  0  0  0  0  0  0  0
   -3.5850   -7.0435  -35.5158 O   0  0  0  0  0  0  0  0  0  0  0  0
    5.0121  -14.2739  -27.4467 C   0  0  0  0  0  0  0  0  0  0  0  0
    4.8553  -15.6043  -27.0142 C   0  0  0  0  0  0  0  0  0  0  0  0
    6.3062  -13.7268  -27.5424 C   0  0  0  0  0  0  0  0  0  0  0  0
    7.4296  -14.5018  -27.2068 C   0  0  0  0  0  0  0  0  0  0  0  0
    5.9788  -16.3793  -26.6867 C   0  0  0  0  0  0  0  0  0  0  0  0
    7.2674  -15.8280  -26.7804 C   0  0  0  0  0  0  0  0  0  0  0  0
    1.6545   -9.3395  -33.8240 H   0  0  0  0  0  0  0  0  0  0  0  0
    2.2077  -13.4202  -29.2732 H   0  0  0  0  0  0  0  0  0  0  0  0
   -0.6854   -9.0770  -35.5735 H   0  0  0  0  0  0  0  0  0  0  0  0
    2.1162  -12.7853  -34.5814 H   0  0  0  0  0  0  0  0  0  0  0  0
    4.4070  -12.9329  -33.2143 H   0  0  0  0  0  0  0  0  0  0  0  0
    4.7889  -11.5289  -32.1958 H   0  0  0  0  0  0  0  0  0  0  0  0
    1.4590  -13.5890  -30.9083 H   0  0  0  0  0  0  0  0  0  0  0  0
    2.2220  -14.2805  -32.3600 H   0  0  0  0  0  0  0  0  0  0  0  0
    3.0326  -13.5995  -27.0859 H   0  0  0  0  0  0  0  0  0  0  0  0
    4.1039  -12.4248  -27.8793 H   0  0  0  0  0  0  0  0  0  0  0  0
    3.6915  -10.9414  -34.3499 H   0  0  0  0  0  0  0  0  0  0  0  0
    2.8412  -10.3891  -32.9057 H   0  0  0  0  0  0  0  0  0  0  0  0
    0.2778  -13.1267  -33.0745 H   0  0  0  0  0  0  0  0  0  0  0  0
    0.7491  -11.6927  -32.1484 H   0  0  0  0  0  0  0  0  0  0  0  0
    0.6657   -6.8306  -34.1978 H   0  0  0  0  0  0  0  0  0  0  0  0
   -0.5180   -7.9296  -33.4118 H   0  0  0  0  0  0  0  0  0  0  0  0
    4.1391  -15.6397  -29.2902 H   0  0  0  0  0  0  0  0  0  0  0  0
    2.7833  -15.5364  -30.2522 H   0  0  0  0  0  0  0  0  0  0  0  0
    2.6235  -15.6882  -28.6012 H   0  0  0  0  0  0  0  0  0  0  0  0
   -1.3779   -5.6884  -34.2611 H   0  0  0  0  0  0  0  0  0  0  0  0
   -1.2233   -6.4452  -35.8662 H   0  0  0  0  0  0  0  0  0  0  0  0
    3.9101  -16.0116  -26.9374 H   0  0  0  0  0  0  0  0  0  0  0  0
    6.4302  -12.7528  -27.8603 H   0  0  0  0  0  0  0  0  0  0  0  0
    8.3754  -14.0943  -27.2742 H   0  0  0  0  0  0  0  0  0  0  0  0
    5.8579  -17.3561  -26.3764 H   0  0  0  0  0  0  0  0  0  0  0  0
    8.0927  -16.3975  -26.5361 H   0  0  0  0  0  0  0  0  0  0  0  0
  1  2  1  0  0  0  0
  1  5  1  0  0  0  0
  1 12  2  0  0  0  0
  2 10  1  0  0  0  0
  2 11  1  0  0  0  0
  3  9  1  0  0  0  0
  3  4  1  0  0  0  0
  3 13  2  0  0  0  0
  4  7  1  0  0  0  0
  4 30  1  0  0  0  0
  5 14  1  0  0  0  0
  5 20  1  0  0  0  0
  5 31  1  6  0  0  0
  6  7  1  0  0  0  0
  6 15  1  0  0  0  0
  6 22  2  0  0  0  0
  7 19  1  0  0  0  0
  7 32  1  6  0  0  0
  8 21  1  0  0  0  0
  8 16  1  0  0  0  0
  8 23  2  0  0  0  0
  9 18  1  0  0  0  0
  9 17  1  0  0  0  0
  9 33  1  6  0  0  0
 10 17  1  0  0  0  0
 10 34  1  0  0  0  0
 10 35  1  0  0  0  0
 11 18  1  0  0  0  0
 11 36  1  0  0  0  0
 11 37  1  0  0  0  0
 14 24  1  0  0  0  0
 14 38  1  0  0  0  0
 14 39  1  0  0  0  0
 17 40  1  0  0  0  0
 17 41  1  0  0  0  0
 18 42  1  0  0  0  0
 18 43  1  0  0  0  0
 19 21  1  0  0  0  0
 19 44  1  0  0  0  0
 19 45  1  0  0  0  0
 20 46  1  0  0  0  0
 20 47  1  0  0  0  0
 20 48  1  0  0  0  0
 21 49  1  0  0  0  0
 21 50  1  0  0  0  0
 24 25  2  0  0  0  0
 24 26  1  0  0  0  0
 25 28  1  0  0  0  0
 25 51  1  0  0  0  0
 26 27  2  0  0  0  0
 26 52  1  0  0  0  0
 27 29  1  0  0  0  0
 27 53  1  0  0  0  0
 28 29  2  0  0  0  0
 28 54  1  0  0  0  0
 29 55  1  0  0  0  0
M  CHG  3  15  -1  16  -1  20   1
M  END
$$$$
