HTS1710-00179591-01
 OpenBabel03232612353D

 42 43  0  0  0  0  0  0  0  0999 V2000
    3.4295   -9.1054  -31.6070 S   0  0  0  0  0  0  0  0  0  0  0  0
    3.6339   -9.9477  -33.0982 N   0  0  0  0  0  0  0  0  0  0  0  0
    2.6611  -10.8192  -33.5854 C   0  0  0  0  0  0  0  0  0  0  0  0
    5.0106  -10.0649  -33.6268 C   0  0  0  0  0  0  0  0  0  0  0  0
    3.6811  -10.3788  -30.3613 C   0  0  0  0  0  0  0  0  0  0  0  0
    4.5387   -8.1475  -31.5365 O   0  0  0  0  0  0  0  0  0  0  0  0
    2.0327   -8.6611  -31.5492 O   0  0  0  0  0  0  0  0  0  0  0  0
    5.2867   -9.0105  -34.7075 C   0  0  0  0  0  0  0  0  0  0  0  0
    6.3603  -14.3796  -27.2156 C   0  0  0  0  0  0  0  0  0  0  0  0
    1.7016  -10.3803  -34.5250 C   0  0  0  0  0  0  0  0  0  0  0  0
    4.7839   -9.1956  -35.8031 O   0  5  0  0  0  0  0  0  0  0  0  0
    6.9161  -13.3576  -27.5790 O   0  5  0  0  0  0  0  0  0  0  0  0
    4.6063  -11.4135  -30.5850 C   0  0  0  0  0  0  0  0  0  0  0  0
    2.9002  -10.3811  -29.1924 C   0  0  0  0  0  0  0  0  0  0  0  0
    4.0836  -13.4335  -27.5058 O   0  0  0  0  0  0  0  0  0  0  0  0
    4.9046  -14.6149  -27.6553 C   0  0  0  0  0  0  0  0  0  0  0  0
    3.9768  -12.4443  -28.4660 C   0  0  0  0  0  0  0  0  0  0  0  0
    5.9838   -8.0587  -34.4032 O   0  0  0  0  0  0  0  0  0  0  0  0
    6.8514  -15.2299  -26.4941 O   0  0  0  0  0  0  0  0  0  0  0  0
    4.7590  -12.4420  -29.6418 C   0  0  0  0  0  0  0  0  0  0  0  0
    3.0513  -11.4097  -28.2496 C   0  0  0  0  0  0  0  0  0  0  0  0
    2.6061  -12.1411  -33.1031 C   0  0  0  0  0  0  0  0  0  0  0  0
    1.7668   -9.0761  -34.9831 O   0  0  0  0  0  0  0  0  0  0  0  0
    0.6985  -11.2696  -34.9676 C   0  0  0  0  0  0  0  0  0  0  0  0
    0.9871   -8.5861  -36.0860 C   0  0  0  0  0  0  0  0  0  0  0  0
    1.6080  -13.0199  -33.5479 C   0  0  0  0  0  0  0  0  0  0  0  0
    0.6546  -12.5841  -34.4787 C   0  0  0  0  0  0  0  0  0  0  0  0
    5.1394  -11.0392  -34.0500 H   0  0  0  0  0  0  0  0  0  0  0  0
    5.6958   -9.9080  -32.8201 H   0  0  0  0  0  0  0  0  0  0  0  0
    5.1753  -11.4170  -31.4460 H   0  0  0  0  0  0  0  0  0  0  0  0
    2.2159   -9.6264  -29.0275 H   0  0  0  0  0  0  0  0  0  0  0  0
    4.4885  -15.3997  -27.0589 H   0  0  0  0  0  0  0  0  0  0  0  0
    4.9161  -14.8739  -28.6934 H   0  0  0  0  0  0  0  0  0  0  0  0
    5.4432  -13.1967  -29.8076 H   0  0  0  0  0  0  0  0  0  0  0  0
    2.4783  -11.4061  -27.3912 H   0  0  0  0  0  0  0  0  0  0  0  0
    3.3056  -12.4655  -32.4172 H   0  0  0  0  0  0  0  0  0  0  0  0
   -0.0047  -10.9518  -35.6529 H   0  0  0  0  0  0  0  0  0  0  0  0
    1.2109   -7.5526  -36.2497 H   0  0  0  0  0  0  0  0  0  0  0  0
   -0.0538   -8.6946  -35.8630 H   0  0  0  0  0  0  0  0  0  0  0  0
    1.2234   -9.1460  -36.9666 H   0  0  0  0  0  0  0  0  0  0  0  0
    1.5752  -13.9873  -33.1902 H   0  0  0  0  0  0  0  0  0  0  0  0
   -0.0805  -13.2309  -34.8047 H   0  0  0  0  0  0  0  0  0  0  0  0
  1  2  1  0  0  0  0
  1  5  1  0  0  0  0
  1  6  2  0  0  0  0
  1  7  2  0  0  0  0
  2  3  1  0  0  0  0
  2  4  1  0  0  0  0
  3 10  2  0  0  0  0
  3 22  1  0  0  0  0
  4  8  1  0  0  0  0
  4 28  1  0  0  0  0
  4 29  1  0  0  0  0
  5 13  2  0  0  0  0
  5 14  1  0  0  0  0
  8 11  1  0  0  0  0
  8 18  2  0  0  0  0
  9 16  1  0  0  0  0
  9 12  1  0  0  0  0
  9 19  2  0  0  0  0
 10 23  1  0  0  0  0
 10 24  1  0  0  0  0
 13 20  1  0  0  0  0
 13 30  1  0  0  0  0
 14 21  2  0  0  0  0
 14 31  1  0  0  0  0
 15 17  1  0  0  0  0
 15 16  1  0  0  0  0
 16 32  1  0  0  0  0
 16 33  1  0  0  0  0
 17 21  1  0  0  0  0
 17 20  2  0  0  0  0
 20 34  1  0  0  0  0
 21 35  1  0  0  0  0
 22 26  2  0  0  0  0
 22 36  1  0  0  0  0
 23 25  1  0  0  0  0
 24 27  2  0  0  0  0
 24 37  1  0  0  0  0
 25 38  1  0  0  0  0
 25 39  1  0  0  0  0
 25 40  1  0  0  0  0
 26 27  1  0  0  0  0
 26 41  1  0  0  0  0
 27 42  1  0  0  0  0
M  CHG  2  11  -1  12  -1
M  END
$$$$
