HTS1710-00862640-01
 OpenBabel03232612363D

 35 36  0  0  1  0  0  0  0  0999 V2000
    2.7085  -10.8519  -33.2945 N   0  0  0  0  0  0  0  0  0  0  0  0
    1.7883  -11.2727  -34.2482 C   0  0  0  0  0  0  0  0  0  0  0  0
    2.8114  -11.6979  -32.1917 C   0  0  0  0  0  0  0  0  0  0  0  0
    1.9023  -12.8585  -32.3487 C   0  0  0  0  0  0  0  0  0  0  0  0
    0.9736  -12.8083  -33.8333 S   0  0  0  0  0  0  0  0  0  0  0  0
    3.4996   -9.5948  -33.3995 C   0  0  2  0  0  0  0  0  0  0  0  0
    5.0165   -9.8708  -33.6229 C   0  0  0  0  0  0  0  0  0  0  0  0
    1.8424  -13.8569  -31.3955 C   0  0  0  0  0  0  0  0  0  0  0  0
    3.1922   -8.6600  -32.2045 C   0  0  0  0  0  0  0  0  0  0  0  0
    1.3902  -10.4552  -35.6567 S   0  0  0  0  0  0  0  0  0  0  0  0
    5.7483   -8.6662  -34.2300 C   0  0  0  0  0  0  0  0  0  0  0  0
    3.5528  -11.5064  -31.2408 O   0  0  0  0  0  0  0  0  0  0  0  0
    2.5025  -14.1381  -30.0829 C   0  0  0  0  0  0  0  0  0  0  0  0
    2.1192   -8.0808  -32.2182 O   0  5  0  0  0  0  0  0  0  0  0  0
    5.7355   -8.5601  -35.4442 O   0  5  0  0  0  0  0  0  0  0  0  0
    3.8960  -14.0369  -29.8717 C   0  0  0  0  0  0  0  0  0  0  0  0
    4.0288   -8.5559  -31.3239 O   0  0  0  0  0  0  0  0  0  0  0  0
    6.2748   -7.8846  -33.4572 O   0  0  0  0  0  0  0  0  0  0  0  0
    4.4538  -14.3126  -28.6023 C   0  0  0  0  0  0  0  0  0  0  0  0
    5.8119  -14.2239  -28.3583 O   0  0  0  0  0  0  0  0  0  0  0  0
    2.2356  -14.7943  -27.7405 C   0  0  0  0  0  0  0  0  0  0  0  0
    1.6840  -14.5211  -29.0007 C   0  0  0  0  0  0  0  0  0  0  0  0
    3.6185  -14.6896  -27.5410 C   0  0  0  0  0  0  0  0  0  0  0  0
    6.4735  -14.9682  -27.3197 C   0  0  0  0  0  0  0  0  0  0  0  0
    3.1927   -9.0691  -34.2794 H   0  0  0  0  0  0  0  0  0  0  0  0
    5.1199  -10.7049  -34.2852 H   0  0  0  0  0  0  0  0  0  0  0  0
    5.4553  -10.0711  -32.6678 H   0  0  0  0  0  0  0  0  0  0  0  0
    1.1716  -14.5969  -31.6551 H   0  0  0  0  0  0  0  0  0  0  0  0
    4.5122  -13.7592  -30.6515 H   0  0  0  0  0  0  0  0  0  0  0  0
    1.6220  -15.0729  -26.9590 H   0  0  0  0  0  0  0  0  0  0  0  0
    0.6643  -14.6015  -29.1379 H   0  0  0  0  0  0  0  0  0  0  0  0
    4.0224  -14.8901  -26.6127 H   0  0  0  0  0  0  0  0  0  0  0  0
    7.5179  -14.7355  -27.3242 H   0  0  0  0  0  0  0  0  0  0  0  0
    6.3408  -16.0159  -27.4917 H   0  0  0  0  0  0  0  0  0  0  0  0
    6.0540  -14.7065  -26.3708 H   0  0  0  0  0  0  0  0  0  0  0  0
  1  2  1  0  0  0  0
  1  3  1  0  0  0  0
  1  6  1  0  0  0  0
  2  5  1  0  0  0  0
  2 10  2  0  0  0  0
  3  4  1  0  0  0  0
  3 12  2  0  0  0  0
  4  8  2  0  0  0  0
  4  5  1  0  0  0  0
  6  7  1  0  0  0  0
  6  9  1  0  0  0  0
  6 25  1  6  0  0  0
  7 11  1  0  0  0  0
  7 26  1  0  0  0  0
  7 27  1  0  0  0  0
  8 13  1  0  0  0  0
  8 28  1  0  0  0  0
  9 14  1  0  0  0  0
  9 17  2  0  0  0  0
 11 15  1  0  0  0  0
 11 18  2  0  0  0  0
 13 16  2  0  0  0  0
 13 22  1  0  0  0  0
 16 19  1  0  0  0  0
 16 29  1  0  0  0  0
 19 20  1  0  0  0  0
 19 23  2  0  0  0  0
 20 24  1  0  0  0  0
 21 22  2  0  0  0  0
 21 23  1  0  0  0  0
 21 30  1  0  0  0  0
 22 31  1  0  0  0  0
 23 32  1  0  0  0  0
 24 33  1  0  0  0  0
 24 34  1  0  0  0  0
 24 35  1  0  0  0  0
M  CHG  2  14  -1  15  -1
M  END
$$$$
