HTS1710-05388097-01
 OpenBabel03232612353D

 37 38  0  0  1  0  0  0  0  0999 V2000
    2.2062  -14.3056  -28.3225 C   0  0  0  0  0  0  0  0  0  0  0  0
    3.4801  -13.8175  -28.8838 N   0  0  0  0  0  0  0  0  0  0  0  0
    4.5868  -14.7746  -28.7075 C   0  0  0  0  0  0  0  0  0  0  0  0
    3.8870  -12.1849  -28.5935 S   0  0  0  0  0  0  0  0  0  0  0  0
    5.2109  -12.1949  -27.9630 O   0  0  0  0  0  0  0  0  0  0  0  0
    2.7253  -11.5323  -27.9807 O   0  0  0  0  0  0  0  0  0  0  0  0
    4.1290  -11.5083  -30.2342 C   0  0  0  0  0  0  0  0  0  0  0  0
    3.7896  -12.1292  -31.4074 C   0  0  0  0  0  0  0  0  0  0  0  0
    4.1559  -11.2274  -32.4392 C   0  0  0  0  0  0  0  0  0  0  0  0
    4.7172  -10.1638  -31.7704 C   0  0  0  0  0  0  0  0  0  0  0  0
    4.7108  -10.2805  -30.4050 O   0  0  0  0  0  0  0  0  0  0  0  0
    4.0292  -11.4939  -33.8964 C   0  0  0  0  0  0  0  0  0  0  0  0
    4.7781  -12.2789  -34.4555 O   0  0  0  0  0  0  0  0  0  0  0  0
    3.0409  -10.7852  -34.5957 N   0  0  0  0  0  0  0  0  0  0  0  0
    2.2053   -9.8295  -33.8224 C   0  0  0  0  0  0  0  0  0  0  0  0
    0.9503   -9.3414  -34.5813 C   0  0  0  0  0  0  0  0  0  0  0  0
    1.3594   -8.8429  -35.8617 O   0  0  0  0  0  0  0  0  0  0  0  0
    1.9327   -9.8609  -36.6997 C   0  0  0  0  0  0  0  0  0  0  0  0
    3.2246  -10.4156  -36.0350 C   0  0  1  0  0  0  0  0  0  0  0  0
    4.4247   -9.4545  -36.1622 C   0  0  0  0  0  0  0  0  0  0  0  0
    4.5826   -8.9185  -37.2444 O   0  5  0  0  0  0  0  0  0  0  0  0
    5.1364   -9.2870  -35.1857 O   0  0  0  0  0  0  0  0  0  0  0  0
    2.0759  -15.3366  -28.5771 H   0  0  0  0  0  0  0  0  0  0  0  0
    1.3965  -13.7337  -28.7254 H   0  0  0  0  0  0  0  0  0  0  0  0
    2.2220  -14.2004  -27.2578 H   0  0  0  0  0  0  0  0  0  0  0  0
    4.2372  -15.7654  -28.9101 H   0  0  0  0  0  0  0  0  0  0  0  0
    4.9467  -14.7221  -27.7012 H   0  0  0  0  0  0  0  0  0  0  0  0
    5.3800  -14.5311  -29.3831 H   0  0  0  0  0  0  0  0  0  0  0  0
    3.3572  -13.0597  -31.5176 H   0  0  0  0  0  0  0  0  0  0  0  0
    5.1113   -9.3441  -32.2579 H   0  0  0  0  0  0  0  0  0  0  0  0
    2.8050   -8.9773  -33.5793 H   0  0  0  0  0  0  0  0  0  0  0  0
    1.8609  -10.3497  -32.9532 H   0  0  0  0  0  0  0  0  0  0  0  0
    0.4730   -8.5614  -34.0257 H   0  0  0  0  0  0  0  0  0  0  0  0
    0.2593  -10.1490  -34.7055 H   0  0  0  0  0  0  0  0  0  0  0  0
    2.1746   -9.4421  -37.6541 H   0  0  0  0  0  0  0  0  0  0  0  0
    1.2280  -10.6560  -36.8263 H   0  0  0  0  0  0  0  0  0  0  0  0
    3.4384  -11.3082  -36.5849 H   0  0  0  0  0  0  0  0  0  0  0  0
  1  2  1  0  0  0  0
  1 23  1  0  0  0  0
  1 24  1  0  0  0  0
  1 25  1  0  0  0  0
  2  3  1  0  0  0  0
  2  4  1  0  0  0  0
  3 26  1  0  0  0  0
  3 27  1  0  0  0  0
  3 28  1  0  0  0  0
  4  5  2  0  0  0  0
  4  6  2  0  0  0  0
  4  7  1  0  0  0  0
  7  8  2  0  0  0  0
  7 11  1  0  0  0  0
  8  9  1  0  0  0  0
  8 29  1  0  0  0  0
  9 10  2  0  0  0  0
  9 12  1  0  0  0  0
 10 11  1  0  0  0  0
 10 30  1  0  0  0  0
 12 13  2  0  0  0  0
 12 14  1  0  0  0  0
 14 15  1  0  0  0  0
 14 19  1  0  0  0  0
 15 16  1  0  0  0  0
 15 31  1  0  0  0  0
 15 32  1  0  0  0  0
 16 17  1  0  0  0  0
 16 33  1  0  0  0  0
 16 34  1  0  0  0  0
 17 18  1  0  0  0  0
 18 19  1  0  0  0  0
 18 35  1  0  0  0  0
 18 36  1  0  0  0  0
 19 20  1  0  0  0  0
 19 37  1  6  0  0  0
 20 21  1  0  0  0  0
 20 22  2  0  0  0  0
M  CHG  1  21  -1
M  END
$$$$
