HTS1710-01240906-01
 OpenBabel03232612353D

 45 46  0  0  1  0  0  0  0  0999 V2000
    3.4538   -8.3371  -31.5109 C   0  0  0  0  0  0  0  0  0  0  0  0
    4.7925   -9.5488  -33.0103 N   0  0  0  0  0  0  0  0  0  0  0  0
    4.5887   -7.6586  -31.7713 C   0  0  0  0  0  0  0  0  0  0  0  0
    5.4564   -8.3704  -32.7179 C   0  0  0  0  0  0  0  0  0  0  0  0
    3.5143   -9.6706  -32.2652 C   0  0  1  0  0  0  0  0  0  0  0  0
    3.4852  -10.8858  -31.3420 C   0  0  0  0  0  0  0  0  0  0  0  0
    2.3920   -8.0582  -30.4974 C   0  0  0  0  0  0  0  0  0  0  0  0
    2.8314  -12.0664  -31.7361 C   0  0  0  0  0  0  0  0  0  0  0  0
    2.8029  -13.1887  -30.8793 C   0  0  0  0  0  0  0  0  0  0  0  0
    6.5393   -8.0145  -33.1493 O   0  0  0  0  0  0  0  0  0  0  0  0
    3.2512   -9.4676  -36.9919 C   0  0  0  0  0  0  0  0  0  0  0  0
    4.1043  -10.8246  -30.0818 C   0  0  0  0  0  0  0  0  0  0  0  0
    3.4255  -13.1206  -29.6169 C   0  0  0  0  0  0  0  0  0  0  0  0
    4.9675   -6.4771  -31.2328 O   0  5  0  0  0  0  0  0  0  0  0  0
    2.5598   -8.2837  -29.3117 O   0  0  0  0  0  0  0  0  0  0  0  0
    4.0979   -9.0235  -37.7464 O   0  5  0  0  0  0  0  0  0  0  0  0
    4.0764  -11.9320  -29.2219 C   0  0  0  0  0  0  0  0  0  0  0  0
    5.2559  -10.6186  -33.9141 C   0  0  0  0  0  0  0  0  0  0  0  0
    2.0735   -9.1537  -36.9884 O   0  0  0  0  0  0  0  0  0  0  0  0
    2.1732  -14.3663  -31.2452 O   0  0  0  0  0  0  0  0  0  0  0  0
    3.3753  -14.2325  -28.7937 O   0  0  0  0  0  0  0  0  0  0  0  0
    5.1086  -10.2452  -35.4102 C   0  0  0  0  0  0  0  0  0  0  0  0
    3.7011  -10.5374  -35.9879 C   0  0  0  0  0  0  0  0  0  0  0  0
    1.1383   -7.3375  -30.9997 C   0  0  0  0  0  0  0  0  0  0  0  0
    0.9209  -14.4001  -31.9535 C   0  0  0  0  0  0  0  0  0  0  0  0
    4.5464  -14.8418  -28.2236 C   0  0  0  0  0  0  0  0  0  0  0  0
    2.6651   -9.8353  -32.8949 H   0  0  0  0  0  0  0  0  0  0  0  0
    2.3691  -12.1132  -32.6576 H   0  0  0  0  0  0  0  0  0  0  0  0
    4.5828   -9.9589  -29.7873 H   0  0  0  0  0  0  0  0  0  0  0  0
    4.5328  -11.8778  -28.2979 H   0  0  0  0  0  0  0  0  0  0  0  0
    4.6807  -11.5004  -33.7234 H   0  0  0  0  0  0  0  0  0  0  0  0
    6.2969  -10.7748  -33.7217 H   0  0  0  0  0  0  0  0  0  0  0  0
    5.8271  -10.8058  -35.9709 H   0  0  0  0  0  0  0  0  0  0  0  0
    5.2656   -9.1896  -35.4865 H   0  0  0  0  0  0  0  0  0  0  0  0
    3.7219  -11.4862  -36.4820 H   0  0  0  0  0  0  0  0  0  0  0  0
    3.0062  -10.5363  -35.1743 H   0  0  0  0  0  0  0  0  0  0  0  0
    1.1855   -7.2396  -32.0642 H   0  0  0  0  0  0  0  0  0  0  0  0
    1.0827   -6.3662  -30.5543 H   0  0  0  0  0  0  0  0  0  0  0  0
    0.2703   -7.9030  -30.7317 H   0  0  0  0  0  0  0  0  0  0  0  0
    0.6348  -15.4169  -32.1238 H   0  0  0  0  0  0  0  0  0  0  0  0
    1.0284  -13.8978  -32.8922 H   0  0  0  0  0  0  0  0  0  0  0  0
    0.1685  -13.9106  -31.3711 H   0  0  0  0  0  0  0  0  0  0  0  0
    4.2571  -15.6815  -27.6269 H   0  0  0  0  0  0  0  0  0  0  0  0
    5.0574  -14.1284  -27.6113 H   0  0  0  0  0  0  0  0  0  0  0  0
    5.1962  -15.1688  -29.0083 H   0  0  0  0  0  0  0  0  0  0  0  0
  1  3  2  0  0  0  0
  1  5  1  0  0  0  0
  1  7  1  0  0  0  0
  2  5  1  0  0  0  0
  2 18  1  0  0  0  0
  2  4  1  0  0  0  0
  3  4  1  0  0  0  0
  3 14  1  0  0  0  0
  4 10  2  0  0  0  0
  5  6  1  0  0  0  0
  5 27  1  6  0  0  0
  6  8  2  0  0  0  0
  6 12  1  0  0  0  0
  7 15  2  0  0  0  0
  7 24  1  0  0  0  0
  8  9  1  0  0  0  0
  8 28  1  0  0  0  0
  9 20  1  0  0  0  0
  9 13  2  0  0  0  0
 11 23  1  0  0  0  0
 11 16  1  0  0  0  0
 11 19  2  0  0  0  0
 12 17  2  0  0  0  0
 12 29  1  0  0  0  0
 13 17  1  0  0  0  0
 13 21  1  0  0  0  0
 17 30  1  0  0  0  0
 18 22  1  0  0  0  0
 18 31  1  0  0  0  0
 18 32  1  0  0  0  0
 20 25  1  0  0  0  0
 21 26  1  0  0  0  0
 22 23  1  0  0  0  0
 22 33  1  0  0  0  0
 22 34  1  0  0  0  0
 23 35  1  0  0  0  0
 23 36  1  0  0  0  0
 24 37  1  0  0  0  0
 24 38  1  0  0  0  0
 24 39  1  0  0  0  0
 25 40  1  0  0  0  0
 25 41  1  0  0  0  0
 25 42  1  0  0  0  0
 26 43  1  0  0  0  0
 26 44  1  0  0  0  0
 26 45  1  0  0  0  0
M  CHG  2  14  -1  16  -1
M  END
$$$$
