HTS1710-02804739-01
 OpenBabel03232612353D

 40 42  0  0  1  0  0  0  0  0999 V2000
    3.6986  -11.6931  -31.5413 C   0  0  0  0  0  0  0  0  0  0  0  0
    4.0671  -10.6975  -30.6541 C   0  0  0  0  0  0  0  0  0  0  0  0
    3.9069  -11.8183  -33.0227 C   0  0  0  0  0  0  0  0  0  0  0  0
    3.0760  -12.6543  -30.7307 N   0  0  0  0  0  0  0  0  0  0  0  0
    3.0535  -12.2892  -29.4103 N   0  0  0  0  0  0  0  0  0  0  0  0
    1.3132  -10.0655  -35.3622 C   0  0  0  0  0  0  0  0  0  0  0  0
    3.6460  -11.1146  -29.3638 C   0  0  0  0  0  0  0  0  0  0  0  0
    3.5990  -10.7410  -33.8412 N   0  0  0  0  0  0  0  0  0  0  0  0
    4.7629   -9.3949  -30.8587 C   0  0  0  0  0  0  0  0  0  0  0  0
   -0.3179   -9.4193  -33.9083 N   0  0  0  0  0  0  0  0  0  0  0  0
    0.6671  -10.3939  -34.1674 C   0  0  0  0  0  0  0  0  0  0  0  0
    3.7640  -10.7538  -35.3059 C   0  0  2  0  0  0  0  0  0  0  0  0
    0.6977   -8.8488  -35.8291 C   0  0  0  0  0  0  0  0  0  0  0  0
    4.4665   -9.4680  -35.7852 C   0  0  0  0  0  0  0  0  0  0  0  0
    2.3803  -10.9249  -35.9928 C   0  0  0  0  0  0  0  0  0  0  0  0
   -0.2712   -8.5103  -34.9379 C   0  0  0  0  0  0  0  0  0  0  0  0
    4.3212  -12.8270  -33.5641 O   0  0  0  0  0  0  0  0  0  0  0  0
    4.5945   -8.5456  -29.9999 O   0  5  0  0  0  0  0  0  0  0  0  0
    4.3503   -9.1485  -36.9564 O   0  5  0  0  0  0  0  0  0  0  0  0
    5.4505   -9.2255  -31.8465 O   0  0  0  0  0  0  0  0  0  0  0  0
    5.0823   -8.8374  -34.9430 O   0  0  0  0  0  0  0  0  0  0  0  0
    2.4878  -13.9541  -31.0974 C   0  0  0  0  0  0  0  0  0  0  0  0
    0.9376   -8.0836  -36.9766 C   0  0  0  0  0  0  0  0  0  0  0  0
   -1.0955   -7.3937  -35.1130 C   0  0  0  0  0  0  0  0  0  0  0  0
    0.1271   -6.9490  -37.1912 C   0  0  0  0  0  0  0  0  0  0  0  0
   -0.8862   -6.6063  -36.2648 C   0  0  0  0  0  0  0  0  0  0  0  0
    3.7864  -10.5671  -28.5004 H   0  0  0  0  0  0  0  0  0  0  0  0
    3.2508   -9.9221  -33.4199 H   0  0  0  0  0  0  0  0  0  0  0  0
   -0.9258   -9.3945  -33.1343 H   0  0  0  0  0  0  0  0  0  0  0  0
    0.8758  -11.2123  -33.5744 H   0  0  0  0  0  0  0  0  0  0  0  0
    4.3825  -11.5831  -35.5787 H   0  0  0  0  0  0  0  0  0  0  0  0
    2.4732  -10.6553  -37.0241 H   0  0  0  0  0  0  0  0  0  0  0  0
    2.0846  -11.9470  -35.8789 H   0  0  0  0  0  0  0  0  0  0  0  0
    2.5777  -14.1011  -32.1534 H   0  0  0  0  0  0  0  0  0  0  0  0
    1.4540  -13.9682  -30.8221 H   0  0  0  0  0  0  0  0  0  0  0  0
    3.0046  -14.7372  -30.5830 H   0  0  0  0  0  0  0  0  0  0  0  0
    1.6824   -8.3408  -37.6431 H   0  0  0  0  0  0  0  0  0  0  0  0
   -1.8281   -7.1552  -34.4263 H   0  0  0  0  0  0  0  0  0  0  0  0
    0.2741   -6.3652  -38.0294 H   0  0  0  0  0  0  0  0  0  0  0  0
   -1.4753   -5.7757  -36.4327 H   0  0  0  0  0  0  0  0  0  0  0  0
  1  2  2  0  0  0  0
  1  3  1  0  0  0  0
  1  4  1  0  0  0  0
  2  7  1  0  0  0  0
  2  9  1  0  0  0  0
  3  8  1  0  0  0  0
  3 17  2  0  0  0  0
  4  5  1  0  0  0  0
  4 22  1  0  0  0  0
  5  7  2  0  0  0  0
  6 11  2  0  0  0  0
  6 13  1  0  0  0  0
  6 15  1  0  0  0  0
  7 27  1  0  0  0  0
  8 12  1  0  0  0  0
  8 28  1  0  0  0  0
  9 18  1  0  0  0  0
  9 20  2  0  0  0  0
 10 11  1  0  0  0  0
 10 16  1  0  0  0  0
 10 29  1  0  0  0  0
 11 30  1  0  0  0  0
 12 14  1  0  0  0  0
 12 15  1  0  0  0  0
 12 31  1  6  0  0  0
 13 16  2  0  0  0  0
 13 23  1  0  0  0  0
 14 19  1  0  0  0  0
 14 21  2  0  0  0  0
 15 32  1  0  0  0  0
 15 33  1  0  0  0  0
 16 24  1  0  0  0  0
 22 34  1  0  0  0  0
 22 35  1  0  0  0  0
 22 36  1  0  0  0  0
 23 25  2  0  0  0  0
 23 37  1  0  0  0  0
 24 26  2  0  0  0  0
 24 38  1  0  0  0  0
 25 26  1  0  0  0  0
 25 39  1  0  0  0  0
 26 40  1  0  0  0  0
M  CHG  2  18  -1  19  -1
M  END
$$$$
