HTS1710-03590769-01
 OpenBabel03232612353D

 41 44  0  0  1  0  0  0  0  0999 V2000
    4.3138  -10.5124  -31.2775 C   0  0  0  0  0  0  0  0  0  0  0  0
    3.7178  -10.4662  -33.7283 C   0  0  0  0  0  0  0  0  0  0  0  0
    2.5576   -9.7071  -33.7696 C   0  0  0  0  0  0  0  0  0  0  0  0
    4.2655   -9.5090  -30.3240 C   0  0  0  0  0  0  0  0  0  0  0  0
    3.8839  -11.9047  -30.9800 C   0  0  0  0  0  0  0  0  0  0  0  0
    1.5890   -9.9879  -34.7430 N   0  0  0  0  0  0  0  0  0  0  0  0
    3.4289  -12.0918  -29.6719 N   0  0  0  0  0  0  0  0  0  0  0  0
    3.7877   -9.7993  -29.0602 N   0  0  0  0  0  0  0  0  0  0  0  0
    3.9119  -11.5675  -34.6987 C   0  0  0  0  0  0  0  0  0  0  0  0
    3.3672  -11.0711  -28.7195 C   0  0  0  0  0  0  0  0  0  0  0  0
    1.7748  -11.0175  -35.6754 C   0  0  0  0  0  0  0  0  0  0  0  0
    4.8041  -10.2120  -32.6810 C   0  0  1  0  0  0  0  0  0  0  0  0
    2.9253  -11.7874  -35.6398 N   0  0  0  0  0  0  0  0  0  0  0  0
    4.6644   -8.2185  -30.5631 O   0  0  0  0  0  0  0  0  0  0  0  0
    5.2435   -7.8785  -31.7671 C   0  0  0  0  0  0  0  0  0  0  0  0
    5.3531   -8.8026  -32.8226 C   0  0  0  0  0  0  0  0  0  0  0  0
    2.3156   -8.7029  -32.8949 O   0  5  0  0  0  0  0  0  0  0  0  0
    5.7373   -6.5717  -31.9205 C   0  0  0  0  0  0  0  0  0  0  0  0
    3.9216  -12.8060  -31.8033 O   0  0  0  0  0  0  0  0  0  0  0  0
    5.9737   -8.4093  -34.0249 C   0  0  0  0  0  0  0  0  0  0  0  0
    2.9557  -11.2341  -27.5838 O   0  0  0  0  0  0  0  0  0  0  0  0
    0.9607  -11.2867  -36.5423 O   0  0  0  0  0  0  0  0  0  0  0  0
    4.8867  -12.2978  -34.7208 O   0  0  0  0  0  0  0  0  0  0  0  0
    0.3499   -9.1735  -34.7812 C   0  0  0  0  0  0  0  0  0  0  0  0
    2.9777  -13.4544  -29.2969 C   0  0  0  0  0  0  0  0  0  0  0  0
    6.3486   -6.1838  -33.1229 C   0  0  0  0  0  0  0  0  0  0  0  0
    6.4689   -7.1051  -34.1752 C   0  0  0  0  0  0  0  0  0  0  0  0
    6.8281   -4.9131  -33.2664 O   0  0  0  0  0  0  0  0  0  0  0  0
    3.7457   -9.0828  -28.3862 H   0  0  0  0  0  0  0  0  0  0  0  0
    5.6124  -10.8902  -32.8587 H   0  0  0  0  0  0  0  0  0  0  0  0
    3.0426  -12.5079  -36.3004 H   0  0  0  0  0  0  0  0  0  0  0  0
    5.6501   -5.8950  -31.1463 H   0  0  0  0  0  0  0  0  0  0  0  0
    6.0646   -9.0848  -34.7998 H   0  0  0  0  0  0  0  0  0  0  0  0
    0.3805   -8.4408  -34.0020 H   0  0  0  0  0  0  0  0  0  0  0  0
   -0.4992   -9.8092  -34.6398 H   0  0  0  0  0  0  0  0  0  0  0  0
    0.2745   -8.6832  -35.7291 H   0  0  0  0  0  0  0  0  0  0  0  0
    3.0905  -14.1106  -30.1345 H   0  0  0  0  0  0  0  0  0  0  0  0
    1.9488  -13.4217  -29.0053 H   0  0  0  0  0  0  0  0  0  0  0  0
    3.5686  -13.8136  -28.4803 H   0  0  0  0  0  0  0  0  0  0  0  0
    6.9213   -6.8233  -35.0588 H   0  0  0  0  0  0  0  0  0  0  0  0
    6.7598   -4.3037  -32.5579 H   0  0  0  0  0  0  0  0  0  0  0  0
  1  4  2  0  0  0  0
  1  5  1  0  0  0  0
  1 12  1  0  0  0  0
  2 12  1  0  0  0  0
  2  3  2  0  0  0  0
  2  9  1  0  0  0  0
  3  6  1  0  0  0  0
  3 17  1  0  0  0  0
  4  8  1  0  0  0  0
  4 14  1  0  0  0  0
  5  7  1  0  0  0  0
  5 19  2  0  0  0  0
  6 24  1  0  0  0  0
  6 11  1  0  0  0  0
  7 10  1  0  0  0  0
  7 25  1  0  0  0  0
  8 10  1  0  0  0  0
  8 29  1  0  0  0  0
  9 13  1  0  0  0  0
  9 23  2  0  0  0  0
 10 21  2  0  0  0  0
 11 13  1  0  0  0  0
 11 22  2  0  0  0  0
 12 16  1  0  0  0  0
 12 30  1  6  0  0  0
 13 31  1  0  0  0  0
 14 15  1  0  0  0  0
 15 16  2  0  0  0  0
 15 18  1  0  0  0  0
 16 20  1  0  0  0  0
 18 26  2  0  0  0  0
 18 32  1  0  0  0  0
 20 27  2  0  0  0  0
 20 33  1  0  0  0  0
 24 34  1  0  0  0  0
 24 35  1  0  0  0  0
 24 36  1  0  0  0  0
 25 37  1  0  0  0  0
 25 38  1  0  0  0  0
 25 39  1  0  0  0  0
 26 27  1  0  0  0  0
 26 28  1  0  0  0  0
 27 40  1  0  0  0  0
 28 41  1  0  0  0  0
M  CHG  1  17  -1
M  END
$$$$
