HTS1710-00964102-01
 OpenBabel03232612363D

 46 48  0  0  0  0  0  0  0  0999 V2000
   -2.2017   -6.9967  -33.6618 S   0  0  0  0  0  0  0  0  0  0  0  0
    3.3617   -9.8737  -33.5880 S   0  0  0  0  0  0  0  0  0  0  0  0
    1.9693   -8.8963  -33.7238 N   0  0  0  0  0  0  0  0  0  0  0  0
   -0.7685   -7.9172  -33.5575 N   0  0  0  0  0  0  0  0  0  0  0  0
   -1.6308   -5.4425  -34.3746 C   0  0  0  0  0  0  0  0  0  0  0  0
    2.9480  -11.0000  -32.2399 C   0  0  0  0  0  0  0  0  0  0  0  0
    3.0736  -11.0429  -28.4067 C   0  0  0  0  0  0  0  0  0  0  0  0
   -0.5584   -4.1102  -37.8100 C   0  0  0  0  0  0  0  0  0  0  0  0
    1.4467   -8.3128  -32.4652 C   0  0  0  0  0  0  0  0  0  0  0  0
    0.2956   -7.3140  -32.7306 C   0  0  0  0  0  0  0  0  0  0  0  0
    0.9015   -9.4796  -34.5642 C   0  0  0  0  0  0  0  0  0  0  0  0
   -0.2455   -8.4772  -34.8235 C   0  0  0  0  0  0  0  0  0  0  0  0
   -1.3458   -5.3747  -35.7506 C   0  0  0  0  0  0  0  0  0  0  0  0
    3.1541  -10.6023  -30.9063 C   0  0  0  0  0  0  0  0  0  0  0  0
   -3.0234   -7.6375  -34.6926 O   0  0  0  0  0  0  0  0  0  0  0  0
   -2.6949   -6.7769  -32.2976 O   0  0  0  0  0  0  0  0  0  0  0  0
    4.4278   -9.0011  -33.0868 O   0  0  0  0  0  0  0  0  0  0  0  0
    3.4941  -10.6278  -34.8387 O   0  0  0  0  0  0  0  0  0  0  0  0
   -0.8748   -4.1769  -36.3314 C   0  0  0  0  0  0  0  0  0  0  0  0
    2.8359  -11.4689  -29.8388 C   0  0  0  0  0  0  0  0  0  0  0  0
    3.2921   -9.8622  -28.1988 O   0  5  0  0  0  0  0  0  0  0  0  0
   -0.3112   -3.0154  -38.2858 O   0  5  0  0  0  0  0  0  0  0  0  0
   -0.5689   -5.1565  -38.4355 O   0  0  0  0  0  0  0  0  0  0  0  0
    3.0295  -11.9075  -27.5473 O   0  0  0  0  0  0  0  0  0  0  0  0
   -1.4484   -4.3091  -33.5640 C   0  0  0  0  0  0  0  0  0  0  0  0
    2.4128  -12.2694  -32.5156 C   0  0  0  0  0  0  0  0  0  0  0  0
    2.2963  -12.7402  -30.1323 C   0  0  0  0  0  0  0  0  0  0  0  0
   -0.7016   -3.0448  -35.5039 C   0  0  0  0  0  0  0  0  0  0  0  0
    2.0857  -13.1347  -31.4626 C   0  0  0  0  0  0  0  0  0  0  0  0
   -0.9858   -3.1136  -34.1312 C   0  0  0  0  0  0  0  0  0  0  0  0
    1.0831   -9.1029  -31.8418 H   0  0  0  0  0  0  0  0  0  0  0  0
    2.2441   -7.7828  -31.9876 H   0  0  0  0  0  0  0  0  0  0  0  0
    0.6885   -6.4590  -33.2401 H   0  0  0  0  0  0  0  0  0  0  0  0
   -0.1298   -7.0360  -31.7890 H   0  0  0  0  0  0  0  0  0  0  0  0
    0.5027  -10.3397  -34.0680 H   0  0  0  0  0  0  0  0  0  0  0  0
    1.3309   -9.7412  -35.5087 H   0  0  0  0  0  0  0  0  0  0  0  0
   -1.0388   -8.9806  -35.3358 H   0  0  0  0  0  0  0  0  0  0  0  0
    0.1375   -7.6723  -35.4155 H   0  0  0  0  0  0  0  0  0  0  0  0
   -1.4825   -6.2094  -36.3419 H   0  0  0  0  0  0  0  0  0  0  0  0
    3.5420   -9.6671  -30.7064 H   0  0  0  0  0  0  0  0  0  0  0  0
   -1.6545   -4.3569  -32.5539 H   0  0  0  0  0  0  0  0  0  0  0  0
    2.2607  -12.5645  -33.4926 H   0  0  0  0  0  0  0  0  0  0  0  0
    2.0549  -13.3842  -29.3628 H   0  0  0  0  0  0  0  0  0  0  0  0
   -0.3630   -2.1596  -35.9123 H   0  0  0  0  0  0  0  0  0  0  0  0
    1.6885  -14.0653  -31.6662 H   0  0  0  0  0  0  0  0  0  0  0  0
   -0.8536   -2.2804  -33.5368 H   0  0  0  0  0  0  0  0  0  0  0  0
  1  4  1  0  0  0  0
  1  5  1  0  0  0  0
  1 15  2  0  0  0  0
  1 16  2  0  0  0  0
  2  3  1  0  0  0  0
  2  6  1  0  0  0  0
  2 17  2  0  0  0  0
  2 18  2  0  0  0  0
  3 11  1  0  0  0  0
  3  9  1  0  0  0  0
  4 10  1  0  0  0  0
  4 12  1  0  0  0  0
  5 13  2  0  0  0  0
  5 25  1  0  0  0  0
  6 14  2  0  0  0  0
  6 26  1  0  0  0  0
  7 20  1  0  0  0  0
  7 21  1  0  0  0  0
  7 24  2  0  0  0  0
  8 19  1  0  0  0  0
  8 22  1  0  0  0  0
  8 23  2  0  0  0  0
  9 10  1  0  0  0  0
  9 31  1  0  0  0  0
  9 32  1  0  0  0  0
 10 33  1  0  0  0  0
 10 34  1  0  0  0  0
 11 12  1  0  0  0  0
 11 35  1  0  0  0  0
 11 36  1  0  0  0  0
 12 37  1  0  0  0  0
 12 38  1  0  0  0  0
 13 19  1  0  0  0  0
 13 39  1  0  0  0  0
 14 20  1  0  0  0  0
 14 40  1  0  0  0  0
 19 28  2  0  0  0  0
 20 27  2  0  0  0  0
 25 30  2  0  0  0  0
 25 41  1  0  0  0  0
 26 29  2  0  0  0  0
 26 42  1  0  0  0  0
 27 29  1  0  0  0  0
 27 43  1  0  0  0  0
 28 30  1  0  0  0  0
 28 44  1  0  0  0  0
 29 45  1  0  0  0  0
 30 46  1  0  0  0  0
M  CHG  2  21  -1  22  -1
M  END
$$$$
