HTS1710-05120948-01
 OpenBabel03232612353D

 42 44  0  0  1  0  0  0  0  0999 V2000
    3.7201   -9.7464  -34.5604 O   0  5  0  0  0  0  0  0  0  0  0  0
    4.6488   -9.1446  -34.0491 C   0  0  0  0  0  0  0  0  0  0  0  0
    5.5107   -8.5392  -34.6630 O   0  0  0  0  0  0  0  0  0  0  0  0
    4.7364   -9.1519  -32.5767 C   0  0  0  0  0  0  0  0  0  0  0  0
    5.3692   -8.2381  -31.7768 C   0  0  0  0  0  0  0  0  0  0  0  0
    5.2825   -8.5076  -30.4361 O   0  0  0  0  0  0  0  0  0  0  0  0
    4.5400   -9.6636  -30.4203 C   0  0  0  0  0  0  0  0  0  0  0  0
    4.1886  -10.1003  -31.6761 C   0  0  0  0  0  0  0  0  0  0  0  0
    4.1554  -10.3904  -29.1703 C   0  0  0  0  0  0  0  0  0  0  0  0
    3.8473   -9.7758  -28.1614 O   0  0  0  0  0  0  0  0  0  0  0  0
    4.1543  -11.7959  -29.1872 N   0  0  0  0  0  0  0  0  0  0  0  0
    4.4896  -12.7018  -30.2999 C   0  0  0  0  0  0  0  0  0  0  0  0
    4.5239  -14.1318  -29.7347 C   0  0  0  0  0  0  0  0  0  0  0  0
    3.7104  -14.0633  -28.4301 C   0  0  1  0  0  0  0  0  0  0  0  0
    4.1955  -15.0543  -27.3378 C   0  0  0  0  0  0  0  0  0  0  0  0
    5.5406  -14.7302  -26.9264 O   0  0  0  0  0  0  0  0  0  0  0  0
    6.5539  -15.6906  -27.2788 C   0  0  0  0  0  0  0  0  0  0  0  0
    6.6848  -16.7012  -26.1492 C   0  0  0  0  0  0  0  0  0  0  0  0
    5.5796  -17.4812  -25.7568 C   0  0  0  0  0  0  0  0  0  0  0  0
    5.7050  -18.4089  -24.7100 C   0  0  0  0  0  0  0  0  0  0  0  0
    6.9359  -18.5643  -24.0510 C   0  0  0  0  0  0  0  0  0  0  0  0
    8.0401  -17.7911  -24.4404 C   0  0  0  0  0  0  0  0  0  0  0  0
    7.9154  -16.8619  -25.4856 C   0  0  0  0  0  0  0  0  0  0  0  0
    3.8227  -12.5896  -27.9920 C   0  0  0  0  0  0  0  0  0  0  0  0
    5.8688   -7.4166  -32.1518 H   0  0  0  0  0  0  0  0  0  0  0  0
    3.6408  -10.9421  -31.9134 H   0  0  0  0  0  0  0  0  0  0  0  0
    5.4465  -12.4455  -30.7045 H   0  0  0  0  0  0  0  0  0  0  0  0
    3.7649  -12.6225  -31.0831 H   0  0  0  0  0  0  0  0  0  0  0  0
    5.5309  -14.4332  -29.5348 H   0  0  0  0  0  0  0  0  0  0  0  0
    4.1214  -14.8458  -30.4226 H   0  0  0  0  0  0  0  0  0  0  0  0
    2.6961  -14.3666  -28.5856 H   0  0  0  0  0  0  0  0  0  0  0  0
    4.1770  -16.0492  -27.7310 H   0  0  0  0  0  0  0  0  0  0  0  0
    3.5462  -14.9821  -26.4903 H   0  0  0  0  0  0  0  0  0  0  0  0
    7.4886  -15.1905  -27.4241 H   0  0  0  0  0  0  0  0  0  0  0  0
    6.2817  -16.1909  -28.1846 H   0  0  0  0  0  0  0  0  0  0  0  0
    4.6746  -17.3706  -26.2403 H   0  0  0  0  0  0  0  0  0  0  0  0
    4.8921  -18.9770  -24.4246 H   0  0  0  0  0  0  0  0  0  0  0  0
    7.0278  -19.2460  -23.2817 H   0  0  0  0  0  0  0  0  0  0  0  0
    8.9452  -17.9055  -23.9579 H   0  0  0  0  0  0  0  0  0  0  0  0
    8.7296  -16.2945  -25.7685 H   0  0  0  0  0  0  0  0  0  0  0  0
    4.5943  -12.4845  -27.2582 H   0  0  0  0  0  0  0  0  0  0  0  0
    2.9030  -12.2540  -27.5601 H   0  0  0  0  0  0  0  0  0  0  0  0
  1  2  1  0  0  0  0
  2  3  2  0  0  0  0
  2  4  1  0  0  0  0
  4  5  2  0  0  0  0
  4  8  1  0  0  0  0
  5  6  1  0  0  0  0
  5 25  1  0  0  0  0
  6  7  1  0  0  0  0
  7  8  2  0  0  0  0
  7  9  1  0  0  0  0
  8 26  1  0  0  0  0
  9 10  2  0  0  0  0
  9 11  1  0  0  0  0
 11 12  1  0  0  0  0
 11 24  1  0  0  0  0
 12 13  1  0  0  0  0
 12 27  1  0  0  0  0
 12 28  1  0  0  0  0
 13 14  1  0  0  0  0
 13 29  1  0  0  0  0
 13 30  1  0  0  0  0
 14 15  1  0  0  0  0
 14 24  1  0  0  0  0
 14 31  1  6  0  0  0
 15 16  1  0  0  0  0
 15 32  1  0  0  0  0
 15 33  1  0  0  0  0
 16 17  1  0  0  0  0
 17 18  1  0  0  0  0
 17 34  1  0  0  0  0
 17 35  1  0  0  0  0
 18 19  2  0  0  0  0
 18 23  1  0  0  0  0
 19 20  1  0  0  0  0
 19 36  1  0  0  0  0
 20 21  2  0  0  0  0
 20 37  1  0  0  0  0
 21 22  1  0  0  0  0
 21 38  1  0  0  0  0
 22 23  2  0  0  0  0
 22 39  1  0  0  0  0
 23 40  1  0  0  0  0
 24 41  1  0  0  0  0
 24 42  1  0  0  0  0
M  CHG  1   1  -1
M  END
$$$$
