HTS1710-01266408-01
 OpenBabel03232612353D

 52 54  0  0  1  0  0  0  0  0999 V2000
    3.6812   -9.3959  -32.3640 C   0  0  0  0  0  0  0  0  0  0  0  0
    4.4829   -8.5905  -31.5696 C   0  0  0  0  0  0  0  0  0  0  0  0
    5.7278   -7.9955  -32.0825 C   0  0  0  0  0  0  0  0  0  0  0  0
    2.3864   -9.9743  -31.8136 C   0  0  2  0  0  0  0  0  0  0  0  0
    3.9723   -9.6909  -33.6834 O   0  0  0  0  0  0  0  0  0  0  0  0
    3.5394  -12.3159  -31.6883 C   0  0  0  0  0  0  0  0  0  0  0  0
    5.9861   -8.3441  -33.4781 C   0  0  0  0  0  0  0  0  0  0  0  0
    2.2756  -11.5094  -32.0742 C   0  0  0  0  0  0  0  0  0  0  0  0
    3.6361  -12.7491  -30.3559 N   0  0  0  0  0  0  0  0  0  0  0  0
    5.1286   -9.1461  -34.1988 C   0  0  0  0  0  0  0  0  0  0  0  0
   -2.2328   -7.0336  -33.9713 C   0  0  0  0  0  0  0  0  0  0  0  0
    1.1824   -9.2102  -32.3752 C   0  0  0  0  0  0  0  0  0  0  0  0
   -1.0420   -7.7847  -33.4159 C   0  0  0  0  0  0  0  0  0  0  0  0
    6.4726   -7.2829  -31.4297 O   0  0  0  0  0  0  0  0  0  0  0  0
    4.4027  -12.5755  -32.5108 O   0  0  0  0  0  0  0  0  0  0  0  0
   -3.0794   -7.6800  -34.5653 O   0  5  0  0  0  0  0  0  0  0  0  0
    4.2071   -8.2667  -30.2855 O   0  0  0  0  0  0  0  0  0  0  0  0
    0.4404   -8.3434  -31.5514 C   0  0  0  0  0  0  0  0  0  0  0  0
    0.8107   -9.3512  -33.7240 C   0  0  0  0  0  0  0  0  0  0  0  0
   -0.2894   -8.6474  -34.2395 C   0  0  0  0  0  0  0  0  0  0  0  0
   -0.6618   -7.6395  -32.0646 C   0  0  0  0  0  0  0  0  0  0  0  0
    4.2201  -13.2791  -27.6271 O   0  0  0  0  0  0  0  0  0  0  0  0
   -2.2724   -5.8293  -33.7911 O   0  0  0  0  0  0  0  0  0  0  0  0
    4.8390  -13.5268  -29.9533 C   0  0  0  0  0  0  0  0  0  0  0  0
    2.8645  -12.1025  -29.2555 C   0  0  0  0  0  0  0  0  0  0  0  0
    5.4293   -9.4561  -35.6438 C   0  0  0  0  0  0  0  0  0  0  0  0
    4.2183   -9.4071  -36.4244 O   0  0  0  0  0  0  0  0  0  0  0  0
    4.7264  -14.2234  -28.5784 C   0  0  0  0  0  0  0  0  0  0  0  0
    2.8737  -12.8840  -27.9198 C   0  0  0  0  0  0  0  0  0  0  0  0
    3.5709  -10.6768  -36.6305 C   0  0  0  0  0  0  0  0  0  0  0  0
    2.3929   -9.8502  -30.7508 H   0  0  0  0  0  0  0  0  0  0  0  0
    6.8353   -7.9789  -33.9368 H   0  0  0  0  0  0  0  0  0  0  0  0
    1.4512  -11.8868  -31.5059 H   0  0  0  0  0  0  0  0  0  0  0  0
    2.1453  -11.6317  -33.1292 H   0  0  0  0  0  0  0  0  0  0  0  0
    3.4205   -8.5777  -29.8824 H   0  0  0  0  0  0  0  0  0  0  0  0
    0.7082   -8.2239  -30.5620 H   0  0  0  0  0  0  0  0  0  0  0  0
    1.3514   -9.9777  -34.3406 H   0  0  0  0  0  0  0  0  0  0  0  0
   -0.5500   -8.7626  -35.2314 H   0  0  0  0  0  0  0  0  0  0  0  0
   -1.1986   -7.0101  -31.4475 H   0  0  0  0  0  0  0  0  0  0  0  0
    5.6732  -12.8574  -29.9207 H   0  0  0  0  0  0  0  0  0  0  0  0
    4.9526  -14.3054  -30.6785 H   0  0  0  0  0  0  0  0  0  0  0  0
    1.8487  -11.9995  -29.5753 H   0  0  0  0  0  0  0  0  0  0  0  0
    3.3395  -11.1636  -29.0618 H   0  0  0  0  0  0  0  0  0  0  0  0
    5.8562  -10.4348  -35.7142 H   0  0  0  0  0  0  0  0  0  0  0  0
    6.1184   -8.7298  -36.0212 H   0  0  0  0  0  0  0  0  0  0  0  0
    5.6915  -14.5657  -28.2678 H   0  0  0  0  0  0  0  0  0  0  0  0
    4.0663  -15.0626  -28.6470 H   0  0  0  0  0  0  0  0  0  0  0  0
    2.5032  -12.2588  -27.1344 H   0  0  0  0  0  0  0  0  0  0  0  0
    2.2494  -13.7493  -27.9996 H   0  0  0  0  0  0  0  0  0  0  0  0
    2.6874  -10.5355  -37.2173 H   0  0  0  0  0  0  0  0  0  0  0  0
    3.3066  -11.1002  -35.6841 H   0  0  0  0  0  0  0  0  0  0  0  0
    4.2378  -11.3380  -37.1434 H   0  0  0  0  0  0  0  0  0  0  0  0
  1  2  2  0  0  0  0
  1  4  1  0  0  0  0
  1  5  1  0  0  0  0
  2  3  1  0  0  0  0
  2 17  1  0  0  0  0
  3 14  2  0  0  0  0
  3  7  1  0  0  0  0
  4  8  1  0  0  0  0
  4 12  1  0  0  0  0
  4 31  1  1  0  0  0
  5 10  1  0  0  0  0
  6  8  1  0  0  0  0
  6  9  1  0  0  0  0
  6 15  2  0  0  0  0
  7 10  2  0  0  0  0
  7 32  1  0  0  0  0
  8 33  1  0  0  0  0
  8 34  1  0  0  0  0
  9 24  1  0  0  0  0
  9 25  1  0  0  0  0
 10 26  1  0  0  0  0
 11 13  1  0  0  0  0
 11 16  1  0  0  0  0
 11 23  2  0  0  0  0
 12 18  2  0  0  0  0
 12 19  1  0  0  0  0
 13 20  1  0  0  0  0
 13 21  2  0  0  0  0
 17 35  1  0  0  0  0
 18 21  1  0  0  0  0
 18 36  1  0  0  0  0
 19 20  2  0  0  0  0
 19 37  1  0  0  0  0
 20 38  1  0  0  0  0
 21 39  1  0  0  0  0
 22 29  1  0  0  0  0
 22 28  1  0  0  0  0
 24 28  1  0  0  0  0
 24 40  1  0  0  0  0
 24 41  1  0  0  0  0
 25 29  1  0  0  0  0
 25 42  1  0  0  0  0
 25 43  1  0  0  0  0
 26 27  1  0  0  0  0
 26 44  1  0  0  0  0
 26 45  1  0  0  0  0
 27 30  1  0  0  0  0
 28 46  1  0  0  0  0
 28 47  1  0  0  0  0
 29 48  1  0  0  0  0
 29 49  1  0  0  0  0
 30 50  1  0  0  0  0
 30 51  1  0  0  0  0
 30 52  1  0  0  0  0
M  CHG  1  16  -1
M  END
$$$$
