HTS1710-02098739-01
 OpenBabel03232612353D

 34 35  0  0  0  0  0  0  0  0999 V2000
    2.1857   -8.2161  -30.6538 C   0  0  0  0  0  0  0  0  0  0  0  0
    4.2187  -10.8137  -30.8912 C   0  0  0  0  0  0  0  0  0  0  0  0
    4.3276   -9.5187  -30.4756 C   0  0  0  0  0  0  0  0  0  0  0  0
    3.2045   -8.7361  -29.9099 C   0  0  0  0  0  0  0  0  0  0  0  0
    1.9854   -8.3158  -32.1375 C   0  0  0  0  0  0  0  0  0  0  0  0
    3.0015  -11.6921  -30.8705 C   0  0  0  0  0  0  0  0  0  0  0  0
    2.8958   -8.6282  -32.8879 O   0  0  0  0  0  0  0  0  0  0  0  0
    2.1328  -11.6069  -31.7217 O   0  0  0  0  0  0  0  0  0  0  0  0
    0.6197   -8.0219  -32.7040 C   0  0  0  0  0  0  0  0  0  0  0  0
    2.8669  -12.7005  -29.7600 C   0  0  0  0  0  0  0  0  0  0  0  0
    3.2368   -8.5470  -28.5689 O   0  5  0  0  0  0  0  0  0  0  0  0
    5.5137   -8.8704  -30.5634 O   0  5  0  0  0  0  0  0  0  0  0  0
    0.2103   -8.5444  -33.9501 C   0  0  0  0  0  0  0  0  0  0  0  0
   -0.2598   -7.1805  -31.9944 C   0  0  0  0  0  0  0  0  0  0  0  0
    2.4938  -14.0248  -30.0640 C   0  0  0  0  0  0  0  0  0  0  0  0
    3.1331  -12.3562  -28.4168 C   0  0  0  0  0  0  0  0  0  0  0  0
   -1.0621   -8.2407  -34.4626 C   0  0  0  0  0  0  0  0  0  0  0  0
    2.3696  -14.9834  -29.0457 C   0  0  0  0  0  0  0  0  0  0  0  0
    3.0103  -13.3168  -27.4005 C   0  0  0  0  0  0  0  0  0  0  0  0
   -1.5308   -6.8781  -32.5091 C   0  0  0  0  0  0  0  0  0  0  0  0
   -1.9336   -7.4111  -33.7425 C   0  0  0  0  0  0  0  0  0  0  0  0
    2.6261  -14.6293  -27.7133 C   0  0  0  0  0  0  0  0  0  0  0  0
    1.4660   -7.6908  -30.1331 H   0  0  0  0  0  0  0  0  0  0  0  0
    5.0794  -11.2423  -31.2659 H   0  0  0  0  0  0  0  0  0  0  0  0
    0.8485   -9.1523  -34.4869 H   0  0  0  0  0  0  0  0  0  0  0  0
    0.0327   -6.7828  -31.0881 H   0  0  0  0  0  0  0  0  0  0  0  0
    2.3104  -14.2924  -31.0437 H   0  0  0  0  0  0  0  0  0  0  0  0
    3.4195  -11.3933  -28.1809 H   0  0  0  0  0  0  0  0  0  0  0  0
   -1.3563   -8.6295  -35.3721 H   0  0  0  0  0  0  0  0  0  0  0  0
    2.0894  -15.9490  -29.2778 H   0  0  0  0  0  0  0  0  0  0  0  0
    3.2032  -13.0568  -26.4205 H   0  0  0  0  0  0  0  0  0  0  0  0
   -2.1688   -6.2635  -31.9798 H   0  0  0  0  0  0  0  0  0  0  0  0
   -2.8693   -7.1930  -34.1192 H   0  0  0  0  0  0  0  0  0  0  0  0
    2.5324  -15.3329  -26.9641 H   0  0  0  0  0  0  0  0  0  0  0  0
  1  4  2  0  0  0  0
  1  5  1  0  0  0  0
  1 23  1  0  0  0  0
  2  3  2  0  0  0  0
  2  6  1  0  0  0  0
  2 24  1  0  0  0  0
  3  4  1  0  0  0  0
  3 12  1  0  0  0  0
  4 11  1  0  0  0  0
  5  7  2  0  0  0  0
  5  9  1  0  0  0  0
  6  8  2  0  0  0  0
  6 10  1  0  0  0  0
  9 13  2  0  0  0  0
  9 14  1  0  0  0  0
 10 15  2  0  0  0  0
 10 16  1  0  0  0  0
 13 17  1  0  0  0  0
 13 25  1  0  0  0  0
 14 20  2  0  0  0  0
 14 26  1  0  0  0  0
 15 18  1  0  0  0  0
 15 27  1  0  0  0  0
 16 19  2  0  0  0  0
 16 28  1  0  0  0  0
 17 21  2  0  0  0  0
 17 29  1  0  0  0  0
 18 22  2  0  0  0  0
 18 30  1  0  0  0  0
 19 22  1  0  0  0  0
 19 31  1  0  0  0  0
 20 21  1  0  0  0  0
 20 32  1  0  0  0  0
 21 33  1  0  0  0  0
 22 34  1  0  0  0  0
M  CHG  2  11  -1  12  -1
M  END
$$$$
