HTS1710-00480741-01
 OpenBabel03232612343D

 45 45  0  0  1  0  0  0  0  0999 V2000
   -0.9391   -8.0403  -34.3977 C   0  0  1  0  0  0  0  0  0  0  0  0
   -0.4032   -9.3380  -34.7299 O   0  0  0  0  0  0  0  0  0  0  0  0
   -0.9782   -7.8861  -32.9539 O   0  0  0  0  0  0  0  0  0  0  0  0
   -0.1335   -6.9051  -35.0894 C   0  0  0  0  0  0  0  0  0  0  0  0
    0.8356   -9.6704  -34.0811 C   0  0  1  0  0  0  0  0  0  0  0  0
    0.1538   -8.3330  -32.1597 C   0  0  1  0  0  0  0  0  0  0  0  0
   -1.0226   -6.0849  -36.0580 C   0  0  0  0  0  0  0  0  0  0  0  0
    0.6295   -9.6064  -32.6552 O   0  0  0  0  0  0  0  0  0  0  0  0
    1.2516  -11.1126  -34.4877 C   0  0  0  0  0  0  0  0  0  0  0  0
    1.2939   -7.2758  -32.1237 C   0  0  0  0  0  0  0  0  0  0  0  0
   -1.9883   -5.1240  -35.3209 C   0  0  0  0  0  0  0  0  0  0  0  0
    1.6486  -11.3179  -35.9803 C   0  0  0  0  0  0  0  0  0  0  0  0
    2.0647   -7.3184  -30.7828 C   0  0  0  0  0  0  0  0  0  0  0  0
   -2.5020   -3.9966  -36.2261 C   0  0  0  0  0  0  0  0  0  0  0  0
    3.1622  -11.1789  -36.2941 C   0  0  0  0  0  0  0  0  0  0  0  0
    3.0701   -8.4987  -30.7273 C   0  0  0  0  0  0  0  0  0  0  0  0
   -2.7567   -4.2826  -37.3825 O   0  5  0  0  0  0  0  0  0  0  0  0
   -2.6382   -2.8947  -35.7219 O   0  0  0  0  0  0  0  0  0  0  0  0
    3.5749   -9.7333  -36.6060 C   0  0  0  0  0  0  0  0  0  0  0  0
    4.5336   -8.1031  -30.9954 C   0  0  0  0  0  0  0  0  0  0  0  0
    2.9850   -9.1621  -37.5055 O   0  5  0  0  0  0  0  0  0  0  0  0
    4.4890   -9.2643  -35.9505 O   0  0  0  0  0  0  0  0  0  0  0  0
    4.7218   -6.9754  -31.4172 O   0  5  0  0  0  0  0  0  0  0  0  0
    5.4074   -8.9249  -30.7739 O   0  0  0  0  0  0  0  0  0  0  0  0
   -1.9405   -7.9672  -34.7676 H   0  0  0  0  0  0  0  0  0  0  0  0
    0.6737   -7.3387  -35.6418 H   0  0  0  0  0  0  0  0  0  0  0  0
    0.2340   -6.2451  -34.3316 H   0  0  0  0  0  0  0  0  0  0  0  0
    1.6076   -8.9881  -34.3699 H   0  0  0  0  0  0  0  0  0  0  0  0
   -0.1763   -8.4581  -31.1496 H   0  0  0  0  0  0  0  0  0  0  0  0
   -1.6014   -6.7641  -36.6484 H   0  0  0  0  0  0  0  0  0  0  0  0
   -0.3730   -5.4867  -36.6622 H   0  0  0  0  0  0  0  0  0  0  0  0
    0.4278  -11.7620  -34.2765 H   0  0  0  0  0  0  0  0  0  0  0  0
    2.1356  -11.3259  -33.9238 H   0  0  0  0  0  0  0  0  0  0  0  0
    0.8690   -6.3018  -32.2496 H   0  0  0  0  0  0  0  0  0  0  0  0
    1.9814   -7.4965  -32.9133 H   0  0  0  0  0  0  0  0  0  0  0  0
   -1.4718   -4.6889  -34.4908 H   0  0  0  0  0  0  0  0  0  0  0  0
   -2.8347   -5.6957  -35.0023 H   0  0  0  0  0  0  0  0  0  0  0  0
    1.1228  -10.5916  -36.5641 H   0  0  0  0  0  0  0  0  0  0  0  0
    1.3913  -12.3293  -36.2163 H   0  0  0  0  0  0  0  0  0  0  0  0
    1.3615   -7.4258  -29.9835 H   0  0  0  0  0  0  0  0  0  0  0  0
    2.6189   -6.4077  -30.6912 H   0  0  0  0  0  0  0  0  0  0  0  0
    3.3933  -11.7907  -37.1409 H   0  0  0  0  0  0  0  0  0  0  0  0
    3.7015  -11.4870  -35.4228 H   0  0  0  0  0  0  0  0  0  0  0  0
    2.7791   -9.2206  -31.4614 H   0  0  0  0  0  0  0  0  0  0  0  0
    3.0361   -8.8810  -29.7285 H   0  0  0  0  0  0  0  0  0  0  0  0
  1  2  1  0  0  0  0
  1  3  1  0  0  0  0
  1  4  1  0  0  0  0
  1 25  1  6  0  0  0
  2  5  1  0  0  0  0
  3  6  1  0  0  0  0
  4  7  1  0  0  0  0
  4 26  1  0  0  0  0
  4 27  1  0  0  0  0
  5  8  1  0  0  0  0
  5  9  1  0  0  0  0
  5 28  1  6  0  0  0
  6 10  1  0  0  0  0
  6  8  1  0  0  0  0
  6 29  1  1  0  0  0
  7 11  1  0  0  0  0
  7 30  1  0  0  0  0
  7 31  1  0  0  0  0
  9 12  1  0  0  0  0
  9 32  1  0  0  0  0
  9 33  1  0  0  0  0
 10 13  1  0  0  0  0
 10 34  1  0  0  0  0
 10 35  1  0  0  0  0
 11 14  1  0  0  0  0
 11 36  1  0  0  0  0
 11 37  1  0  0  0  0
 12 15  1  0  0  0  0
 12 38  1  0  0  0  0
 12 39  1  0  0  0  0
 13 16  1  0  0  0  0
 13 40  1  0  0  0  0
 13 41  1  0  0  0  0
 14 17  1  0  0  0  0
 14 18  2  0  0  0  0
 15 19  1  0  0  0  0
 15 42  1  0  0  0  0
 15 43  1  0  0  0  0
 16 20  1  0  0  0  0
 16 44  1  0  0  0  0
 16 45  1  0  0  0  0
 19 21  1  0  0  0  0
 19 22  2  0  0  0  0
 20 23  1  0  0  0  0
 20 24  2  0  0  0  0
M  CHG  3  17  -1  21  -1  23  -1
M  END
$$$$
