HTS1710-01239291-01
 OpenBabel03232612363D

 42 42  0  0  1  0  0  0  0  0999 V2000
    4.0768   -9.4475  -30.0750 P   0  0  0  0  0  0  0  0  0  0  0  0
    0.8530   -8.7038  -34.8958 C   0  0  0  0  0  0  0  0  0  0  0  0
    1.3993   -9.4318  -35.9450 N   0  0  0  0  0  0  0  0  0  0  0  0
    3.3648   -9.1449  -37.3908 C   0  0  0  0  0  0  0  0  0  0  0  0
    2.8309   -9.7469  -36.0811 C   0  0  2  0  0  0  0  0  0  0  0  0
    5.4646   -8.9743  -30.3250 O   0  0  0  0  0  0  0  0  0  0  0  0
    1.6279   -8.2955  -34.0479 O   0  0  0  0  0  0  0  0  0  0  0  0
    2.5619   -8.9123  -38.2786 O   0  5  0  0  0  0  0  0  0  0  0  0
    3.8800   -9.8424  -28.6548 O   0  0  0  0  0  1  0  0  0  0  0  0
    3.0723   -8.4408  -30.5061 O   0  0  0  0  0  1  0  0  0  0  0  0
   -0.6514   -8.4020  -34.8007 C   0  0  0  0  0  0  0  0  0  0  0  0
    4.5624   -8.9208  -37.4460 O   0  0  0  0  0  0  0  0  0  0  0  0
    3.8077  -10.9514  -31.1077 C   0  0  0  0  0  0  0  0  0  0  0  0
   -1.0119   -7.1043  -35.5183 C   0  0  0  0  0  0  0  0  0  0  0  0
    3.0576  -11.2842  -36.0377 C   0  0  0  0  0  0  0  0  0  0  0  0
   -0.3593   -6.7399  -36.7121 C   0  0  0  0  0  0  0  0  0  0  0  0
   -2.0048   -6.2561  -34.9906 C   0  0  0  0  0  0  0  0  0  0  0  0
    4.1637  -10.7309  -32.5961 C   0  0  0  0  0  0  0  0  0  0  0  0
    4.0694  -11.7431  -34.9513 C   0  0  0  0  0  0  0  0  0  0  0  0
    3.4930  -11.7790  -33.5137 C   0  0  0  0  0  0  0  0  0  0  0  0
   -2.3335   -5.0567  -35.6431 C   0  0  0  0  0  0  0  0  0  0  0  0
   -0.6870   -5.5393  -37.3616 C   0  0  0  0  0  0  0  0  0  0  0  0
   -1.6737   -4.6967  -36.8268 C   0  0  0  0  0  0  0  0  0  0  0  0
    0.7884   -9.7589  -36.6443 H   0  0  0  0  0  0  0  0  0  0  0  0
    3.3680   -9.3174  -35.2614 H   0  0  0  0  0  0  0  0  0  0  0  0
   -0.9235   -8.3154  -33.7695 H   0  0  0  0  0  0  0  0  0  0  0  0
   -1.1832   -9.2027  -35.2710 H   0  0  0  0  0  0  0  0  0  0  0  0
    2.7771  -11.2313  -31.0410 H   0  0  0  0  0  0  0  0  0  0  0  0
    4.4537  -11.7178  -30.7333 H   0  0  0  0  0  0  0  0  0  0  0  0
    3.4242  -11.5975  -36.9928 H   0  0  0  0  0  0  0  0  0  0  0  0
    2.1161  -11.7292  -35.7917 H   0  0  0  0  0  0  0  0  0  0  0  0
    0.3637   -7.3587  -37.1114 H   0  0  0  0  0  0  0  0  0  0  0  0
   -2.4934   -6.5174  -34.1199 H   0  0  0  0  0  0  0  0  0  0  0  0
    5.2253  -10.7998  -32.7113 H   0  0  0  0  0  0  0  0  0  0  0  0
    3.8052   -9.7640  -32.8818 H   0  0  0  0  0  0  0  0  0  0  0  0
    4.9003  -11.0691  -34.9619 H   0  0  0  0  0  0  0  0  0  0  0  0
    4.3441  -12.7481  -35.1951 H   0  0  0  0  0  0  0  0  0  0  0  0
    3.6537  -12.7530  -33.1011 H   0  0  0  0  0  0  0  0  0  0  0  0
    2.4492  -11.5505  -33.5696 H   0  0  0  0  0  0  0  0  0  0  0  0
   -3.0615   -4.4395  -35.2508 H   0  0  0  0  0  0  0  0  0  0  0  0
   -0.2017   -5.2760  -38.2336 H   0  0  0  0  0  0  0  0  0  0  0  0
   -1.9134   -3.8136  -37.3039 H   0  0  0  0  0  0  0  0  0  0  0  0
  1  6  2  0  0  0  0
  1  9  1  0  0  0  0
  1 10  1  0  0  0  0
  1 13  1  0  0  0  0
  2  3  1  0  0  0  0
  2  7  2  0  0  0  0
  2 11  1  0  0  0  0
  3  5  1  0  0  0  0
  3 24  1  0  0  0  0
  4  5  1  0  0  0  0
  4  8  1  0  0  0  0
  4 12  2  0  0  0  0
  5 15  1  0  0  0  0
  5 25  1  1  0  0  0
 11 14  1  0  0  0  0
 11 26  1  0  0  0  0
 11 27  1  0  0  0  0
 13 18  1  0  0  0  0
 13 28  1  0  0  0  0
 13 29  1  0  0  0  0
 14 16  2  0  0  0  0
 14 17  1  0  0  0  0
 15 19  1  0  0  0  0
 15 30  1  0  0  0  0
 15 31  1  0  0  0  0
 16 22  1  0  0  0  0
 16 32  1  0  0  0  0
 17 21  2  0  0  0  0
 17 33  1  0  0  0  0
 18 20  1  0  0  0  0
 18 34  1  0  0  0  0
 18 35  1  0  0  0  0
 19 20  1  0  0  0  0
 19 36  1  0  0  0  0
 19 37  1  0  0  0  0
 20 38  1  0  0  0  0
 20 39  1  0  0  0  0
 21 23  1  0  0  0  0
 21 40  1  0  0  0  0
 22 23  2  0  0  0  0
 22 41  1  0  0  0  0
 23 42  1  0  0  0  0
M  CHG  1   8  -1
M  END
$$$$
