HTS1710-00569566-01
 OpenBabel03232612343D

 47 48  0  0  1  0  0  0  0  0999 V2000
    3.5803  -10.9931  -32.2913 C   0  0  2  0  0  0  0  0  0  0  0  0
    2.3574  -10.6040  -33.1309 C   0  0  0  0  0  0  0  0  0  0  0  0
    3.2811  -11.1354  -30.8446 N   0  0  0  0  0  0  0  0  0  0  0  0
    4.6922   -9.9408  -32.2919 C   0  0  0  0  0  0  0  0  0  0  0  0
    1.5269   -9.5076  -32.7925 C   0  0  0  0  0  0  0  0  0  0  0  0
    2.0496  -11.3783  -34.2657 C   0  0  0  0  0  0  0  0  0  0  0  0
    4.0472  -10.2819  -30.0701 C   0  0  0  0  0  0  0  0  0  0  0  0
    2.4188  -12.2205  -30.3422 C   0  0  0  0  0  0  0  0  0  0  0  0
    4.8899   -9.5387  -31.0193 C   0  0  0  0  0  0  0  0  0  0  0  0
    5.2052   -9.3979  -33.5844 C   0  0  0  0  0  0  0  0  0  0  0  0
    0.4049   -9.2068  -33.5957 C   0  0  0  0  0  0  0  0  0  0  0  0
    1.8281   -8.7526  -31.6744 O   0  0  0  0  0  0  0  0  0  0  0  0
    0.9327  -11.0736  -35.0568 C   0  0  0  0  0  0  0  0  0  0  0  0
    4.0256  -10.1850  -28.8546 O   0  0  0  0  0  0  0  0  0  0  0  0
    3.1242  -13.5974  -30.2857 C   0  0  0  0  0  0  0  0  0  0  0  0
    5.7361   -8.5763  -30.5874 O   0  5  0  0  0  0  0  0  0  0  0  0
    5.3033  -10.3846  -34.7499 C   0  0  0  0  0  0  0  0  0  0  0  0
    5.6707   -8.2748  -33.6677 O   0  0  0  0  0  0  0  0  0  0  0  0
    0.1110   -9.9894  -34.7226 C   0  0  0  0  0  0  0  0  0  0  0  0
    1.5979   -7.3366  -31.5843 C   0  0  0  0  0  0  0  0  0  0  0  0
    2.5572  -14.5323  -29.1891 C   0  0  0  0  0  0  0  0  0  0  0  0
    3.2543  -14.3016  -27.8266 C   0  0  0  0  0  0  0  0  0  0  0  0
    4.6540  -14.9591  -27.7438 C   0  0  0  0  0  0  0  0  0  0  0  0
    5.7764  -13.9353  -27.5271 C   0  0  0  0  0  0  0  0  0  0  0  0
    5.6675  -12.8635  -28.0962 O   0  5  0  0  0  0  0  0  0  0  0  0
    6.6902  -14.2552  -26.7870 O   0  0  0  0  0  0  0  0  0  0  0  0
    3.8765  -11.9108  -32.7549 H   0  0  0  0  0  0  0  0  0  0  0  0
    2.6518  -12.1777  -34.5178 H   0  0  0  0  0  0  0  0  0  0  0  0
    1.5684  -12.3025  -30.9864 H   0  0  0  0  0  0  0  0  0  0  0  0
    2.1469  -11.9660  -29.3392 H   0  0  0  0  0  0  0  0  0  0  0  0
   -0.2015   -8.4078  -33.3528 H   0  0  0  0  0  0  0  0  0  0  0  0
    0.7158  -11.6487  -35.8858 H   0  0  0  0  0  0  0  0  0  0  0  0
    4.1644  -13.4383  -30.0916 H   0  0  0  0  0  0  0  0  0  0  0  0
    2.9582  -14.0771  -31.2276 H   0  0  0  0  0  0  0  0  0  0  0  0
    4.8366  -11.3077  -34.4759 H   0  0  0  0  0  0  0  0  0  0  0  0
    6.3328  -10.5607  -34.9824 H   0  0  0  0  0  0  0  0  0  0  0  0
    4.8092   -9.9755  -35.6062 H   0  0  0  0  0  0  0  0  0  0  0  0
   -0.7109   -9.7662  -35.3055 H   0  0  0  0  0  0  0  0  0  0  0  0
    1.9123   -6.9845  -30.6241 H   0  0  0  0  0  0  0  0  0  0  0  0
    0.5549   -7.1359  -31.7139 H   0  0  0  0  0  0  0  0  0  0  0  0
    2.1551   -6.8354  -32.3480 H   0  0  0  0  0  0  0  0  0  0  0  0
    2.7071  -15.5487  -29.4880 H   0  0  0  0  0  0  0  0  0  0  0  0
    1.5155  -14.3176  -29.0724 H   0  0  0  0  0  0  0  0  0  0  0  0
    2.6382  -14.7128  -27.0544 H   0  0  0  0  0  0  0  0  0  0  0  0
    3.3891  -13.2465  -27.7108 H   0  0  0  0  0  0  0  0  0  0  0  0
    4.8406  -15.4837  -28.6575 H   0  0  0  0  0  0  0  0  0  0  0  0
    4.6518  -15.6198  -26.9022 H   0  0  0  0  0  0  0  0  0  0  0  0
  1  2  1  0  0  0  0
  1  3  1  0  0  0  0
  1  4  1  0  0  0  0
  1 27  1  6  0  0  0
  2  5  2  0  0  0  0
  2  6  1  0  0  0  0
  3  7  1  0  0  0  0
  3  8  1  0  0  0  0
  4  9  2  0  0  0  0
  4 10  1  0  0  0  0
  5 11  1  0  0  0  0
  5 12  1  0  0  0  0
  6 13  2  0  0  0  0
  6 28  1  0  0  0  0
  7 14  2  0  0  0  0
  7  9  1  0  0  0  0
  8 15  1  0  0  0  0
  8 29  1  0  0  0  0
  8 30  1  0  0  0  0
  9 16  1  0  0  0  0
 10 17  1  0  0  0  0
 10 18  2  0  0  0  0
 11 19  2  0  0  0  0
 11 31  1  0  0  0  0
 12 20  1  0  0  0  0
 13 19  1  0  0  0  0
 13 32  1  0  0  0  0
 15 21  1  0  0  0  0
 15 33  1  0  0  0  0
 15 34  1  0  0  0  0
 17 35  1  0  0  0  0
 17 36  1  0  0  0  0
 17 37  1  0  0  0  0
 19 38  1  0  0  0  0
 20 39  1  0  0  0  0
 20 40  1  0  0  0  0
 20 41  1  0  0  0  0
 21 22  1  0  0  0  0
 21 42  1  0  0  0  0
 21 43  1  0  0  0  0
 22 23  1  0  0  0  0
 22 44  1  0  0  0  0
 22 45  1  0  0  0  0
 23 24  1  0  0  0  0
 23 46  1  0  0  0  0
 23 47  1  0  0  0  0
 24 25  1  0  0  0  0
 24 26  2  0  0  0  0
M  CHG  2  16  -1  25  -1
M  END
$$$$
