HTS1710-00701232-01
 OpenBabel03232612343D

 51 52  0  0  0  0  0  0  0  0999 V2000
    3.9854  -10.1208  -32.8907 C   0  0  0  0  0  0  0  0  0  0  0  0
    4.9774   -9.2530  -32.4921 C   0  0  0  0  0  0  0  0  0  0  0  0
    3.3833  -10.7017  -31.7050 C   0  0  0  0  0  0  0  0  0  0  0  0
    3.7027  -10.3200  -34.2507 C   0  0  0  0  0  0  0  0  0  0  0  0
    5.0917   -9.1933  -31.1328 O   0  0  0  0  0  0  0  0  0  0  0  0
    5.7532   -8.5430  -33.4131 C   0  0  0  0  0  0  0  0  0  0  0  0
    4.1200  -10.0719  -30.7030 C   0  0  0  0  0  0  0  0  0  0  0  0
    2.2903  -11.7012  -31.6207 C   0  0  0  0  0  0  0  0  0  0  0  0
    4.4605   -9.6129  -35.2077 C   0  0  0  0  0  0  0  0  0  0  0  0
    5.4927   -8.7303  -34.7849 C   0  0  0  0  0  0  0  0  0  0  0  0
    3.9437  -10.2771  -29.2191 C   0  0  0  0  0  0  0  0  0  0  0  0
    2.4760  -12.6599  -30.6619 O   0  0  0  0  0  0  0  0  0  0  0  0
    1.3102  -11.6665  -32.3452 O   0  0  0  0  0  0  0  0  0  0  0  0
    4.1558   -9.8073  -36.5437 O   0  0  0  0  0  0  0  0  0  0  0  0
    1.7951  -13.9310  -30.7313 C   0  0  0  0  0  0  0  0  0  0  0  0
    2.8499  -10.2027  -37.0189 C   0  0  0  0  0  0  0  0  0  0  0  0
    2.3463  -14.8110  -29.5891 C   0  0  0  0  0  0  0  0  0  0  0  0
    2.0545  -14.5688  -32.1191 C   0  0  0  0  0  0  0  0  0  0  0  0
    1.7862   -9.1370  -36.7183 C   0  0  0  0  0  0  0  0  0  0  0  0
    1.2366   -9.1164  -35.4459 N   0  0  0  0  0  0  0  0  0  0  0  0
    1.3873   -8.3486  -37.5602 O   0  0  0  0  0  0  0  0  0  0  0  0
    0.2534   -8.1691  -35.0884 N   0  0  0  0  0  0  0  0  0  0  0  0
   -0.1680   -8.0370  -33.7737 C   0  0  0  0  0  0  0  0  0  0  0  0
   -1.2392   -6.9870  -33.4602 C   0  0  0  0  0  0  0  0  0  0  0  0
    0.3156   -8.7539  -32.9121 O   0  0  0  0  0  0  0  0  0  0  0  0
   -2.1505   -6.8493  -34.5643 O   0  0  0  0  0  0  0  0  0  0  0  0
   -2.9271   -5.6371  -34.5432 C   0  0  0  0  0  0  0  0  0  0  0  0
   -4.0083   -5.6512  -35.6342 C   0  0  0  0  0  0  0  0  0  0  0  0
   -4.5244   -6.7188  -35.9172 O   0  5  0  0  0  0  0  0  0  0  0  0
   -4.3111   -4.5736  -36.1150 O   0  0  0  0  0  0  0  0  0  0  0  0
    2.9567  -10.9697  -34.5444 H   0  0  0  0  0  0  0  0  0  0  0  0
    6.4957   -7.8997  -33.0971 H   0  0  0  0  0  0  0  0  0  0  0  0
    6.0543   -8.2241  -35.4874 H   0  0  0  0  0  0  0  0  0  0  0  0
    3.1574  -10.9823  -29.0474 H   0  0  0  0  0  0  0  0  0  0  0  0
    3.6936   -9.3448  -28.7573 H   0  0  0  0  0  0  0  0  0  0  0  0
    4.8548  -10.6497  -28.7998 H   0  0  0  0  0  0  0  0  0  0  0  0
    0.7367  -13.8234  -30.6168 H   0  0  0  0  0  0  0  0  0  0  0  0
    2.5691  -11.1170  -36.5391 H   0  0  0  0  0  0  0  0  0  0  0  0
    2.9059  -10.3263  -38.0802 H   0  0  0  0  0  0  0  0  0  0  0  0
    3.4048  -14.9198  -29.7018 H   0  0  0  0  0  0  0  0  0  0  0  0
    1.8828  -15.7746  -29.6258 H   0  0  0  0  0  0  0  0  0  0  0  0
    2.1335  -14.3484  -28.6480 H   0  0  0  0  0  0  0  0  0  0  0  0
    3.1075  -14.6901  -32.2647 H   0  0  0  0  0  0  0  0  0  0  0  0
    1.6597  -13.9326  -32.8835 H   0  0  0  0  0  0  0  0  0  0  0  0
    1.5754  -15.5243  -32.1677 H   0  0  0  0  0  0  0  0  0  0  0  0
    1.5378   -9.7750  -34.7790 H   0  0  0  0  0  0  0  0  0  0  0  0
   -0.1396   -7.5929  -35.7832 H   0  0  0  0  0  0  0  0  0  0  0  0
   -0.7655   -6.0455  -33.2755 H   0  0  0  0  0  0  0  0  0  0  0  0
   -1.7878   -7.3006  -32.5968 H   0  0  0  0  0  0  0  0  0  0  0  0
   -2.2770   -4.8031  -34.7068 H   0  0  0  0  0  0  0  0  0  0  0  0
   -3.4080   -5.5592  -33.5905 H   0  0  0  0  0  0  0  0  0  0  0  0
  1  2  2  0  0  0  0
  1  3  1  0  0  0  0
  1  4  1  0  0  0  0
  2  5  1  0  0  0  0
  2  6  1  0  0  0  0
  3  7  2  0  0  0  0
  3  8  1  0  0  0  0
  4  9  2  0  0  0  0
  4 31  1  0  0  0  0
  5  7  1  0  0  0  0
  6 10  2  0  0  0  0
  6 32  1  0  0  0  0
  7 11  1  0  0  0  0
  8 12  1  0  0  0  0
  8 13  2  0  0  0  0
  9 14  1  0  0  0  0
  9 10  1  0  0  0  0
 10 33  1  0  0  0  0
 11 34  1  0  0  0  0
 11 35  1  0  0  0  0
 11 36  1  0  0  0  0
 12 15  1  0  0  0  0
 14 16  1  0  0  0  0
 15 17  1  0  0  0  0
 15 18  1  0  0  0  0
 15 37  1  0  0  0  0
 16 19  1  0  0  0  0
 16 38  1  0  0  0  0
 16 39  1  0  0  0  0
 17 40  1  0  0  0  0
 17 41  1  0  0  0  0
 17 42  1  0  0  0  0
 18 43  1  0  0  0  0
 18 44  1  0  0  0  0
 18 45  1  0  0  0  0
 19 20  1  0  0  0  0
 19 21  2  0  0  0  0
 20 22  1  0  0  0  0
 20 46  1  0  0  0  0
 22 23  1  0  0  0  0
 22 47  1  0  0  0  0
 23 24  1  0  0  0  0
 23 25  2  0  0  0  0
 24 26  1  0  0  0  0
 24 48  1  0  0  0  0
 24 49  1  0  0  0  0
 26 27  1  0  0  0  0
 27 28  1  0  0  0  0
 27 50  1  0  0  0  0
 27 51  1  0  0  0  0
 28 29  1  0  0  0  0
 28 30  2  0  0  0  0
M  CHG  1  29  -1
M  END
$$$$
