HTS1710-00102219-01
 OpenBabel03232612353D

 32 31  0  0  0  0  0  0  0  0999 V2000
    2.4557  -12.8253  -28.0738 N   0  0  0  0  0  0  0  0  0  0  0  0
    3.4580  -12.8144  -29.2931 C   0  0  0  0  0  0  0  0  0  0  0  0
    2.1599  -11.7425  -27.5714 O   0  5  0  0  0  0  0  0  0  0  0  0
    2.0427  -13.9060  -27.6552 O   0  0  0  0  0  0  0  0  0  0  0  0
    6.5697  -14.2793  -27.3337 C   0  0  0  0  0  0  0  0  0  0  0  0
    4.6133   -9.6535  -31.3108 C   0  0  0  0  0  0  0  0  0  0  0  0
    1.3164  -13.7974  -32.0943 C   0  0  0  0  0  0  0  0  0  0  0  0
    4.9142  -12.9108  -28.7046 C   0  0  0  0  0  0  0  0  0  0  0  0
    3.3188  -11.4331  -30.0266 C   0  0  0  0  0  0  0  0  0  0  0  0
    3.1311  -14.0257  -30.2578 C   0  0  0  0  0  0  0  0  0  0  0  0
    7.3646  -13.3564  -27.2882 O   0  5  0  0  0  0  0  0  0  0  0  0
    4.0647   -9.1122  -32.2560 O   0  5  0  0  0  0  0  0  0  0  0  0
    2.0824  -13.0125  -32.6256 O   0  5  0  0  0  0  0  0  0  0  0  0
    1.6381  -14.2336  -30.6589 C   0  0  0  0  0  0  0  0  0  0  0  0
    5.0934  -13.9253  -27.5423 C   0  0  0  0  0  0  0  0  0  0  0  0
    4.3768  -11.1579  -31.1311 C   0  0  0  0  0  0  0  0  0  0  0  0
    6.8458  -15.4590  -27.2041 O   0  0  0  0  0  0  0  0  0  0  0  0
    0.3288  -14.2840  -32.6166 O   0  0  0  0  0  0  0  0  0  0  0  0
    5.3512   -9.1035  -30.5128 O   0  0  0  0  0  0  0  0  0  0  0  0
    1.6735  -13.1752  -28.5586 H   0  0  0  0  0  0  0  0  0  0  0  0
    5.1898  -11.9420  -28.3435 H   0  0  0  0  0  0  0  0  0  0  0  0
    5.5338  -13.2623  -29.5029 H   0  0  0  0  0  0  0  0  0  0  0  0
    3.3990  -10.6593  -29.2920 H   0  0  0  0  0  0  0  0  0  0  0  0
    2.3715  -11.4563  -30.5236 H   0  0  0  0  0  0  0  0  0  0  0  0
    3.4622  -14.9210  -29.7743 H   0  0  0  0  0  0  0  0  0  0  0  0
    3.6333  -13.7928  -31.1734 H   0  0  0  0  0  0  0  0  0  0  0  0
    1.4043  -15.2732  -30.5617 H   0  0  0  0  0  0  0  0  0  0  0  0
    1.0519  -13.6195  -30.0076 H   0  0  0  0  0  0  0  0  0  0  0  0
    4.7077  -13.4951  -26.6417 H   0  0  0  0  0  0  0  0  0  0  0  0
    4.5637  -14.8209  -27.7915 H   0  0  0  0  0  0  0  0  0  0  0  0
    5.2989  -11.6255  -30.8554 H   0  0  0  0  0  0  0  0  0  0  0  0
    4.0129  -11.5561  -32.0552 H   0  0  0  0  0  0  0  0  0  0  0  0
  1  2  1  0  0  0  0
  1  3  1  0  0  0  0
  1  4  2  0  0  0  0
  1 20  1  0  0  0  0
  2  8  1  0  0  0  0
  2  9  1  0  0  0  0
  2 10  1  0  0  0  0
  5 15  1  0  0  0  0
  5 11  1  0  0  0  0
  5 17  2  0  0  0  0
  6 16  1  0  0  0  0
  6 12  1  0  0  0  0
  6 19  2  0  0  0  0
  7 14  1  0  0  0  0
  7 13  1  0  0  0  0
  7 18  2  0  0  0  0
  8 15  1  0  0  0  0
  8 21  1  0  0  0  0
  8 22  1  0  0  0  0
  9 16  1  0  0  0  0
  9 23  1  0  0  0  0
  9 24  1  0  0  0  0
 10 14  1  0  0  0  0
 10 25  1  0  0  0  0
 10 26  1  0  0  0  0
 14 27  1  0  0  0  0
 14 28  1  0  0  0  0
 15 29  1  0  0  0  0
 15 30  1  0  0  0  0
 16 31  1  0  0  0  0
 16 32  1  0  0  0  0
M  CHG  4   3  -1  11  -1  12  -1  13  -1
M  END
$$$$
