HTS1710-04712025-01
 OpenBabel03232612363D

 42 43  0  0  1  0  0  0  0  0999 V2000
    6.6897   -6.4382  -33.8228 C   0  0  0  0  0  0  0  0  0  0  0  0
    5.9652   -7.6650  -33.3322 C   0  0  0  0  0  0  0  0  0  0  0  0
    5.7356   -7.8018  -31.9883 O   0  0  0  0  0  0  0  0  0  0  0  0
    5.0471   -8.9830  -31.9789 C   0  0  0  0  0  0  0  0  0  0  0  0
    4.4801   -9.5110  -30.6902 C   0  0  0  0  0  0  0  0  0  0  0  0
    4.4786  -10.9754  -30.7546 N   0  0  0  0  0  0  0  0  0  0  0  0
    4.5073  -11.7701  -29.6161 C   0  0  0  0  0  0  0  0  0  0  0  0
    4.5495  -11.2403  -28.5173 O   0  0  0  0  0  0  0  0  0  0  0  0
    4.5040  -13.3056  -29.7561 C   0  0  1  0  0  0  0  0  0  0  0  0
    5.1460  -14.0373  -28.5424 C   0  0  0  0  0  0  0  0  0  0  0  0
    4.1960  -14.1954  -27.3306 C   0  0  0  0  0  0  0  0  0  0  0  0
    2.8167  -14.7321  -27.7644 C   0  0  0  0  0  0  0  0  0  0  0  0
    2.2201  -13.9155  -28.9314 C   0  0  0  0  0  0  0  0  0  0  0  0
    3.1493  -13.8393  -30.0866 N   0  0  0  0  0  0  0  0  0  0  0  0
    2.4808  -13.3797  -31.5634 S   0  0  0  0  0  0  0  0  0  0  0  0
    3.4852  -13.5993  -32.5897 O   0  0  0  0  0  0  0  0  0  0  0  0
    1.8816  -12.0656  -31.4078 O   0  0  0  0  0  0  0  0  0  0  0  0
    1.2031  -14.6318  -31.8464 C   0  0  0  0  0  0  0  0  0  0  0  0
    4.8506   -9.5632  -33.2037 C   0  0  0  0  0  0  0  0  0  0  0  0
    5.4672   -8.6784  -34.1285 C   0  0  0  0  0  0  0  0  0  0  0  0
    5.5105   -8.8425  -35.6007 C   0  0  0  0  0  0  0  0  0  0  0  0
    6.0493   -7.9559  -36.2415 O   0  5  0  0  0  0  0  0  0  0  0  0
    5.0138   -9.8417  -36.0896 O   0  0  0  0  0  0  0  0  0  0  0  0
    6.9608   -5.8263  -32.9878 H   0  0  0  0  0  0  0  0  0  0  0  0
    6.0502   -5.8844  -34.4780 H   0  0  0  0  0  0  0  0  0  0  0  0
    7.5725   -6.7325  -34.3508 H   0  0  0  0  0  0  0  0  0  0  0  0
    3.4798   -9.1534  -30.5616 H   0  0  0  0  0  0  0  0  0  0  0  0
    5.0719   -9.1786  -29.8632 H   0  0  0  0  0  0  0  0  0  0  0  0
    4.4565  -11.4114  -31.6370 H   0  0  0  0  0  0  0  0  0  0  0  0
    5.1371  -13.5218  -30.5912 H   0  0  0  0  0  0  0  0  0  0  0  0
    6.0033  -13.4795  -28.2278 H   0  0  0  0  0  0  0  0  0  0  0  0
    5.3959  -15.0243  -28.8717 H   0  0  0  0  0  0  0  0  0  0  0  0
    4.0671  -13.2419  -26.8623 H   0  0  0  0  0  0  0  0  0  0  0  0
    4.6316  -14.8964  -26.6497 H   0  0  0  0  0  0  0  0  0  0  0  0
    2.1484  -14.6820  -26.9304 H   0  0  0  0  0  0  0  0  0  0  0  0
    2.9441  -15.7409  -28.0977 H   0  0  0  0  0  0  0  0  0  0  0  0
    2.0124  -12.9234  -28.5887 H   0  0  0  0  0  0  0  0  0  0  0  0
    1.3268  -14.4065  -29.2568 H   0  0  0  0  0  0  0  0  0  0  0  0
    1.6628  -15.5915  -31.9584 H   0  0  0  0  0  0  0  0  0  0  0  0
    0.6586  -14.3912  -32.7355 H   0  0  0  0  0  0  0  0  0  0  0  0
    0.5330  -14.6525  -31.0124 H   0  0  0  0  0  0  0  0  0  0  0  0
    4.3622  -10.4486  -33.4096 H   0  0  0  0  0  0  0  0  0  0  0  0
  1  2  1  0  0  0  0
  1 24  1  0  0  0  0
  1 25  1  0  0  0  0
  1 26  1  0  0  0  0
  2  3  1  0  0  0  0
  2 20  2  0  0  0  0
  3  4  1  0  0  0  0
  4  5  1  0  0  0  0
  4 19  2  0  0  0  0
  5  6  1  0  0  0  0
  5 27  1  0  0  0  0
  5 28  1  0  0  0  0
  6  7  1  0  0  0  0
  6 29  1  0  0  0  0
  7  8  2  0  0  0  0
  7  9  1  0  0  0  0
  9 10  1  0  0  0  0
  9 14  1  0  0  0  0
  9 30  1  6  0  0  0
 10 11  1  0  0  0  0
 10 31  1  0  0  0  0
 10 32  1  0  0  0  0
 11 12  1  0  0  0  0
 11 33  1  0  0  0  0
 11 34  1  0  0  0  0
 12 13  1  0  0  0  0
 12 35  1  0  0  0  0
 12 36  1  0  0  0  0
 13 14  1  0  0  0  0
 13 37  1  0  0  0  0
 13 38  1  0  0  0  0
 14 15  1  0  0  0  0
 15 16  2  0  0  0  0
 15 17  2  0  0  0  0
 15 18  1  0  0  0  0
 18 39  1  0  0  0  0
 18 40  1  0  0  0  0
 18 41  1  0  0  0  0
 19 20  1  0  0  0  0
 19 42  1  0  0  0  0
 20 21  1  0  0  0  0
 21 22  1  0  0  0  0
 21 23  2  0  0  0  0
M  CHG  1  22  -1
M  END
$$$$
