HTS1710-01905510-01
 OpenBabel03232612353D

 40 39  0  0  1  0  0  0  0  0999 V2000
    3.8790  -10.4118  -35.6313 C   0  0  0  0  0  0  0  0  0  0  0  0
    3.7561  -10.6811  -34.0751 C   0  0  0  0  0  0  0  0  0  0  0  0
    2.5775  -10.4819  -36.5181 C   0  0  0  0  0  0  0  0  0  0  0  0
    3.4420  -12.1514  -33.6091 C   0  0  0  0  0  0  0  0  0  0  0  0
    1.2911  -10.0969  -35.7536 C   0  0  0  0  0  0  0  0  0  0  0  0
    2.8660  -12.1594  -32.1787 C   0  0  0  0  0  0  0  0  0  0  0  0
    3.6404  -11.6201  -31.1577 N   0  0  0  0  0  0  0  0  0  0  0  0
    0.9152   -8.7598  -35.7055 N   0  0  0  0  0  0  0  0  0  0  0  0
   -0.2882   -8.2855  -35.0067 C   0  0  2  0  0  0  0  0  0  0  0  0
    3.2086  -11.5665  -29.7535 C   0  0  2  0  0  0  0  0  0  0  0  0
   -1.0048   -7.2203  -35.8544 C   0  0  0  0  0  0  0  0  0  0  0  0
    3.7807  -10.3061  -29.0801 C   0  0  0  0  0  0  0  0  0  0  0  0
    2.8371   -9.8403  -33.5532 F   0  0  0  0  0  0  0  0  0  0  0  0
    4.9384  -10.3280  -33.5138 F   0  0  0  0  0  0  0  0  0  0  0  0
    4.3967   -9.1684  -35.7806 F   0  0  0  0  0  0  0  0  0  0  0  0
    4.7972  -11.2600  -36.1544 F   0  0  0  0  0  0  0  0  0  0  0  0
    0.6227  -10.9316  -35.1660 O   0  0  0  0  0  0  0  0  0  0  0  0
    1.7550  -12.6023  -31.9327 O   0  0  0  0  0  0  0  0  0  0  0  0
    4.5678  -12.9013  -33.6565 F   0  0  0  0  0  0  0  0  0  0  0  0
    2.5451  -12.7427  -34.4253 F   0  0  0  0  0  0  0  0  0  0  0  0
    2.4450  -11.7132  -37.0610 F   0  0  0  0  0  0  0  0  0  0  0  0
    2.7319   -9.6429  -37.5716 F   0  0  0  0  0  0  0  0  0  0  0  0
    4.8370   -9.8805  -29.5137 O   0  5  0  0  0  0  0  0  0  0  0  0
   -0.3017   -6.4453  -36.4785 O   0  5  0  0  0  0  0  0  0  0  0  0
   -2.2247   -7.2203  -35.8520 O   0  0  0  0  0  0  0  0  0  0  0  0
    3.1609   -9.8306  -28.1436 O   0  0  0  0  0  0  0  0  0  0  0  0
    3.6702  -12.8626  -29.0463 C   0  0  0  0  0  0  0  0  0  0  0  0
    0.1081   -7.7266  -33.6179 C   0  0  0  0  0  0  0  0  0  0  0  0
    5.0786  -13.0393  -29.1774 O   0  0  0  0  0  0  0  0  0  0  0  0
   -1.0351   -7.2244  -32.9278 O   0  0  0  0  0  0  0  0  0  0  0  0
    4.5252  -11.2547  -31.3873 H   0  0  0  0  0  0  0  0  0  0  0  0
    1.4828   -8.0976  -36.1620 H   0  0  0  0  0  0  0  0  0  0  0  0
   -0.9668   -9.1001  -34.8622 H   0  0  0  0  0  0  0  0  0  0  0  0
    2.1424  -11.5052  -29.6865 H   0  0  0  0  0  0  0  0  0  0  0  0
    3.1696  -13.6995  -29.4868 H   0  0  0  0  0  0  0  0  0  0  0  0
    3.4301  -12.7888  -28.0061 H   0  0  0  0  0  0  0  0  0  0  0  0
    0.8153   -6.9342  -33.7477 H   0  0  0  0  0  0  0  0  0  0  0  0
    0.5369   -8.5182  -33.0397 H   0  0  0  0  0  0  0  0  0  0  0  0
    5.3496  -13.8402  -28.7020 H   0  0  0  0  0  0  0  0  0  0  0  0
   -1.4080   -6.4770  -33.4209 H   0  0  0  0  0  0  0  0  0  0  0  0
  1  2  1  0  0  0  0
  1  3  1  0  0  0  0
  1 15  1  0  0  0  0
  1 16  1  0  0  0  0
  2  4  1  0  0  0  0
  2 13  1  0  0  0  0
  2 14  1  0  0  0  0
  3  5  1  0  0  0  0
  3 21  1  0  0  0  0
  3 22  1  0  0  0  0
  4  6  1  0  0  0  0
  4 19  1  0  0  0  0
  4 20  1  0  0  0  0
  5  8  1  0  0  0  0
  5 17  2  0  0  0  0
  6  7  1  0  0  0  0
  6 18  2  0  0  0  0
  7 10  1  0  0  0  0
  7 31  1  0  0  0  0
  8  9  1  0  0  0  0
  8 32  1  0  0  0  0
  9 11  1  0  0  0  0
  9 28  1  0  0  0  0
  9 33  1  1  0  0  0
 10 12  1  0  0  0  0
 10 27  1  0  0  0  0
 10 34  1  1  0  0  0
 11 24  1  0  0  0  0
 11 25  2  0  0  0  0
 12 23  1  0  0  0  0
 12 26  2  0  0  0  0
 27 29  1  0  0  0  0
 27 35  1  0  0  0  0
 27 36  1  0  0  0  0
 28 30  1  0  0  0  0
 28 37  1  0  0  0  0
 28 38  1  0  0  0  0
 29 39  1  0  0  0  0
 30 40  1  0  0  0  0
M  CHG  2  23  -1  24  -1
M  END
$$$$
