HTS1710-05167271-01
 OpenBabel03232612353D

 39 41  0  0  1  0  0  0  0  0999 V2000
    4.3526  -11.5934  -35.2463 C   0  0  0  0  0  0  0  0  0  0  0  0
    4.3709  -10.1003  -34.8292 C   0  0  2  0  0  0  0  0  0  0  0  0
    3.0570   -9.6536  -34.2862 N   0  0  0  0  0  0  0  0  0  0  0  0
    1.9300   -9.8566  -35.2221 C   0  0  0  0  0  0  0  0  0  0  0  0
    2.9383   -9.0334  -33.0253 C   0  0  0  0  0  0  0  0  0  0  0  0
    1.8613   -8.6421  -32.6064 O   0  0  0  0  0  0  0  0  0  0  0  0
    4.1988   -8.8369  -32.2398 C   0  0  0  0  0  0  0  0  0  0  0  0
    5.1726   -7.9352  -32.5482 N   0  0  0  0  0  0  0  0  0  0  0  0
    5.9690   -7.9405  -31.4917 C   0  0  0  0  0  0  0  0  0  0  0  0
    5.6196   -8.7718  -30.4500 O   0  0  0  0  0  0  0  0  0  0  0  0
    4.5010   -9.3351  -30.9963 C   0  0  0  0  0  0  0  0  0  0  0  0
    3.8598  -10.4896  -30.3338 C   0  0  0  0  0  0  0  0  0  0  0  0
    3.7380  -10.4786  -28.9269 C   0  0  0  0  0  0  0  0  0  0  0  0
    3.1748  -11.5662  -28.2396 C   0  0  0  0  0  0  0  0  0  0  0  0
    2.7513  -12.6957  -28.9503 C   0  0  0  0  0  0  0  0  0  0  0  0
    2.2272  -13.7798  -28.2799 O   0  0  0  0  0  0  0  0  0  0  0  0
    2.1363  -15.0484  -28.9615 C   0  0  0  0  0  0  0  0  0  0  0  0
    1.6084  -14.8028  -30.3944 C   0  0  0  0  0  0  0  0  0  0  0  0
    2.4731  -13.8493  -31.0456 O   0  0  0  0  0  0  0  0  0  0  0  0
    2.8844  -12.7329  -30.3493 C   0  0  0  0  0  0  0  0  0  0  0  0
    3.4533  -11.6478  -31.0353 C   0  0  0  0  0  0  0  0  0  0  0  0
    4.8794   -9.1349  -35.9225 C   0  0  0  0  0  0  0  0  0  0  0  0
    4.3607   -9.2371  -37.0208 O   0  5  0  0  0  0  0  0  0  0  0  0
    5.7393   -8.3239  -35.6241 O   0  0  0  0  0  0  0  0  0  0  0  0
    3.9887  -12.1865  -34.4334 H   0  0  0  0  0  0  0  0  0  0  0  0
    5.3444  -11.9053  -35.4993 H   0  0  0  0  0  0  0  0  0  0  0  0
    3.7119  -11.7191  -36.0941 H   0  0  0  0  0  0  0  0  0  0  0  0
    5.0951  -10.0511  -34.0431 H   0  0  0  0  0  0  0  0  0  0  0  0
    2.2833  -10.3478  -36.1046 H   0  0  0  0  0  0  0  0  0  0  0  0
    1.5100   -8.9085  -35.4857 H   0  0  0  0  0  0  0  0  0  0  0  0
    1.1814  -10.4604  -34.7533 H   0  0  0  0  0  0  0  0  0  0  0  0
    6.8135   -7.3488  -31.4498 H   0  0  0  0  0  0  0  0  0  0  0  0
    4.0681   -9.6580  -28.3951 H   0  0  0  0  0  0  0  0  0  0  0  0
    3.0734  -11.5329  -27.2132 H   0  0  0  0  0  0  0  0  0  0  0  0
    1.4637  -15.6929  -28.4351 H   0  0  0  0  0  0  0  0  0  0  0  0
    3.1002  -15.5113  -29.0017 H   0  0  0  0  0  0  0  0  0  0  0  0
    0.6122  -14.4148  -30.3501 H   0  0  0  0  0  0  0  0  0  0  0  0
    1.5981  -15.7215  -30.9430 H   0  0  0  0  0  0  0  0  0  0  0  0
    3.5756  -11.6961  -32.0590 H   0  0  0  0  0  0  0  0  0  0  0  0
  1  2  1  0  0  0  0
  1 25  1  0  0  0  0
  1 26  1  0  0  0  0
  1 27  1  0  0  0  0
  2  3  1  0  0  0  0
  2 22  1  0  0  0  0
  2 28  1  1  0  0  0
  3  4  1  0  0  0  0
  3  5  1  0  0  0  0
  4 29  1  0  0  0  0
  4 30  1  0  0  0  0
  4 31  1  0  0  0  0
  5  6  2  0  0  0  0
  5  7  1  0  0  0  0
  7  8  1  0  0  0  0
  7 11  2  0  0  0  0
  8  9  2  0  0  0  0
  9 10  1  0  0  0  0
  9 32  1  0  0  0  0
 10 11  1  0  0  0  0
 11 12  1  0  0  0  0
 12 13  2  0  0  0  0
 12 21  1  0  0  0  0
 13 14  1  0  0  0  0
 13 33  1  0  0  0  0
 14 15  2  0  0  0  0
 14 34  1  0  0  0  0
 15 16  1  0  0  0  0
 15 20  1  0  0  0  0
 16 17  1  0  0  0  0
 17 18  1  0  0  0  0
 17 35  1  0  0  0  0
 17 36  1  0  0  0  0
 18 19  1  0  0  0  0
 18 37  1  0  0  0  0
 18 38  1  0  0  0  0
 19 20  1  0  0  0  0
 20 21  2  0  0  0  0
 21 39  1  0  0  0  0
 22 23  1  0  0  0  0
 22 24  2  0  0  0  0
M  CHG  1  23  -1
M  END
$$$$
