HTS1710-03228240-01
 OpenBabel03232612363D

 44 46  0  0  0  0  0  0  0  0999 V2000
    3.9693  -10.8104  -29.2039 C   0  0  0  0  0  0  0  0  0  0  0  0
    0.7247   -9.4575  -34.7902 C   0  0  0  0  0  0  0  0  0  0  0  0
    1.1283  -10.7431  -35.4416 C   0  0  0  0  0  0  0  0  0  0  0  0
    4.0751  -12.1891  -28.6321 C   0  0  0  0  0  0  0  0  0  0  0  0
    4.8364  -10.5148  -30.2400 O   0  0  0  0  0  0  0  0  0  0  0  0
   -0.5796   -9.0505  -35.0094 O   0  0  0  0  0  0  0  0  0  0  0  0
    1.5493   -8.7153  -34.0130 C   0  0  0  0  0  0  0  0  0  0  0  0
    3.0806   -9.8827  -28.7727 C   0  0  0  0  0  0  0  0  0  0  0  0
    2.8985  -12.8804  -28.7213 O   0  0  0  0  0  0  0  0  0  0  0  0
    2.4528  -11.0280  -35.2495 O   0  0  0  0  0  0  0  0  0  0  0  0
    0.3574  -11.4509  -36.0690 O   0  0  0  0  0  0  0  0  0  0  0  0
    5.1010  -12.6394  -28.1460 O   0  0  0  0  0  0  0  0  0  0  0  0
    1.1420   -7.5606  -33.4038 O   0  0  0  0  0  0  0  0  0  0  0  0
    2.9839   -8.6404  -29.3368 O   0  0  0  0  0  0  0  0  0  0  0  0
    2.8283  -14.0575  -29.5460 C   0  0  0  0  0  0  0  0  0  0  0  0
    2.8763  -12.4012  -35.1714 C   0  0  0  0  0  0  0  0  0  0  0  0
    2.8611  -12.8380  -33.7152 C   0  0  0  0  0  0  0  0  0  0  0  0
    2.8395  -13.6357  -31.0066 C   0  0  0  0  0  0  0  0  0  0  0  0
    1.6416  -13.2748  -31.6499 C   0  0  0  0  0  0  0  0  0  0  0  0
    1.6517  -12.8784  -32.9971 C   0  0  0  0  0  0  0  0  0  0  0  0
    4.0462  -13.6041  -31.7273 C   0  0  0  0  0  0  0  0  0  0  0  0
    4.0571  -13.2080  -33.0746 C   0  0  0  0  0  0  0  0  0  0  0  0
   -0.9419   -7.7000  -34.6425 C   0  0  0  0  0  0  0  0  0  0  0  0
    4.9694   -9.1332  -30.6444 C   0  0  0  0  0  0  0  0  0  0  0  0
    3.5670   -8.4775  -30.6477 C   0  0  0  0  0  0  0  0  0  0  0  0
   -0.2831   -7.3584  -33.2842 C   0  0  0  0  0  0  0  0  0  0  0  0
    2.5215   -9.0332  -33.8754 H   0  0  0  0  0  0  0  0  0  0  0  0
    2.4532  -10.1225  -27.9893 H   0  0  0  0  0  0  0  0  0  0  0  0
    1.9261  -14.5920  -29.3332 H   0  0  0  0  0  0  0  0  0  0  0  0
    3.6662  -14.6919  -29.3451 H   0  0  0  0  0  0  0  0  0  0  0  0
    3.8672  -12.4945  -35.5642 H   0  0  0  0  0  0  0  0  0  0  0  0
    2.2144  -13.0182  -35.7425 H   0  0  0  0  0  0  0  0  0  0  0  0
    0.7509  -13.3016  -31.1292 H   0  0  0  0  0  0  0  0  0  0  0  0
    0.7688  -12.6156  -33.4622 H   0  0  0  0  0  0  0  0  0  0  0  0
    4.9282  -13.8732  -31.2640 H   0  0  0  0  0  0  0  0  0  0  0  0
    4.9469  -13.1884  -33.5970 H   0  0  0  0  0  0  0  0  0  0  0  0
   -2.0057   -7.6241  -34.5555 H   0  0  0  0  0  0  0  0  0  0  0  0
   -0.6036   -7.0163  -35.3929 H   0  0  0  0  0  0  0  0  0  0  0  0
    5.3913   -9.0849  -31.6265 H   0  0  0  0  0  0  0  0  0  0  0  0
    5.6115   -8.6150  -29.9632 H   0  0  0  0  0  0  0  0  0  0  0  0
    3.6556   -7.4362  -30.8769 H   0  0  0  0  0  0  0  0  0  0  0  0
    2.9465   -8.9411  -31.3859 H   0  0  0  0  0  0  0  0  0  0  0  0
   -0.4831   -6.3379  -33.0322 H   0  0  0  0  0  0  0  0  0  0  0  0
   -0.6799   -7.9875  -32.5150 H   0  0  0  0  0  0  0  0  0  0  0  0
  1  4  1  0  0  0  0
  1  5  1  0  0  0  0
  1  8  2  0  0  0  0
  2  3  1  0  0  0  0
  2  6  1  0  0  0  0
  2  7  2  0  0  0  0
  3 10  1  0  0  0  0
  3 11  2  0  0  0  0
  4  9  1  0  0  0  0
  4 12  2  0  0  0  0
  5 24  1  0  0  0  0
  6 23  1  0  0  0  0
  7 13  1  0  0  0  0
  7 27  1  0  0  0  0
  8 14  1  0  0  0  0
  8 28  1  0  0  0  0
  9 15  1  0  0  0  0
 10 16  1  0  0  0  0
 13 26  1  0  0  0  0
 14 25  1  0  0  0  0
 15 18  1  0  0  0  0
 15 29  1  0  0  0  0
 15 30  1  0  0  0  0
 16 17  1  0  0  0  0
 16 31  1  0  0  0  0
 16 32  1  0  0  0  0
 17 20  2  0  0  0  0
 17 22  1  0  0  0  0
 18 19  2  0  0  0  0
 18 21  1  0  0  0  0
 19 20  1  0  0  0  0
 19 33  1  0  0  0  0
 20 34  1  0  0  0  0
 21 22  2  0  0  0  0
 21 35  1  0  0  0  0
 22 36  1  0  0  0  0
 23 26  1  0  0  0  0
 23 37  1  0  0  0  0
 23 38  1  0  0  0  0
 24 25  1  0  0  0  0
 24 39  1  0  0  0  0
 24 40  1  0  0  0  0
 25 41  1  0  0  0  0
 25 42  1  0  0  0  0
 26 43  1  0  0  0  0
 26 44  1  0  0  0  0
M  END
$$$$
