HTS1710-01946911-01
 OpenBabel03232612343D

 20 20  0  0  0  0  0  0  0  0999 V2000
    1.4443   -8.6223  -33.6316 C   0  0  0  0  0  0  0  0  0  0  0  0
    2.5769   -9.3200  -34.1050 C   0  0  0  0  0  0  0  0  0  0  0  0
    2.4965   -8.4127  -31.4275 C   0  0  0  0  0  0  0  0  0  0  0  0
    3.6291   -9.1128  -31.9003 C   0  0  0  0  0  0  0  0  0  0  0  0
    1.4118   -8.1706  -32.2952 C   0  0  0  0  0  0  0  0  0  0  0  0
    3.6640   -9.5600  -33.2376 C   0  0  0  0  0  0  0  0  0  0  0  0
    0.2745   -8.3577  -34.5386 C   0  0  0  0  0  0  0  0  0  0  0  0
    2.6329   -9.8171  -35.5219 C   0  0  0  0  0  0  0  0  0  0  0  0
    2.4357   -7.9308  -30.0055 C   0  0  0  0  0  0  0  0  0  0  0  0
    4.7955   -9.3819  -30.9916 C   0  0  0  0  0  0  0  0  0  0  0  0
   -0.8079   -8.8000  -34.1924 O   0  5  0  0  0  0  0  0  0  0  0  0
    3.5455   -9.4045  -36.2179 O   0  5  0  0  0  0  0  0  0  0  0  0
    2.6519   -8.7512  -29.1305 O   0  5  0  0  0  0  0  0  0  0  0  0
    5.5681   -8.4596  -30.7946 O   0  5  0  0  0  0  0  0  0  0  0  0
    5.0776  -10.4278  -33.8315 Cl  0  0  0  0  0  0  0  0  0  0  0  0
    0.0036   -7.2908  -31.7038 Cl  0  0  0  0  0  0  0  0  0  0  0  0
    2.1887   -6.7496  -29.8309 O   0  0  0  0  0  0  0  0  0  0  0  0
    1.7560  -10.5858  -35.8765 O   0  0  0  0  0  0  0  0  0  0  0  0
    4.8776  -10.4976  -30.5078 O   0  0  0  0  0  0  0  0  0  0  0  0
    0.4902   -7.7105  -35.5487 O   0  0  0  0  0  0  0  0  0  0  0  0
  1  2  2  0  0  0  0
  1  5  1  0  0  0  0
  1  7  1  0  0  0  0
  2  6  1  0  0  0  0
  2  8  1  0  0  0  0
  3  4  1  0  0  0  0
  3  5  2  0  0  0  0
  3  9  1  0  0  0  0
  4  6  2  0  0  0  0
  4 10  1  0  0  0  0
  5 16  1  0  0  0  0
  6 15  1  0  0  0  0
  7 11  1  0  0  0  0
  7 20  2  0  0  0  0
  8 12  1  0  0  0  0
  8 18  2  0  0  0  0
  9 13  1  0  0  0  0
  9 17  2  0  0  0  0
 10 14  1  0  0  0  0
 10 19  2  0  0  0  0
M  CHG  4  11  -1  12  -1  13  -1  14  -1
M  END
$$$$
