HTS1710-01416419-01
 OpenBabel03232612363D

 37 38  0  0  1  0  0  0  0  0999 V2000
    2.7867  -12.6223  -29.6550 C   0  0  1  0  0  0  0  0  0  0  0  0
    3.5470  -12.7948  -28.3509 C   0  0  0  0  0  0  0  0  0  0  0  0
    2.9257  -11.4513  -28.6916 C   0  0  1  0  0  0  0  0  0  0  0  0
    3.5173  -12.6628  -30.9797 C   0  0  0  0  0  0  0  0  0  0  0  0
    3.8098  -10.2600  -28.9891 C   0  0  0  0  0  0  0  0  0  0  0  0
    3.2834  -11.6186  -31.8728 N   0  0  0  0  0  0  0  0  0  0  0  0
    4.3172  -13.5475  -31.2203 O   0  0  0  0  0  0  0  0  0  0  0  0
    6.6558   -6.4366  -34.5281 C   0  0  0  0  0  0  0  0  0  0  0  0
    3.8235  -11.4192  -33.1449 C   0  0  0  0  0  0  0  0  0  0  0  0
    4.8221  -10.4630  -29.6379 O   0  5  0  0  0  0  0  0  0  0  0  0
    4.3606  -10.1404  -33.3898 C   0  0  0  0  0  0  0  0  0  0  0  0
    6.8886   -6.4344  -35.7240 O   0  5  0  0  0  0  0  0  0  0  0  0
    2.8990  -13.6227  -27.2409 C   0  0  0  0  0  0  0  0  0  0  0  0
    5.0726  -12.9753  -28.3396 C   0  0  0  0  0  0  0  0  0  0  0  0
    5.4651   -8.5694  -34.9121 O   0  0  0  0  0  0  0  0  0  0  0  0
    6.1449   -7.7580  -33.9285 C   0  0  0  0  0  0  0  0  0  0  0  0
    4.9322   -9.8167  -34.6401 C   0  0  0  0  0  0  0  0  0  0  0  0
    3.4839   -9.1872  -28.5120 O   0  0  0  0  0  0  0  0  0  0  0  0
    6.8410   -5.4979  -33.7720 O   0  0  0  0  0  0  0  0  0  0  0  0
    4.4572  -12.0690  -35.4166 C   0  0  0  0  0  0  0  0  0  0  0  0
    3.8888  -12.3900  -34.1739 C   0  0  0  0  0  0  0  0  0  0  0  0
    4.9744  -10.7880  -35.6505 C   0  0  0  0  0  0  0  0  0  0  0  0
    1.9588  -13.1068  -30.1293 H   0  0  0  0  0  0  0  0  0  0  0  0
    2.2310  -10.7842  -28.2256 H   0  0  0  0  0  0  0  0  0  0  0  0
    2.6521  -10.9285  -31.5653 H   0  0  0  0  0  0  0  0  0  0  0  0
    4.3362   -9.4282  -32.6434 H   0  0  0  0  0  0  0  0  0  0  0  0
    3.4416  -14.5362  -27.1143 H   0  0  0  0  0  0  0  0  0  0  0  0
    1.8860  -13.8434  -27.5055 H   0  0  0  0  0  0  0  0  0  0  0  0
    2.9159  -13.0680  -26.3261 H   0  0  0  0  0  0  0  0  0  0  0  0
    5.3103  -13.9852  -28.0780 H   0  0  0  0  0  0  0  0  0  0  0  0
    5.5051  -12.3098  -27.6221 H   0  0  0  0  0  0  0  0  0  0  0  0
    5.4649  -12.7566  -29.3108 H   0  0  0  0  0  0  0  0  0  0  0  0
    5.4646   -7.5365  -33.1329 H   0  0  0  0  0  0  0  0  0  0  0  0
    6.9901   -8.3086  -33.5717 H   0  0  0  0  0  0  0  0  0  0  0  0
    4.4943  -12.7810  -36.1627 H   0  0  0  0  0  0  0  0  0  0  0  0
    3.5166  -13.3385  -34.0093 H   0  0  0  0  0  0  0  0  0  0  0  0
    5.3872  -10.5589  -36.5682 H   0  0  0  0  0  0  0  0  0  0  0  0
  1  2  1  0  0  0  0
  1  3  1  0  0  0  0
  1  4  1  0  0  0  0
  1 23  1  6  0  0  0
  2 13  1  0  0  0  0
  2 14  1  0  0  0  0
  2  3  1  0  0  0  0
  3  5  1  0  0  0  0
  3 24  1  1  0  0  0
  4  6  1  0  0  0  0
  4  7  2  0  0  0  0
  5 10  1  0  0  0  0
  5 18  2  0  0  0  0
  6  9  1  0  0  0  0
  6 25  1  0  0  0  0
  8 16  1  0  0  0  0
  8 12  1  0  0  0  0
  8 19  2  0  0  0  0
  9 11  2  0  0  0  0
  9 21  1  0  0  0  0
 11 17  1  0  0  0  0
 11 26  1  0  0  0  0
 13 27  1  0  0  0  0
 13 28  1  0  0  0  0
 13 29  1  0  0  0  0
 14 30  1  0  0  0  0
 14 31  1  0  0  0  0
 14 32  1  0  0  0  0
 15 17  1  0  0  0  0
 15 16  1  0  0  0  0
 16 33  1  0  0  0  0
 16 34  1  0  0  0  0
 17 22  2  0  0  0  0
 20 21  2  0  0  0  0
 20 22  1  0  0  0  0
 20 35  1  0  0  0  0
 21 36  1  0  0  0  0
 22 37  1  0  0  0  0
M  CHG  2  10  -1  12  -1
M  END
$$$$
