HTS1710-00608928-01
 OpenBabel03232612353D

 39 38  0  0  1  0  0  0  0  0999 V2000
    3.6023   -9.9372  -31.2235 C   0  0  1  0  0  0  0  0  0  0  0  0
    3.2047  -10.7450  -30.0598 N   0  0  0  0  0  0  0  0  0  0  0  0
    2.3543   -9.5993  -32.0730 C   0  0  0  0  0  0  0  0  0  0  0  0
    4.3200   -8.6542  -30.7747 C   0  0  0  0  0  0  0  0  0  0  0  0
    3.4542  -12.1042  -29.9629 C   0  0  0  0  0  0  0  0  0  0  0  0
    1.6627  -11.0747  -32.9528 S   0  0  0  0  0  0  0  0  0  0  0  0
    3.6376   -7.6484  -30.6738 O   0  5  0  0  0  0  0  0  0  0  0  0
    5.5207   -8.7143  -30.5706 O   0  0  0  0  0  0  0  0  0  0  0  0
    3.0248  -12.7255  -28.8174 O   0  0  0  0  0  0  0  0  0  0  0  0
    4.0268  -12.6787  -30.8753 O   0  0  0  0  0  0  0  0  0  0  0  0
    0.6332  -10.3061  -34.2856 C   0  0  0  0  0  0  0  0  0  0  0  0
    3.0101  -14.1640  -28.6075 C   0  0  0  0  0  0  0  0  0  0  0  0
    1.4602   -9.4640  -35.2872 C   0  0  0  0  0  0  0  0  0  0  0  0
    2.3881  -14.3717  -27.2038 C   0  0  0  0  0  0  0  0  0  0  0  0
    4.4670  -14.7083  -28.6241 C   0  0  0  0  0  0  0  0  0  0  0  0
    2.1168  -14.8421  -29.6850 C   0  0  0  0  0  0  0  0  0  0  0  0
    2.4153  -10.3214  -36.1523 C   0  0  0  0  0  0  0  0  0  0  0  0
    3.3782   -9.4483  -36.9642 C   0  0  0  0  0  0  0  0  0  0  0  0
    2.9651   -8.9936  -38.0166 O   0  5  0  0  0  0  0  0  0  0  0  0
    4.4830   -9.2484  -36.4908 O   0  0  0  0  0  0  0  0  0  0  0  0
    4.2862  -10.5022  -31.8219 H   0  0  0  0  0  0  0  0  0  0  0  0
    2.7398  -10.2989  -29.3155 H   0  0  0  0  0  0  0  0  0  0  0  0
    2.6254   -8.8635  -32.8008 H   0  0  0  0  0  0  0  0  0  0  0  0
    1.5990   -9.2392  -31.4061 H   0  0  0  0  0  0  0  0  0  0  0  0
   -0.0959   -9.6705  -33.8280 H   0  0  0  0  0  0  0  0  0  0  0  0
    0.1819  -11.1036  -34.8380 H   0  0  0  0  0  0  0  0  0  0  0  0
    2.0424   -8.7545  -34.7372 H   0  0  0  0  0  0  0  0  0  0  0  0
    0.7700   -8.9854  -35.9501 H   0  0  0  0  0  0  0  0  0  0  0  0
    3.0066  -13.9033  -26.4669 H   0  0  0  0  0  0  0  0  0  0  0  0
    2.3173  -15.4189  -26.9965 H   0  0  0  0  0  0  0  0  0  0  0  0
    1.4111  -13.9362  -27.1786 H   0  0  0  0  0  0  0  0  0  0  0  0
    5.0411  -14.2139  -27.8685 H   0  0  0  0  0  0  0  0  0  0  0  0
    4.9055  -14.5245  -29.5827 H   0  0  0  0  0  0  0  0  0  0  0  0
    4.4567  -15.7609  -28.4326 H   0  0  0  0  0  0  0  0  0  0  0  0
    1.1278  -14.4368  -29.6351 H   0  0  0  0  0  0  0  0  0  0  0  0
    2.0797  -15.8963  -29.5056 H   0  0  0  0  0  0  0  0  0  0  0  0
    2.5284  -14.6599  -30.6558 H   0  0  0  0  0  0  0  0  0  0  0  0
    1.8342  -10.9161  -36.8257 H   0  0  0  0  0  0  0  0  0  0  0  0
    2.9945  -10.9397  -35.4987 H   0  0  0  0  0  0  0  0  0  0  0  0
  1  2  1  0  0  0  0
  1  3  1  0  0  0  0
  1  4  1  0  0  0  0
  1 21  1  6  0  0  0
  2  5  1  0  0  0  0
  2 22  1  0  0  0  0
  3  6  1  0  0  0  0
  3 23  1  0  0  0  0
  3 24  1  0  0  0  0
  4  7  1  0  0  0  0
  4  8  2  0  0  0  0
  5  9  1  0  0  0  0
  5 10  2  0  0  0  0
  6 11  1  0  0  0  0
  9 12  1  0  0  0  0
 11 13  1  0  0  0  0
 11 25  1  0  0  0  0
 11 26  1  0  0  0  0
 12 14  1  0  0  0  0
 12 15  1  0  0  0  0
 12 16  1  0  0  0  0
 13 17  1  0  0  0  0
 13 27  1  0  0  0  0
 13 28  1  0  0  0  0
 14 29  1  0  0  0  0
 14 30  1  0  0  0  0
 14 31  1  0  0  0  0
 15 32  1  0  0  0  0
 15 33  1  0  0  0  0
 15 34  1  0  0  0  0
 16 35  1  0  0  0  0
 16 36  1  0  0  0  0
 16 37  1  0  0  0  0
 17 18  1  0  0  0  0
 17 38  1  0  0  0  0
 17 39  1  0  0  0  0
 18 19  1  0  0  0  0
 18 20  2  0  0  0  0
M  CHG  2   7  -1  19  -1
M  END
$$$$
