HTS1710-00309945-01
 OpenBabel03232612353D

 36 37  0  0  0  0  0  0  0  0999 V2000
    5.1408  -18.3254  -25.0264 C   0  0  0  0  0  0  0  0  0  0  0  0
    6.3133  -17.4905  -25.0429 O   0  0  0  0  0  0  0  0  0  0  0  0
    6.8716  -17.2061  -26.3450 C   0  0  0  0  0  0  0  0  0  0  0  0
    6.7487  -15.6937  -26.6737 C   0  0  0  0  0  0  0  0  0  0  0  0
    5.5480  -15.4405  -27.4751 N   0  0  0  0  0  0  0  0  0  0  0  0
    5.1957  -14.1691  -27.9010 C   0  0  0  0  0  0  0  0  0  0  0  0
    5.9111  -13.2128  -27.6504 O   0  0  0  0  0  0  0  0  0  0  0  0
    3.9205  -14.0289  -28.7316 C   0  0  0  0  0  0  0  0  0  0  0  0
    3.6985  -12.5932  -29.0075 N   0  0  0  0  0  0  0  0  0  0  0  0
    3.1473  -11.8105  -27.9848 C   0  0  0  0  0  0  0  0  0  0  0  0
    2.9966  -10.4972  -28.0767 N   0  0  0  0  0  0  0  0  0  0  0  0
    3.4159   -9.8823  -29.2285 C   0  0  0  0  0  0  0  0  0  0  0  0
    3.3258   -8.5334  -29.4122 O   0  0  0  0  0  0  0  0  0  0  0  0
    3.8758   -8.4051  -30.6586 C   0  0  0  0  0  0  0  0  0  0  0  0
    3.9785   -7.0194  -31.2477 C   0  0  0  0  0  0  0  0  0  0  0  0
    4.2969   -9.5790  -31.2579 C   0  0  0  0  0  0  0  0  0  0  0  0
    4.9486   -9.7381  -32.5937 C   0  0  0  0  0  0  0  0  0  0  0  0
    5.4586   -8.7621  -33.1102 O   0  5  0  0  0  0  0  0  0  0  0  0
    4.9376  -10.8409  -33.1100 O   0  0  0  0  0  0  0  0  0  0  0  0
    3.9653  -10.5726  -30.2750 C   0  0  0  0  0  0  0  0  0  0  0  0
    4.1245  -12.0482  -30.2300 C   0  0  0  0  0  0  0  0  0  0  0  0
    4.5816  -12.7283  -31.1308 O   0  0  0  0  0  0  0  0  0  0  0  0
    4.8182  -18.4672  -24.0161 H   0  0  0  0  0  0  0  0  0  0  0  0
    5.3724  -19.2742  -25.4634 H   0  0  0  0  0  0  0  0  0  0  0  0
    4.3603  -17.8554  -25.5873 H   0  0  0  0  0  0  0  0  0  0  0  0
    6.3438  -17.7707  -27.0849 H   0  0  0  0  0  0  0  0  0  0  0  0
    7.9071  -17.4757  -26.3428 H   0  0  0  0  0  0  0  0  0  0  0  0
    7.6118  -15.3812  -27.2235 H   0  0  0  0  0  0  0  0  0  0  0  0
    6.6769  -15.1445  -25.7582 H   0  0  0  0  0  0  0  0  0  0  0  0
    4.9713  -16.2000  -27.7195 H   0  0  0  0  0  0  0  0  0  0  0  0
    3.0890  -14.4249  -28.1868 H   0  0  0  0  0  0  0  0  0  0  0  0
    4.0188  -14.5688  -29.6502 H   0  0  0  0  0  0  0  0  0  0  0  0
    2.8435  -12.2798  -27.1173 H   0  0  0  0  0  0  0  0  0  0  0  0
    3.5728   -6.3081  -30.5589 H   0  0  0  0  0  0  0  0  0  0  0  0
    3.4296   -6.9804  -32.1653 H   0  0  0  0  0  0  0  0  0  0  0  0
    5.0058   -6.7872  -31.4364 H   0  0  0  0  0  0  0  0  0  0  0  0
  1  2  1  0  0  0  0
  1 23  1  0  0  0  0
  1 24  1  0  0  0  0
  1 25  1  0  0  0  0
  2  3  1  0  0  0  0
  3  4  1  0  0  0  0
  3 26  1  0  0  0  0
  3 27  1  0  0  0  0
  4  5  1  0  0  0  0
  4 28  1  0  0  0  0
  4 29  1  0  0  0  0
  5  6  1  0  0  0  0
  5 30  1  0  0  0  0
  6  7  2  0  0  0  0
  6  8  1  0  0  0  0
  8  9  1  0  0  0  0
  8 31  1  0  0  0  0
  8 32  1  0  0  0  0
  9 10  1  0  0  0  0
  9 21  1  0  0  0  0
 10 11  2  0  0  0  0
 10 33  1  0  0  0  0
 11 12  1  0  0  0  0
 12 13  1  0  0  0  0
 12 20  2  0  0  0  0
 13 14  1  0  0  0  0
 14 15  1  0  0  0  0
 14 16  2  0  0  0  0
 15 34  1  0  0  0  0
 15 35  1  0  0  0  0
 15 36  1  0  0  0  0
 16 17  1  0  0  0  0
 16 20  1  0  0  0  0
 17 18  1  0  0  0  0
 17 19  2  0  0  0  0
 20 21  1  0  0  0  0
 21 22  2  0  0  0  0
M  CHG  1  18  -1
M  END
$$$$
