HTS1710-01336111-01
 OpenBabel03232612353D

 37 38  0  0  1  0  0  0  0  0999 V2000
    2.2548  -11.2256  -34.5570 C   0  0  0  0  0  0  0  0  0  0  0  0
    3.1821  -11.6226  -35.4555 N   0  0  0  0  0  0  0  0  0  0  0  0
    3.3596  -10.9561  -36.6111 N   0  0  0  0  0  0  0  0  0  0  0  0
    2.1788  -12.0713  -33.2846 C   0  0  0  0  0  0  0  0  0  0  0  0
    3.1543  -11.5714  -32.2150 C   0  0  0  0  0  0  0  0  0  0  0  0
    2.6137   -9.8731  -36.8989 C   0  0  0  0  0  0  0  0  0  0  0  0
    1.4314  -10.0954  -34.7992 C   0  0  0  0  0  0  0  0  0  0  0  0
    1.6220   -9.3973  -36.0138 C   0  0  0  0  0  0  0  0  0  0  0  0
    2.6317  -11.1049  -31.0176 N   0  0  0  0  0  0  0  0  0  0  0  0
    3.3209  -11.5044  -28.6806 C   0  0  0  0  0  0  0  0  0  0  0  0
    3.4680  -10.6009  -29.9188 C   0  0  2  0  0  0  0  0  0  0  0  0
    4.7407   -7.8001  -31.0475 C   0  0  0  0  0  0  0  0  0  0  0  0
    4.3606  -11.5727  -32.4005 O   0  0  0  0  0  0  0  0  0  0  0  0
    2.4891  -11.1951  -27.8437 O   0  5  0  0  0  0  0  0  0  0  0  0
    5.5904   -8.5262  -30.5625 O   0  5  0  0  0  0  0  0  0  0  0  0
    3.0829   -9.1358  -29.5792 C   0  0  0  0  0  0  0  0  0  0  0  0
    3.2723   -8.1444  -30.7598 C   0  0  0  0  0  0  0  0  0  0  0  0
    4.0371  -12.4896  -28.6295 O   0  0  0  0  0  0  0  0  0  0  0  0
    2.8565   -9.2550  -38.0932 O   0  0  0  0  0  0  0  0  0  0  0  0
    4.9586   -6.8110  -31.7254 O   0  0  0  0  0  0  0  0  0  0  0  0
    0.4518   -9.6423  -33.8877 C   0  0  0  0  0  0  0  0  0  0  0  0
    0.8373   -8.2630  -36.3077 C   0  0  0  0  0  0  0  0  0  0  0  0
   -0.3239   -8.5118  -34.1888 C   0  0  0  0  0  0  0  0  0  0  0  0
   -0.1326   -7.8244  -35.3954 C   0  0  0  0  0  0  0  0  0  0  0  0
    2.4193  -13.0853  -33.5270 H   0  0  0  0  0  0  0  0  0  0  0  0
    1.1860  -11.9967  -32.8925 H   0  0  0  0  0  0  0  0  0  0  0  0
    1.6545  -11.1116  -30.8981 H   0  0  0  0  0  0  0  0  0  0  0  0
    4.4922  -10.6167  -30.2279 H   0  0  0  0  0  0  0  0  0  0  0  0
    3.6924   -8.8080  -28.7631 H   0  0  0  0  0  0  0  0  0  0  0  0
    2.0401   -9.1368  -29.3394 H   0  0  0  0  0  0  0  0  0  0  0  0
    2.8495   -8.5824  -31.6397 H   0  0  0  0  0  0  0  0  0  0  0  0
    2.7859   -7.2325  -30.4831 H   0  0  0  0  0  0  0  0  0  0  0  0
    2.6454   -9.6886  -38.8965 H   0  0  0  0  0  0  0  0  0  0  0  0
    0.3060  -10.1439  -32.9977 H   0  0  0  0  0  0  0  0  0  0  0  0
    0.9771   -7.7553  -37.1953 H   0  0  0  0  0  0  0  0  0  0  0  0
   -1.0380   -8.1854  -33.5191 H   0  0  0  0  0  0  0  0  0  0  0  0
   -0.7063   -6.9945  -35.6124 H   0  0  0  0  0  0  0  0  0  0  0  0
  1  2  2  0  0  0  0
  1  4  1  0  0  0  0
  1  7  1  0  0  0  0
  2  3  1  0  0  0  0
  3  6  2  0  0  0  0
  4  5  1  0  0  0  0
  4 25  1  0  0  0  0
  4 26  1  0  0  0  0
  5  9  1  0  0  0  0
  5 13  2  0  0  0  0
  6  8  1  0  0  0  0
  6 19  1  0  0  0  0
  7  8  2  0  0  0  0
  7 21  1  0  0  0  0
  8 22  1  0  0  0  0
  9 11  1  0  0  0  0
  9 27  1  0  0  0  0
 10 11  1  0  0  0  0
 10 14  1  0  0  0  0
 10 18  2  0  0  0  0
 11 16  1  0  0  0  0
 11 28  1  6  0  0  0
 12 17  1  0  0  0  0
 12 15  1  0  0  0  0
 12 20  2  0  0  0  0
 16 17  1  0  0  0  0
 16 29  1  0  0  0  0
 16 30  1  0  0  0  0
 17 31  1  0  0  0  0
 17 32  1  0  0  0  0
 19 33  1  0  0  0  0
 21 23  2  0  0  0  0
 21 34  1  0  0  0  0
 22 24  2  0  0  0  0
 22 35  1  0  0  0  0
 23 24  1  0  0  0  0
 23 36  1  0  0  0  0
 24 37  1  0  0  0  0
M  CHG  2  14  -1  15  -1
M  END
$$$$
