HTS1710-01164312-01
 OpenBabel03232612353D

 42 45  0  0  1  0  0  0  0  0999 V2000
    4.2746   -7.5644  -31.2217 C   0  0  0  0  0  0  0  0  0  0  0  0
    5.0323   -8.4975  -31.9083 C   0  0  0  0  0  0  0  0  0  0  0  0
    3.9625  -10.2506  -30.4666 C   0  0  0  0  0  0  0  0  0  0  0  0
    3.2890   -9.2288  -29.8595 C   0  0  0  0  0  0  0  0  0  0  0  0
    4.7794   -9.9706  -31.7325 C   0  0  1  0  0  0  0  0  0  0  0  0
    3.3221   -7.9313  -30.3002 O   0  0  0  0  0  0  0  0  0  0  0  0
    4.4610   -6.1270  -31.4575 C   0  0  0  0  0  0  0  0  0  0  0  0
    6.0106   -8.1749  -32.8300 O   0  0  0  0  0  0  0  0  0  0  0  0
    4.0840  -10.5405  -32.9700 C   0  0  0  0  0  0  0  0  0  0  0  0
    5.5012   -5.8314  -32.4396 C   0  0  0  0  0  0  0  0  0  0  0  0
    3.9373  -11.6880  -29.9715 C   0  0  0  0  0  0  0  0  0  0  0  0
    6.2162   -6.8323  -33.0606 C   0  0  0  0  0  0  0  0  0  0  0  0
    2.6855  -10.7584  -32.9606 C   0  0  0  0  0  0  0  0  0  0  0  0
    2.0980  -11.2816  -34.1165 C   0  0  0  0  0  0  0  0  0  0  0  0
    2.8299  -11.5844  -35.2292 C   0  0  0  0  0  0  0  0  0  0  0  0
    0.7813  -11.5626  -34.3171 O   0  0  0  0  0  0  0  0  0  0  0  0
    2.0303  -12.0781  -36.2121 O   0  0  0  0  0  0  0  0  0  0  0  0
    2.5118   -9.4390  -28.7442 N   0  0  0  0  0  0  0  0  0  0  0  0
    4.8391  -10.8608  -34.1301 C   0  0  0  0  0  0  0  0  0  0  0  0
    0.6756  -12.0881  -35.6741 C   0  0  0  0  0  0  0  0  0  0  0  0
    3.8173   -5.2595  -30.8912 O   0  0  0  0  0  0  0  0  0  0  0  0
    3.3993  -12.0633  -28.9415 O   0  0  0  0  0  0  0  0  0  0  0  0
    4.2125  -11.3886  -35.2790 C   0  0  0  0  0  0  0  0  0  0  0  0
    4.5959  -12.5415  -30.8162 O   0  0  0  0  0  0  0  0  0  0  0  0
    7.2874   -6.4773  -34.0587 C   0  0  0  0  0  0  0  0  0  0  0  0
    6.7690   -6.4755  -35.3863 O   0  0  0  0  0  0  0  0  0  0  0  0
    4.5872  -13.9555  -30.5493 C   0  0  0  0  0  0  0  0  0  0  0  0
    5.7245  -10.4589  -31.6175 H   0  0  0  0  0  0  0  0  0  0  0  0
    5.7058   -4.8476  -32.6745 H   0  0  0  0  0  0  0  0  0  0  0  0
    2.1178  -10.5383  -32.1274 H   0  0  0  0  0  0  0  0  0  0  0  0
    2.0060   -8.6925  -28.3490 H   0  0  0  0  0  0  0  0  0  0  0  0
    2.4615  -10.3357  -28.3411 H   0  0  0  0  0  0  0  0  0  0  0  0
    5.8594  -10.7055  -34.1325 H   0  0  0  0  0  0  0  0  0  0  0  0
    0.0356  -11.4669  -36.2652 H   0  0  0  0  0  0  0  0  0  0  0  0
    0.2563  -13.0725  -35.6830 H   0  0  0  0  0  0  0  0  0  0  0  0
    4.7555  -11.6215  -36.1251 H   0  0  0  0  0  0  0  0  0  0  0  0
    8.0784   -7.1949  -33.9930 H   0  0  0  0  0  0  0  0  0  0  0  0
    7.6511   -5.4965  -33.8336 H   0  0  0  0  0  0  0  0  0  0  0  0
    6.0552   -5.8220  -35.4538 H   0  0  0  0  0  0  0  0  0  0  0  0
    5.1469  -14.4647  -31.3059 H   0  0  0  0  0  0  0  0  0  0  0  0
    3.5785  -14.3125  -30.5507 H   0  0  0  0  0  0  0  0  0  0  0  0
    5.0297  -14.1406  -29.5928 H   0  0  0  0  0  0  0  0  0  0  0  0
  1  2  2  0  0  0  0
  1  6  1  0  0  0  0
  1  7  1  0  0  0  0
  2  5  1  0  0  0  0
  2  8  1  0  0  0  0
  3  4  2  0  0  0  0
  3 11  1  0  0  0  0
  3  5  1  0  0  0  0
  4  6  1  0  0  0  0
  4 18  1  0  0  0  0
  5  9  1  0  0  0  0
  5 28  1  1  0  0  0
  7 10  1  0  0  0  0
  7 21  2  0  0  0  0
  8 12  1  0  0  0  0
  9 13  2  0  0  0  0
  9 19  1  0  0  0  0
 10 12  2  0  0  0  0
 10 29  1  0  0  0  0
 11 22  2  0  0  0  0
 11 24  1  0  0  0  0
 12 25  1  0  0  0  0
 13 14  1  0  0  0  0
 13 30  1  0  0  0  0
 14 16  1  0  0  0  0
 14 15  2  0  0  0  0
 15 23  1  0  0  0  0
 15 17  1  0  0  0  0
 16 20  1  0  0  0  0
 17 20  1  0  0  0  0
 18 31  1  0  0  0  0
 18 32  1  0  0  0  0
 19 23  2  0  0  0  0
 19 33  1  0  0  0  0
 20 34  1  0  0  0  0
 20 35  1  0  0  0  0
 23 36  1  0  0  0  0
 24 27  1  0  0  0  0
 25 26  1  0  0  0  0
 25 37  1  0  0  0  0
 25 38  1  0  0  0  0
 26 39  1  0  0  0  0
 27 40  1  0  0  0  0
 27 41  1  0  0  0  0
 27 42  1  0  0  0  0
M  END
$$$$
