HTS1710-04429402-01
 OpenBabel03232612343D

 44 45  0  0  0  0  0  0  0  0999 V2000
    5.7864   -7.9924  -33.0912 C   0  0  0  0  0  0  0  0  0  0  0  0
    3.4886  -13.2213  -28.9229 S   0  0  0  0  0  0  0  0  0  0  0  0
    6.1971   -7.3431  -34.2397 C   0  0  0  0  0  0  0  0  0  0  0  0
    5.5041   -9.2062  -34.9178 C   0  0  0  0  0  0  0  0  0  0  0  0
    6.0458   -8.0492  -35.4057 O   0  0  0  0  0  0  0  0  0  0  0  0
    5.3198   -9.2473  -33.5612 C   0  0  0  0  0  0  0  0  0  0  0  0
    5.7961   -7.5400  -31.6802 C   0  0  0  0  0  0  0  0  0  0  0  0
    2.7143  -10.8372  -35.5178 C   0  0  0  0  0  0  0  0  0  0  0  0
    2.5329  -13.4380  -30.4340 C   0  0  0  0  0  0  0  0  0  0  0  0
    4.0560  -11.1702  -35.3059 N   0  0  0  0  0  0  0  0  0  0  0  0
    5.1421  -10.3299  -35.8538 C   0  0  0  0  0  0  0  0  0  0  0  0
    2.4109  -12.3826  -31.3564 C   0  0  0  0  0  0  0  0  0  0  0  0
    2.5783  -13.2078  -27.7740 O   0  0  0  0  0  0  0  0  0  0  0  0
    4.4619  -12.1463  -29.1412 O   0  0  0  0  0  0  0  0  0  0  0  0
    1.6634  -11.7851  -34.9003 C   0  0  0  0  0  0  0  0  0  0  0  0
    5.9399   -6.3513  -31.4507 O   0  5  0  0  0  0  0  0  0  0  0  0
    2.3844   -9.8862  -36.2082 O   0  0  0  0  0  0  0  0  0  0  0  0
    1.5197  -11.5539  -33.4821 O   0  0  0  0  0  0  0  0  0  0  0  0
    1.6523  -12.5553  -32.5365 C   0  0  0  0  0  0  0  0  0  0  0  0
    5.6572   -8.3961  -30.8232 O   0  0  0  0  0  0  0  0  0  0  0  0
    4.4412  -14.7549  -28.8188 C   0  0  0  0  0  0  0  0  0  0  0  0
    6.7673   -5.9481  -34.3009 C   0  0  0  0  0  0  0  0  0  0  0  0
    1.8928  -14.6645  -30.6855 C   0  0  0  0  0  0  0  0  0  0  0  0
    4.4843  -12.4131  -34.6297 C   0  0  0  0  0  0  0  0  0  0  0  0
    1.1312  -14.8345  -31.8512 C   0  0  0  0  0  0  0  0  0  0  0  0
    1.0105  -13.7824  -32.7727 C   0  0  0  0  0  0  0  0  0  0  0  0
    4.9275  -10.0216  -33.0031 H   0  0  0  0  0  0  0  0  0  0  0  0
    4.8222   -9.9147  -36.7866 H   0  0  0  0  0  0  0  0  0  0  0  0
    6.0068  -10.9464  -35.9846 H   0  0  0  0  0  0  0  0  0  0  0  0
    2.8763  -11.4804  -31.1709 H   0  0  0  0  0  0  0  0  0  0  0  0
    1.9706  -12.7976  -35.0593 H   0  0  0  0  0  0  0  0  0  0  0  0
    0.7208  -11.5980  -35.3710 H   0  0  0  0  0  0  0  0  0  0  0  0
    3.7762  -15.5777  -28.6588 H   0  0  0  0  0  0  0  0  0  0  0  0
    5.1320  -14.6910  -28.0043 H   0  0  0  0  0  0  0  0  0  0  0  0
    4.9790  -14.9033  -29.7319 H   0  0  0  0  0  0  0  0  0  0  0  0
    6.8187   -5.5401  -33.3130 H   0  0  0  0  0  0  0  0  0  0  0  0
    6.1383   -5.3320  -34.9090 H   0  0  0  0  0  0  0  0  0  0  0  0
    7.7495   -5.9826  -34.7241 H   0  0  0  0  0  0  0  0  0  0  0  0
    1.9835  -15.4408  -30.0114 H   0  0  0  0  0  0  0  0  0  0  0  0
    3.6238  -12.9405  -34.2741 H   0  0  0  0  0  0  0  0  0  0  0  0
    5.1196  -12.1692  -33.8039 H   0  0  0  0  0  0  0  0  0  0  0  0
    5.0196  -13.0294  -35.3215 H   0  0  0  0  0  0  0  0  0  0  0  0
    0.6590  -15.7342  -32.0316 H   0  0  0  0  0  0  0  0  0  0  0  0
    0.4475  -13.9110  -33.6279 H   0  0  0  0  0  0  0  0  0  0  0  0
  1  3  2  0  0  0  0
  1  6  1  0  0  0  0
  1  7  1  0  0  0  0
  2  9  1  0  0  0  0
  2 13  2  0  0  0  0
  2 14  2  0  0  0  0
  2 21  1  0  0  0  0
  3  5  1  0  0  0  0
  3 22  1  0  0  0  0
  4  6  2  0  0  0  0
  4 11  1  0  0  0  0
  4  5  1  0  0  0  0
  6 27  1  0  0  0  0
  7 16  1  0  0  0  0
  7 20  2  0  0  0  0
  8 10  1  0  0  0  0
  8 15  1  0  0  0  0
  8 17  2  0  0  0  0
  9 12  2  0  0  0  0
  9 23  1  0  0  0  0
 10 11  1  0  0  0  0
 10 24  1  0  0  0  0
 11 28  1  0  0  0  0
 11 29  1  0  0  0  0
 12 19  1  0  0  0  0
 12 30  1  0  0  0  0
 15 18  1  0  0  0  0
 15 31  1  0  0  0  0
 15 32  1  0  0  0  0
 18 19  1  0  0  0  0
 19 26  2  0  0  0  0
 21 33  1  0  0  0  0
 21 34  1  0  0  0  0
 21 35  1  0  0  0  0
 22 36  1  0  0  0  0
 22 37  1  0  0  0  0
 22 38  1  0  0  0  0
 23 25  2  0  0  0  0
 23 39  1  0  0  0  0
 24 40  1  0  0  0  0
 24 41  1  0  0  0  0
 24 42  1  0  0  0  0
 25 26  1  0  0  0  0
 25 43  1  0  0  0  0
 26 44  1  0  0  0  0
M  CHG  1  16  -1
M  END
$$$$
