HTS1710-00236252-01
 OpenBabel03232612353D

 21 22  0  0  0  0  0  0  0  0999 V2000
    4.0942  -10.3121  -31.1832 C   0  0  0  0  0  0  0  0  0  0  0  0
    4.7944   -9.5181  -33.7682 C   0  0  0  0  0  0  0  0  0  0  0  0
    5.1603   -9.1062  -35.0761 C   0  0  0  0  0  0  0  0  0  0  0  0
    4.9633   -9.2089  -31.3451 C   0  0  0  0  0  0  0  0  0  0  0  0
    5.3173   -8.8041  -32.6553 C   0  0  0  0  0  0  0  0  0  0  0  0
    3.9760  -10.5784  -33.5876 N   0  0  0  0  0  0  0  0  0  0  0  0
    3.6503  -10.8207  -29.8334 C   0  0  0  0  0  0  0  0  0  0  0  0
    4.6452   -9.8141  -36.3005 C   0  0  0  0  0  0  0  0  0  0  0  0
    3.6375  -10.9600  -32.3431 C   0  0  0  0  0  0  0  0  0  0  0  0
    4.0883  -10.2395  -28.8553 O   0  5  0  0  0  0  0  0  0  0  0  0
    4.8621  -11.0110  -36.3756 O   0  5  0  0  0  0  0  0  0  0  0  0
    5.4760   -8.5589  -30.2538 O   0  5  0  0  0  0  0  0  0  0  0  0
    4.0655   -9.1436  -37.1375 O   0  0  0  0  0  0  0  0  0  0  0  0
    2.9026  -11.7831  -29.8027 O   0  0  0  0  0  0  0  0  0  0  0  0
    6.0307   -8.0180  -35.2589 C   0  0  0  0  0  0  0  0  0  0  0  0
    6.1856   -7.7096  -32.8622 C   0  0  0  0  0  0  0  0  0  0  0  0
    6.5395   -7.3209  -34.1582 C   0  0  0  0  0  0  0  0  0  0  0  0
    3.0091  -11.7715  -32.2345 H   0  0  0  0  0  0  0  0  0  0  0  0
    6.2969   -7.7307  -36.2137 H   0  0  0  0  0  0  0  0  0  0  0  0
    6.5615   -7.1932  -32.0516 H   0  0  0  0  0  0  0  0  0  0  0  0
    7.1751   -6.5207  -34.3022 H   0  0  0  0  0  0  0  0  0  0  0  0
  1  4  2  0  0  0  0
  1  7  1  0  0  0  0
  1  9  1  0  0  0  0
  2  6  1  0  0  0  0
  2  3  2  0  0  0  0
  2  5  1  0  0  0  0
  3  8  1  0  0  0  0
  3 15  1  0  0  0  0
  4  5  1  0  0  0  0
  4 12  1  0  0  0  0
  5 16  2  0  0  0  0
  6  9  2  0  0  0  0
  7 10  1  0  0  0  0
  7 14  2  0  0  0  0
  8 11  1  0  0  0  0
  8 13  2  0  0  0  0
  9 18  1  0  0  0  0
 15 17  2  0  0  0  0
 15 19  1  0  0  0  0
 16 17  1  0  0  0  0
 16 20  1  0  0  0  0
 17 21  1  0  0  0  0
M  CHG  3  10  -1  11  -1  12  -1
M  END
$$$$
