HTS1710-00094557-01
 OpenBabel03232612343D

 48 47  0  0  0  0  0  0  0  0999 V2000
    0.0392   -8.4530  -34.0838 C   0  0  0  0  0  0  0  0  0  0  0  0
    2.7504   -9.2695  -37.3244 C   0  0  0  0  0  0  0  0  0  0  0  0
    6.1762  -14.1620  -27.5639 C   0  0  0  0  0  0  0  0  0  0  0  0
    3.7385  -11.1563  -28.6422 C   0  0  0  0  0  0  0  0  0  0  0  0
    1.0649  -10.0760  -35.7096 N   0  3  0  0  0  0  0  0  0  0  0  0
    3.8959  -13.5918  -28.3410 N   0  3  0  0  0  0  0  0  0  0  0  0
    1.8707   -8.5854  -37.8164 O   0  5  0  0  0  0  0  0  0  0  0  0
   -1.0047   -8.5481  -34.7042 O   0  5  0  0  0  0  0  0  0  0  0  0
    6.2756  -14.9590  -26.6485 O   0  5  0  0  0  0  0  0  0  0  0  0
    2.8248  -10.9580  -27.8620 O   0  5  0  0  0  0  0  0  0  0  0  0
    2.3133  -10.4159  -36.4209 C   0  0  0  0  0  0  0  0  0  0  0  0
    1.3107   -8.9449  -34.7804 C   0  0  0  0  0  0  0  0  0  0  0  0
    5.0903  -14.4205  -28.6062 C   0  0  0  0  0  0  0  0  0  0  0  0
    3.7712  -12.5090  -29.3381 C   0  0  0  0  0  0  0  0  0  0  0  0
    6.8654  -13.1724  -27.7230 O   0  0  0  0  0  0  0  0  0  0  0  0
    0.1612   -7.9921  -32.9643 O   0  0  0  0  0  0  0  0  0  0  0  0
    4.6251  -10.3700  -28.9214 O   0  0  0  0  0  0  0  0  0  0  0  0
    3.9463   -9.1187  -37.4881 O   0  0  0  0  0  0  0  0  0  0  0  0
    1.0738  -14.3352  -30.1017 O   0  0  0  0  0  0  0  0  0  0  0  0
    0.9458  -12.9416  -33.3063 O   0  0  0  0  0  0  0  0  0  0  0  0
    2.6526  -14.4007  -28.2182 C   0  0  0  0  0  0  0  0  0  0  0  0
    0.5246  -11.2742  -35.0194 C   0  0  0  0  0  0  0  0  0  0  0  0
    1.3925  -11.6687  -33.7989 C   0  0  0  0  0  0  0  0  0  0  0  0
    2.1682  -15.0721  -29.5354 C   0  0  0  0  0  0  0  0  0  0  0  0
    1.7384  -13.5267  -32.2588 C   0  0  0  0  0  0  0  0  0  0  0  0
    0.8499  -14.5331  -31.5081 C   0  0  0  0  0  0  0  0  0  0  0  0
    0.3555   -9.7744  -36.3775 H   0  0  0  0  0  0  0  0  0  0  0  0
    4.0277  -13.1534  -27.4295 H   0  0  0  0  0  0  0  0  0  0  0  0
    3.0834  -10.6109  -35.7042 H   0  0  0  0  0  0  0  0  0  0  0  0
    2.1390  -11.2816  -37.0251 H   0  0  0  0  0  0  0  0  0  0  0  0
    1.7305   -8.1326  -35.3361 H   0  0  0  0  0  0  0  0  0  0  0  0
    1.9762   -9.2957  -34.0195 H   0  0  0  0  0  0  0  0  0  0  0  0
    4.8137  -15.4537  -28.5749 H   0  0  0  0  0  0  0  0  0  0  0  0
    5.4756  -14.1654  -29.5714 H   0  0  0  0  0  0  0  0  0  0  0  0
    4.6077  -12.5437  -30.0043 H   0  0  0  0  0  0  0  0  0  0  0  0
    2.8621  -12.6419  -29.8866 H   0  0  0  0  0  0  0  0  0  0  0  0
    1.8724  -13.7578  -27.8676 H   0  0  0  0  0  0  0  0  0  0  0  0
    2.8825  -15.1992  -27.5441 H   0  0  0  0  0  0  0  0  0  0  0  0
    0.5031  -12.0920  -35.7090 H   0  0  0  0  0  0  0  0  0  0  0  0
   -0.4598  -11.0435  -34.6695 H   0  0  0  0  0  0  0  0  0  0  0  0
    2.4186  -11.7373  -34.0942 H   0  0  0  0  0  0  0  0  0  0  0  0
    1.2994  -10.9286  -33.0318 H   0  0  0  0  0  0  0  0  0  0  0  0
    1.8484  -16.0712  -29.3246 H   0  0  0  0  0  0  0  0  0  0  0  0
    2.9770  -15.0842  -30.2358 H   0  0  0  0  0  0  0  0  0  0  0  0
    2.0742  -12.7647  -31.5868 H   0  0  0  0  0  0  0  0  0  0  0  0
    2.5975  -14.0165  -32.6675 H   0  0  0  0  0  0  0  0  0  0  0  0
   -0.1794  -14.3593  -31.7430 H   0  0  0  0  0  0  0  0  0  0  0  0
    1.0902  -15.5362  -31.7925 H   0  0  0  0  0  0  0  0  0  0  0  0
  1  8  1  0  0  0  0
  1 12  1  0  0  0  0
  1 16  2  0  0  0  0
  2 11  1  0  0  0  0
  2  7  1  0  0  0  0
  2 18  2  0  0  0  0
  3 13  1  0  0  0  0
  3  9  1  0  0  0  0
  3 15  2  0  0  0  0
  4 14  1  0  0  0  0
  4 10  1  0  0  0  0
  4 17  2  0  0  0  0
  5 12  1  0  0  0  0
  5 11  1  0  0  0  0
  5 22  1  0  0  0  0
  5 27  1  0  0  0  0
  6 21  1  0  0  0  0
  6 13  1  0  0  0  0
  6 14  1  0  0  0  0
  6 28  1  0  0  0  0
 11 29  1  0  0  0  0
 11 30  1  0  0  0  0
 12 31  1  0  0  0  0
 12 32  1  0  0  0  0
 13 33  1  0  0  0  0
 13 34  1  0  0  0  0
 14 35  1  0  0  0  0
 14 36  1  0  0  0  0
 19 26  1  0  0  0  0
 19 24  1  0  0  0  0
 20 23  1  0  0  0  0
 20 25  1  0  0  0  0
 21 24  1  0  0  0  0
 21 37  1  0  0  0  0
 21 38  1  0  0  0  0
 22 23  1  0  0  0  0
 22 39  1  0  0  0  0
 22 40  1  0  0  0  0
 23 41  1  0  0  0  0
 23 42  1  0  0  0  0
 24 43  1  0  0  0  0
 24 44  1  0  0  0  0
 25 26  1  0  0  0  0
 25 45  1  0  0  0  0
 25 46  1  0  0  0  0
 26 47  1  0  0  0  0
 26 48  1  0  0  0  0
M  CHG  6   5   1   6   1   7  -1   8  -1   9  -1  10  -1
M  END
$$$$
