HTS1710-04760776-01
 OpenBabel03232612353D

 39 41  0  0  0  0  0  0  0  0999 V2000
    1.7452  -10.6411  -34.6843 C   0  0  0  0  0  0  0  0  0  0  0  0
    3.0040  -10.1667  -34.0734 N   0  0  0  0  0  0  0  0  0  0  0  0
    4.1839  -11.0250  -34.3773 C   0  0  0  0  0  0  0  0  0  0  0  0
    4.6639  -10.8967  -35.8441 C   0  0  0  0  0  0  0  0  0  0  0  0
    4.6318   -9.4418  -36.3247 C   0  0  0  0  0  0  0  0  0  0  0  0
    3.7951   -9.1515  -37.1621 O   0  5  0  0  0  0  0  0  0  0  0  0
    5.4587   -8.6795  -35.8555 O   0  0  0  0  0  0  0  0  0  0  0  0
    2.9572   -9.1582  -33.0947 C   0  0  0  0  0  0  0  0  0  0  0  0
    1.9672   -8.4565  -32.9655 O   0  0  0  0  0  0  0  0  0  0  0  0
    4.1951   -8.9244  -32.2880 C   0  0  0  0  0  0  0  0  0  0  0  0
    5.1425   -7.9932  -32.5881 N   0  0  0  0  0  0  0  0  0  0  0  0
    5.9120   -7.9511  -31.5144 C   0  0  0  0  0  0  0  0  0  0  0  0
    5.5608   -8.7679  -30.4612 O   0  0  0  0  0  0  0  0  0  0  0  0
    4.4767   -9.3811  -31.0231 C   0  0  0  0  0  0  0  0  0  0  0  0
    3.8085  -10.4945  -30.3202 C   0  0  0  0  0  0  0  0  0  0  0  0
    3.4642  -10.3215  -28.9610 C   0  0  0  0  0  0  0  0  0  0  0  0
    2.8488  -11.3528  -28.2327 C   0  0  0  0  0  0  0  0  0  0  0  0
    2.5931  -12.5842  -28.8485 C   0  0  0  0  0  0  0  0  0  0  0  0
    2.0121  -13.6081  -28.1330 O   0  0  0  0  0  0  0  0  0  0  0  0
    2.0799  -14.9527  -28.6520 C   0  0  0  0  0  0  0  0  0  0  0  0
    1.7766  -14.9109  -30.1678 C   0  0  0  0  0  0  0  0  0  0  0  0
    2.6986  -13.9956  -30.7953 O   0  0  0  0  0  0  0  0  0  0  0  0
    2.9502  -12.7819  -30.1945 C   0  0  0  0  0  0  0  0  0  0  0  0
    3.5747  -11.7543  -30.9189 C   0  0  0  0  0  0  0  0  0  0  0  0
    1.9626  -11.4035  -35.4029 H   0  0  0  0  0  0  0  0  0  0  0  0
    1.2538   -9.8237  -35.1693 H   0  0  0  0  0  0  0  0  0  0  0  0
    1.1075  -11.0398  -33.9232 H   0  0  0  0  0  0  0  0  0  0  0  0
    3.9197  -12.0453  -34.1929 H   0  0  0  0  0  0  0  0  0  0  0  0
    4.9863  -10.7002  -33.7483 H   0  0  0  0  0  0  0  0  0  0  0  0
    4.0252  -11.4833  -36.4708 H   0  0  0  0  0  0  0  0  0  0  0  0
    5.6749  -11.2435  -35.8963 H   0  0  0  0  0  0  0  0  0  0  0  0
    6.7383   -7.3347  -31.4667 H   0  0  0  0  0  0  0  0  0  0  0  0
    3.6680   -9.4230  -28.4960 H   0  0  0  0  0  0  0  0  0  0  0  0
    2.5858  -11.2035  -27.2461 H   0  0  0  0  0  0  0  0  0  0  0  0
    1.3579  -15.5675  -28.1565 H   0  0  0  0  0  0  0  0  0  0  0  0
    3.0548  -15.3609  -28.4848 H   0  0  0  0  0  0  0  0  0  0  0  0
    0.7726  -14.5763  -30.3256 H   0  0  0  0  0  0  0  0  0  0  0  0
    1.8861  -15.8878  -30.5901 H   0  0  0  0  0  0  0  0  0  0  0  0
    3.8652  -11.9193  -31.8953 H   0  0  0  0  0  0  0  0  0  0  0  0
  1  2  1  0  0  0  0
  1 25  1  0  0  0  0
  1 26  1  0  0  0  0
  1 27  1  0  0  0  0
  2  3  1  0  0  0  0
  2  8  1  0  0  0  0
  3  4  1  0  0  0  0
  3 28  1  0  0  0  0
  3 29  1  0  0  0  0
  4  5  1  0  0  0  0
  4 30  1  0  0  0  0
  4 31  1  0  0  0  0
  5  6  1  0  0  0  0
  5  7  2  0  0  0  0
  8  9  2  0  0  0  0
  8 10  1  0  0  0  0
 10 11  1  0  0  0  0
 10 14  2  0  0  0  0
 11 12  2  0  0  0  0
 12 13  1  0  0  0  0
 12 32  1  0  0  0  0
 13 14  1  0  0  0  0
 14 15  1  0  0  0  0
 15 16  2  0  0  0  0
 15 24  1  0  0  0  0
 16 17  1  0  0  0  0
 16 33  1  0  0  0  0
 17 18  2  0  0  0  0
 17 34  1  0  0  0  0
 18 19  1  0  0  0  0
 18 23  1  0  0  0  0
 19 20  1  0  0  0  0
 20 21  1  0  0  0  0
 20 35  1  0  0  0  0
 20 36  1  0  0  0  0
 21 22  1  0  0  0  0
 21 37  1  0  0  0  0
 21 38  1  0  0  0  0
 22 23  1  0  0  0  0
 23 24  2  0  0  0  0
 24 39  1  0  0  0  0
M  CHG  1   6  -1
M  END
$$$$
