HTS1710-01263766-01
 OpenBabel03232612353D

 46 48  0  0  1  0  0  0  0  0999 V2000
    1.9613   -8.6980  -32.6899 C   0  0  0  0  0  0  0  0  0  0  0  0
    3.9954   -7.6066  -31.7202 C   0  0  0  0  0  0  0  0  0  0  0  0
    5.1341   -8.0068  -32.4097 C   0  0  0  0  0  0  0  0  0  0  0  0
    0.6153   -8.3739  -32.6322 C   0  0  0  0  0  0  0  0  0  0  0  0
    2.8398   -8.5603  -31.4557 C   0  0  2  0  0  0  0  0  0  0  0  0
    6.2364   -7.0722  -32.6831 C   0  0  0  0  0  0  0  0  0  0  0  0
   -0.2539   -8.4814  -33.8148 C   0  0  0  0  0  0  0  0  0  0  0  0
    3.8054   -6.3216  -31.2503 O   0  0  0  0  0  0  0  0  0  0  0  0
    2.5935   -9.1246  -33.8432 O   0  0  0  0  0  0  0  0  0  0  0  0
    5.9808   -5.7297  -32.1642 C   0  0  0  0  0  0  0  0  0  0  0  0
    0.4656   -8.9386  -35.0038 C   0  0  0  0  0  0  0  0  0  0  0  0
    1.8134   -9.2248  -34.9736 C   0  0  0  0  0  0  0  0  0  0  0  0
    4.8179   -5.4169  -31.4953 C   0  0  0  0  0  0  0  0  0  0  0  0
    3.2453   -9.9192  -30.8529 C   0  0  0  0  0  0  0  0  0  0  0  0
    7.2600   -7.3677  -33.2769 O   0  0  0  0  0  0  0  0  0  0  0  0
   -1.4455   -8.2190  -33.8220 O   0  0  0  0  0  0  0  0  0  0  0  0
    5.3512   -9.2566  -32.8774 O   0  0  0  0  0  0  0  0  0  0  0  0
   -0.0169   -7.9276  -31.5217 O   0  0  0  0  0  0  0  0  0  0  0  0
    3.3158  -11.1050  -31.6177 C   0  0  0  0  0  0  0  0  0  0  0  0
    3.5901   -9.9784  -29.4871 C   0  0  0  0  0  0  0  0  0  0  0  0
    3.9731  -11.1907  -28.8927 C   0  0  0  0  0  0  0  0  0  0  0  0
    3.6996  -12.3171  -31.0209 C   0  0  0  0  0  0  0  0  0  0  0  0
    4.0290  -12.3674  -29.6563 C   0  0  0  0  0  0  0  0  0  0  0  0
    2.5126   -9.6742  -36.2288 C   0  0  0  0  0  0  0  0  0  0  0  0
    4.6033   -4.0164  -30.9828 C   0  0  0  0  0  0  0  0  0  0  0  0
    3.9160   -9.4414  -36.1439 O   0  0  0  0  0  0  0  0  0  0  0  0
    3.7832   -4.0161  -29.8191 O   0  0  0  0  0  0  0  0  0  0  0  0
    4.4429  -13.6817  -29.0092 C   0  0  0  0  0  0  0  0  0  0  0  0
    2.2579   -8.1087  -30.6795 H   0  0  0  0  0  0  0  0  0  0  0  0
    6.6920   -4.9949  -32.3031 H   0  0  0  0  0  0  0  0  0  0  0  0
   -0.0508   -9.0499  -35.8903 H   0  0  0  0  0  0  0  0  0  0  0  0
    4.7386   -9.9402  -32.6892 H   0  0  0  0  0  0  0  0  0  0  0  0
   -0.9145   -7.6628  -31.5679 H   0  0  0  0  0  0  0  0  0  0  0  0
    3.0835  -11.0803  -32.6229 H   0  0  0  0  0  0  0  0  0  0  0  0
    3.5605   -9.1188  -28.9169 H   0  0  0  0  0  0  0  0  0  0  0  0
    4.2146  -11.2172  -27.8898 H   0  0  0  0  0  0  0  0  0  0  0  0
    3.7398  -13.1775  -31.5894 H   0  0  0  0  0  0  0  0  0  0  0  0
    2.1178   -9.1317  -37.0624 H   0  0  0  0  0  0  0  0  0  0  0  0
    2.3483  -10.7242  -36.3528 H   0  0  0  0  0  0  0  0  0  0  0  0
    4.1287   -3.4344  -31.7449 H   0  0  0  0  0  0  0  0  0  0  0  0
    5.5547   -3.5985  -30.7279 H   0  0  0  0  0  0  0  0  0  0  0  0
    4.2855   -9.9574  -35.4104 H   0  0  0  0  0  0  0  0  0  0  0  0
    3.6487   -3.1037  -29.5186 H   0  0  0  0  0  0  0  0  0  0  0  0
    4.6529  -13.5184  -27.9727 H   0  0  0  0  0  0  0  0  0  0  0  0
    5.3185  -14.0585  -29.4954 H   0  0  0  0  0  0  0  0  0  0  0  0
    3.6484  -14.3919  -29.1046 H   0  0  0  0  0  0  0  0  0  0  0  0
  1  4  2  0  0  0  0
  1  5  1  0  0  0  0
  1  9  1  0  0  0  0
  2  5  1  0  0  0  0
  2  3  2  0  0  0  0
  2  8  1  0  0  0  0
  3  6  1  0  0  0  0
  3 17  1  0  0  0  0
  4  7  1  0  0  0  0
  4 18  1  0  0  0  0
  5 14  1  0  0  0  0
  5 29  1  1  0  0  0
  6 15  2  0  0  0  0
  6 10  1  0  0  0  0
  7 16  2  0  0  0  0
  7 11  1  0  0  0  0
  8 13  1  0  0  0  0
  9 12  1  0  0  0  0
 10 13  2  0  0  0  0
 10 30  1  0  0  0  0
 11 12  2  0  0  0  0
 11 31  1  0  0  0  0
 12 24  1  0  0  0  0
 13 25  1  0  0  0  0
 14 19  2  0  0  0  0
 14 20  1  0  0  0  0
 17 32  1  0  0  0  0
 18 33  1  0  0  0  0
 19 22  1  0  0  0  0
 19 34  1  0  0  0  0
 20 21  2  0  0  0  0
 20 35  1  0  0  0  0
 21 23  1  0  0  0  0
 21 36  1  0  0  0  0
 22 23  2  0  0  0  0
 22 37  1  0  0  0  0
 23 28  1  0  0  0  0
 24 26  1  0  0  0  0
 24 38  1  0  0  0  0
 24 39  1  0  0  0  0
 25 27  1  0  0  0  0
 25 40  1  0  0  0  0
 25 41  1  0  0  0  0
 26 42  1  0  0  0  0
 27 43  1  0  0  0  0
 28 44  1  0  0  0  0
 28 45  1  0  0  0  0
 28 46  1  0  0  0  0
M  END
$$$$
