HTS1710-01161132-01
 OpenBabel03232612363D

 32 33  0  0  0  0  0  0  0  0999 V2000
    2.8533  -12.8015  -30.6693 N   0  0  0  0  0  0  0  0  0  0  0  0
    1.9318  -13.7797  -30.3315 C   0  0  0  0  0  0  0  0  0  0  0  0
    2.7419  -12.3340  -31.9751 C   0  0  0  0  0  0  0  0  0  0  0  0
    1.6259  -13.0235  -32.6684 C   0  0  0  0  0  0  0  0  0  0  0  0
    3.4339   -9.5466  -29.3033 S   0  0  0  0  0  0  0  0  0  0  0  0
    0.8080  -14.1994  -31.6551 S   0  0  0  0  0  0  0  0  0  0  0  0
    3.8395  -12.2732  -29.7083 C   0  0  0  0  0  0  0  0  0  0  0  0
    1.3018  -12.7289  -33.9778 C   0  0  0  0  0  0  0  0  0  0  0  0
    3.2110  -11.2542  -28.7345 C   0  0  0  0  0  0  0  0  0  0  0  0
    3.5321   -9.1405  -38.0343 C   0  0  0  0  0  0  0  0  0  0  0  0
    1.8423  -14.5284  -28.8339 S   0  0  0  0  0  0  0  0  0  0  0  0
    2.5245   -9.4361  -30.4315 O   0  0  0  0  0  0  0  0  0  0  0  0
    4.8428   -9.4935  -29.6527 O   0  0  0  0  0  0  0  0  0  0  0  0
    3.4644  -11.4790  -32.4616 O   0  0  0  0  0  0  0  0  0  0  0  0
    2.9364  -10.0683  -36.9989 C   0  0  0  0  0  0  0  0  0  0  0  0
    2.9397   -9.0242  -39.0942 O   0  5  0  0  0  0  0  0  0  0  0  0
    3.0660   -8.7514  -28.1436 O   0  0  0  0  0  1  0  0  0  0  0  0
    1.8172  -11.8023  -35.0337 C   0  0  0  0  0  0  0  0  0  0  0  0
    1.5621  -10.0199  -36.6917 C   0  0  0  0  0  0  0  0  0  0  0  0
    3.7441  -10.9998  -36.3167 C   0  0  0  0  0  0  0  0  0  0  0  0
    4.5693   -8.5679  -37.7470 O   0  0  0  0  0  0  0  0  0  0  0  0
    3.1897  -11.8518  -35.3488 C   0  0  0  0  0  0  0  0  0  0  0  0
    1.0093  -10.8737  -35.7239 C   0  0  0  0  0  0  0  0  0  0  0  0
    4.6267  -11.7923  -30.2506 H   0  0  0  0  0  0  0  0  0  0  0  0
    4.2114  -13.0944  -29.1319 H   0  0  0  0  0  0  0  0  0  0  0  0
    0.5024  -13.2890  -34.3127 H   0  0  0  0  0  0  0  0  0  0  0  0
    2.1638  -11.4568  -28.6507 H   0  0  0  0  0  0  0  0  0  0  0  0
    3.7009  -11.3547  -27.7885 H   0  0  0  0  0  0  0  0  0  0  0  0
    0.9537   -9.3476  -37.1847 H   0  0  0  0  0  0  0  0  0  0  0  0
    4.7520  -11.0562  -36.5306 H   0  0  0  0  0  0  0  0  0  0  0  0
    3.7981  -12.5264  -34.8591 H   0  0  0  0  0  0  0  0  0  0  0  0
    0.0001  -10.8216  -35.5148 H   0  0  0  0  0  0  0  0  0  0  0  0
  1  2  1  0  0  0  0
  1  3  1  0  0  0  0
  1  7  1  0  0  0  0
  2  6  1  0  0  0  0
  2 11  2  0  0  0  0
  3  4  1  0  0  0  0
  3 14  2  0  0  0  0
  4  8  2  0  0  0  0
  4  6  1  0  0  0  0
  5  9  1  0  0  0  0
  5 12  2  0  0  0  0
  5 13  2  0  0  0  0
  5 17  1  0  0  0  0
  7  9  1  0  0  0  0
  7 24  1  0  0  0  0
  7 25  1  0  0  0  0
  8 18  1  0  0  0  0
  8 26  1  0  0  0  0
  9 27  1  0  0  0  0
  9 28  1  0  0  0  0
 10 15  1  0  0  0  0
 10 16  1  0  0  0  0
 10 21  2  0  0  0  0
 15 19  2  0  0  0  0
 15 20  1  0  0  0  0
 18 22  1  0  0  0  0
 18 23  2  0  0  0  0
 19 23  1  0  0  0  0
 19 29  1  0  0  0  0
 20 22  2  0  0  0  0
 20 30  1  0  0  0  0
 22 31  1  0  0  0  0
 23 32  1  0  0  0  0
M  CHG  1  16  -1
M  END
$$$$
