HTS1710-05221619-01
 OpenBabel03232612363D

 38 39  0  0  0  0  0  0  0  0999 V2000
    1.9567  -10.4791  -35.5322 C   0  0  0  0  0  0  0  0  0  0  0  0
    3.0732  -11.2790  -34.9876 N   0  0  0  0  0  0  0  0  0  0  0  0
    4.4134  -10.8642  -35.4558 C   0  0  0  0  0  0  0  0  0  0  0  0
    4.9849   -9.7532  -34.6165 C   0  0  0  0  0  0  0  0  0  0  0  0
    4.8021   -9.6376  -33.2646 C   0  0  0  0  0  0  0  0  0  0  0  0
    5.5087   -8.4613  -32.9009 C   0  0  0  0  0  0  0  0  0  0  0  0
    5.6183   -7.8988  -31.5334 C   0  0  0  0  0  0  0  0  0  0  0  0
    5.4916   -8.6501  -30.5826 O   0  5  0  0  0  0  0  0  0  0  0  0
    5.8321   -6.7022  -31.4427 O   0  0  0  0  0  0  0  0  0  0  0  0
    6.0345   -8.0084  -34.0955 C   0  0  0  0  0  0  0  0  0  0  0  0
    6.8809   -6.7737  -34.2729 C   0  0  0  0  0  0  0  0  0  0  0  0
    5.7408   -8.7729  -35.1968 O   0  0  0  0  0  0  0  0  0  0  0  0
    2.9126  -12.3727  -34.1234 C   0  0  0  0  0  0  0  0  0  0  0  0
    3.8658  -13.0194  -33.7224 O   0  0  0  0  0  0  0  0  0  0  0  0
    1.5194  -12.7303  -33.6938 C   0  0  0  0  0  0  0  0  0  0  0  0
    1.1615  -13.0979  -32.4385 C   0  0  0  0  0  0  0  0  0  0  0  0
    2.0434  -13.2154  -31.2821 C   0  0  0  0  0  0  0  0  0  0  0  0
    2.9682  -12.2426  -30.8121 C   0  0  0  0  0  0  0  0  0  0  0  0
    3.6095  -12.6735  -29.7405 N   0  0  0  0  0  0  0  0  0  0  0  0
    3.1044  -13.9255  -29.5120 N   0  0  0  0  0  0  0  0  0  0  0  0
    3.5849  -14.7261  -28.3808 C   0  0  0  0  0  0  0  0  0  0  0  0
    2.1434  -14.2844  -30.4389 C   0  0  0  0  0  0  0  0  0  0  0  0
    2.3455   -9.7065  -36.1622 H   0  0  0  0  0  0  0  0  0  0  0  0
    1.4068  -10.0393  -34.7264 H   0  0  0  0  0  0  0  0  0  0  0  0
    1.3092  -11.1121  -36.1022 H   0  0  0  0  0  0  0  0  0  0  0  0
    4.3366  -10.5276  -36.4686 H   0  0  0  0  0  0  0  0  0  0  0  0
    5.0669  -11.7078  -35.3768 H   0  0  0  0  0  0  0  0  0  0  0  0
    4.2679  -10.2675  -32.6459 H   0  0  0  0  0  0  0  0  0  0  0  0
    7.0159   -6.2947  -33.3258 H   0  0  0  0  0  0  0  0  0  0  0  0
    6.3931   -6.1006  -34.9466 H   0  0  0  0  0  0  0  0  0  0  0  0
    7.8344   -7.0493  -34.6724 H   0  0  0  0  0  0  0  0  0  0  0  0
    0.7765  -12.6936  -34.4091 H   0  0  0  0  0  0  0  0  0  0  0  0
    0.1646  -13.3166  -32.2858 H   0  0  0  0  0  0  0  0  0  0  0  0
    3.1185  -11.3207  -31.2508 H   0  0  0  0  0  0  0  0  0  0  0  0
    4.3309  -14.1763  -27.8460 H   0  0  0  0  0  0  0  0  0  0  0  0
    4.0072  -15.6396  -28.7442 H   0  0  0  0  0  0  0  0  0  0  0  0
    2.7671  -14.9465  -27.7270 H   0  0  0  0  0  0  0  0  0  0  0  0
    1.6152  -15.1699  -30.4838 H   0  0  0  0  0  0  0  0  0  0  0  0
  1  2  1  0  0  0  0
  1 23  1  0  0  0  0
  1 24  1  0  0  0  0
  1 25  1  0  0  0  0
  2  3  1  0  0  0  0
  2 13  1  0  0  0  0
  3  4  1  0  0  0  0
  3 26  1  0  0  0  0
  3 27  1  0  0  0  0
  4  5  2  0  0  0  0
  4 12  1  0  0  0  0
  5  6  1  0  0  0  0
  5 28  1  0  0  0  0
  6  7  1  0  0  0  0
  6 10  2  0  0  0  0
  7  8  1  0  0  0  0
  7  9  2  0  0  0  0
 10 11  1  0  0  0  0
 10 12  1  0  0  0  0
 11 29  1  0  0  0  0
 11 30  1  0  0  0  0
 11 31  1  0  0  0  0
 13 14  2  0  0  0  0
 13 15  1  0  0  0  0
 15 16  2  0  0  0  0
 15 32  1  0  0  0  0
 16 17  1  0  0  0  0
 16 33  1  0  0  0  0
 17 18  1  0  0  0  0
 17 22  2  0  0  0  0
 18 19  2  0  0  0  0
 18 34  1  0  0  0  0
 19 20  1  0  0  0  0
 20 21  1  0  0  0  0
 20 22  1  0  0  0  0
 21 35  1  0  0  0  0
 21 36  1  0  0  0  0
 21 37  1  0  0  0  0
 22 38  1  0  0  0  0
M  CHG  1   8  -1
M  END
$$$$
