HTS1710-01254692-01
 OpenBabel03232612363D

 52 53  0  0  1  0  0  0  0  0999 V2000
    3.8733   -6.9611  -31.6717 N   0  0  0  0  0  0  0  0  0  0  0  0
    4.4163   -8.2443  -31.8281 C   0  0  0  0  0  0  0  0  0  0  0  0
    3.0331   -4.6993  -30.2118 N   0  0  0  0  0  0  0  0  0  0  0  0
    4.6348   -5.7429  -31.7436 C   0  0  0  0  0  0  0  0  0  0  0  0
    3.5905   -9.3560  -31.7017 N   0  0  0  0  0  0  0  0  0  0  0  0
    4.1054  -11.1706  -33.3258 C   0  0  0  0  0  0  0  0  0  0  0  0
    4.2024   -4.6186  -31.0033 C   0  0  0  0  0  0  0  0  0  0  0  0
    2.1898   -5.6680  -30.3743 C   0  0  0  0  0  0  0  0  0  0  0  0
    3.8635  -10.1999  -34.2872 N   0  0  0  0  0  0  0  0  0  0  0  0
    3.8591  -10.4870  -35.7281 C   0  0  1  0  0  0  0  0  0  0  0  0
    2.3948  -10.6798  -36.2215 C   0  0  0  0  0  0  0  0  0  0  0  0
    4.0808  -10.7351  -31.8509 C   0  0  2  0  0  0  0  0  0  0  0  0
    2.4267   -6.7908  -31.3733 C   0  0  0  0  0  0  0  0  0  0  0  0
    4.5907   -9.3432  -36.4527 C   0  0  0  0  0  0  0  0  0  0  0  0
    1.4839   -9.4794  -35.9211 C   0  0  0  0  0  0  0  0  0  0  0  0
    5.5992   -8.4292  -32.0654 O   0  0  0  0  0  0  0  0  0  0  0  0
    4.3117  -12.3264  -33.6611 O   0  0  0  0  0  0  0  0  0  0  0  0
    5.4611   -8.7476  -35.8387 O   0  5  0  0  0  0  0  0  0  0  0  0
    3.2715  -11.7188  -30.9570 C   0  0  0  0  0  0  0  0  0  0  0  0
    0.9411   -9.4446  -34.8302 O   0  5  0  0  0  0  0  0  0  0  0  0
    1.0743   -5.7448  -29.6380 O   0  0  0  0  0  0  0  0  0  0  0  0
    4.2656   -9.1209  -37.6057 O   0  0  0  0  0  0  0  0  0  0  0  0
    1.3688   -8.6362  -36.7937 O   0  0  0  0  0  0  0  0  0  0  0  0
    5.7648   -5.6145  -32.5818 C   0  0  0  0  0  0  0  0  0  0  0  0
    4.9296   -3.4171  -31.0498 C   0  0  0  0  0  0  0  0  0  0  0  0
    3.9753  -12.2029  -29.6466 C   0  0  0  0  0  0  0  0  0  0  0  0
    3.9866  -13.7461  -29.4890 C   0  0  0  0  0  0  0  0  0  0  0  0
    3.3065  -11.5487  -28.4136 C   0  0  0  0  0  0  0  0  0  0  0  0
    6.4820   -4.4090  -32.6295 C   0  0  0  0  0  0  0  0  0  0  0  0
    6.0724   -3.3136  -31.8566 C   0  0  0  0  0  0  0  0  0  0  0  0
    2.6366   -9.2140  -31.5039 H   0  0  0  0  0  0  0  0  0  0  0  0
    3.6871   -9.2778  -33.9908 H   0  0  0  0  0  0  0  0  0  0  0  0
    4.3760  -11.3986  -35.9441 H   0  0  0  0  0  0  0  0  0  0  0  0
    1.9862  -11.5438  -35.7403 H   0  0  0  0  0  0  0  0  0  0  0  0
    2.4327  -10.7879  -37.2854 H   0  0  0  0  0  0  0  0  0  0  0  0
    5.0941  -10.7618  -31.5082 H   0  0  0  0  0  0  0  0  0  0  0  0
    1.9092   -6.5624  -32.2817 H   0  0  0  0  0  0  0  0  0  0  0  0
    2.0635   -7.7018  -30.9456 H   0  0  0  0  0  0  0  0  0  0  0  0
    3.0466  -12.5840  -31.5452 H   0  0  0  0  0  0  0  0  0  0  0  0
    2.4122  -11.1694  -30.6334 H   0  0  0  0  0  0  0  0  0  0  0  0
    0.2965   -6.1182  -30.0034 H   0  0  0  0  0  0  0  0  0  0  0  0
    6.0650   -6.4126  -33.1631 H   0  0  0  0  0  0  0  0  0  0  0  0
    4.6218   -2.6077  -30.4883 H   0  0  0  0  0  0  0  0  0  0  0  0
    4.9979  -11.8960  -29.7174 H   0  0  0  0  0  0  0  0  0  0  0  0
    2.9811  -14.1042  -29.4136 H   0  0  0  0  0  0  0  0  0  0  0  0
    4.5265  -14.0103  -28.6038 H   0  0  0  0  0  0  0  0  0  0  0  0
    4.4598  -14.1881  -30.3407 H   0  0  0  0  0  0  0  0  0  0  0  0
    2.2854  -11.8627  -28.3533 H   0  0  0  0  0  0  0  0  0  0  0  0
    3.3471  -10.4837  -28.5090 H   0  0  0  0  0  0  0  0  0  0  0  0
    3.8245  -11.8474  -27.5264 H   0  0  0  0  0  0  0  0  0  0  0  0
    7.3135   -4.3288  -33.2354 H   0  0  0  0  0  0  0  0  0  0  0  0
    6.6103   -2.4332  -31.8812 H   0  0  0  0  0  0  0  0  0  0  0  0
  1  2  1  0  0  0  0
  1  4  1  0  0  0  0
  1 13  1  0  0  0  0
  2  5  1  0  0  0  0
  2 16  2  0  0  0  0
  3  8  2  0  0  0  0
  3  7  1  0  0  0  0
  4  7  2  0  0  0  0
  4 24  1  0  0  0  0
  5 12  1  0  0  0  0
  5 31  1  0  0  0  0
  6 12  1  0  0  0  0
  6  9  1  0  0  0  0
  6 17  2  0  0  0  0
  7 25  1  0  0  0  0
  8 13  1  0  0  0  0
  8 21  1  0  0  0  0
  9 10  1  0  0  0  0
  9 32  1  0  0  0  0
 10 11  1  0  0  0  0
 10 14  1  0  0  0  0
 10 33  1  6  0  0  0
 11 15  1  0  0  0  0
 11 34  1  0  0  0  0
 11 35  1  0  0  0  0
 12 19  1  0  0  0  0
 12 36  1  1  0  0  0
 13 37  1  0  0  0  0
 13 38  1  0  0  0  0
 14 18  1  0  0  0  0
 14 22  2  0  0  0  0
 15 20  1  0  0  0  0
 15 23  2  0  0  0  0
 19 26  1  0  0  0  0
 19 39  1  0  0  0  0
 19 40  1  0  0  0  0
 21 41  1  0  0  0  0
 24 29  2  0  0  0  0
 24 42  1  0  0  0  0
 25 30  2  0  0  0  0
 25 43  1  0  0  0  0
 26 27  1  0  0  0  0
 26 28  1  0  0  0  0
 26 44  1  0  0  0  0
 27 45  1  0  0  0  0
 27 46  1  0  0  0  0
 27 47  1  0  0  0  0
 28 48  1  0  0  0  0
 28 49  1  0  0  0  0
 28 50  1  0  0  0  0
 29 30  1  0  0  0  0
 29 51  1  0  0  0  0
 30 52  1  0  0  0  0
M  CHG  2  18  -1  20  -1
M  END
$$$$
