HTS1710-01640921-01
 OpenBabel03232612353D

 48 50  0  0  0  0  0  0  0  0999 V2000
    4.2089   -5.7211  -31.1539 O   0  5  0  0  0  0  0  0  0  0  0  0
    3.4255   -6.6274  -31.3768 C   0  0  0  0  0  0  0  0  0  0  0  0
    2.4269   -6.5322  -32.0681 O   0  0  0  0  0  0  0  0  0  0  0  0
    3.7080   -7.9374  -30.7624 C   0  0  0  0  0  0  0  0  0  0  0  0
    4.9292   -8.4380  -30.3961 C   0  0  0  0  0  0  0  0  0  0  0  0
    4.8778   -9.6784  -29.8200 O   0  0  0  0  0  0  0  0  0  0  0  0
    3.5341   -9.9610  -29.8532 C   0  0  0  0  0  0  0  0  0  0  0  0
    2.7829   -8.9484  -30.4017 C   0  0  0  0  0  0  0  0  0  0  0  0
    2.9231  -11.1944  -29.2673 C   0  0  0  0  0  0  0  0  0  0  0  0
    2.1986  -11.1126  -28.2882 O   0  0  0  0  0  0  0  0  0  0  0  0
    3.2491  -12.4466  -29.8265 N   0  0  0  0  0  0  0  0  0  0  0  0
    2.7579  -13.7793  -29.3995 C   0  0  0  0  0  0  0  0  0  0  0  0
    1.6869  -14.3576  -30.3564 C   0  0  0  0  0  0  0  0  0  0  0  0
    2.1749  -14.4328  -31.8240 C   0  0  0  0  0  0  0  0  0  0  0  0
    2.2339  -13.0923  -32.4614 N   0  0  0  0  0  0  0  0  0  0  0  0
    3.5169  -12.3431  -32.3100 C   0  0  0  0  0  0  0  0  0  0  0  0
    4.2193  -12.5328  -30.9425 C   0  0  0  0  0  0  0  0  0  0  0  0
    1.2203  -12.6824  -33.3412 C   0  0  0  0  0  0  0  0  0  0  0  0
    0.2120  -13.3430  -33.5275 O   0  0  0  0  0  0  0  0  0  0  0  0
    1.3471  -11.2790  -33.9653 C   0  0  0  0  0  0  0  0  0  0  0  0
    2.2555  -11.2638  -35.2279 C   0  0  0  0  0  0  0  0  0  0  0  0
    1.6642  -10.4593  -36.3991 C   0  0  0  0  0  0  0  0  0  0  0  0
    2.8723  -10.0538  -37.2620 C   0  0  0  0  0  0  0  0  0  0  0  0
    4.0829   -9.9829  -36.3072 C   0  0  0  0  0  0  0  0  0  0  0  0
    3.6565  -10.6576  -34.9843 C   0  0  0  0  0  0  0  0  0  0  0  0
    5.8121   -7.9241  -30.5421 H   0  0  0  0  0  0  0  0  0  0  0  0
    1.7584   -8.9287  -30.5250 H   0  0  0  0  0  0  0  0  0  0  0  0
    2.3309  -13.6895  -28.4224 H   0  0  0  0  0  0  0  0  0  0  0  0
    3.5927  -14.4486  -29.4073 H   0  0  0  0  0  0  0  0  0  0  0  0
    0.8188  -13.7334  -30.3159 H   0  0  0  0  0  0  0  0  0  0  0  0
    1.4720  -15.3555  -30.0357 H   0  0  0  0  0  0  0  0  0  0  0  0
    1.5013  -15.0505  -32.3806 H   0  0  0  0  0  0  0  0  0  0  0  0
    3.1639  -14.8414  -31.8224 H   0  0  0  0  0  0  0  0  0  0  0  0
    3.3114  -11.3008  -32.4375 H   0  0  0  0  0  0  0  0  0  0  0  0
    4.1843  -12.7340  -33.0495 H   0  0  0  0  0  0  0  0  0  0  0  0
    4.9594  -11.7696  -30.8214 H   0  0  0  0  0  0  0  0  0  0  0  0
    4.6714  -13.5024  -30.9248 H   0  0  0  0  0  0  0  0  0  0  0  0
    1.7636  -10.6162  -33.2359 H   0  0  0  0  0  0  0  0  0  0  0  0
    0.3683  -10.9698  -34.2674 H   0  0  0  0  0  0  0  0  0  0  0  0
    2.3267  -12.3042  -35.4672 H   0  0  0  0  0  0  0  0  0  0  0  0
    1.1532   -9.5914  -36.0379 H   0  0  0  0  0  0  0  0  0  0  0  0
    0.9495  -11.0295  -36.9550 H   0  0  0  0  0  0  0  0  0  0  0  0
    2.7008   -9.0994  -37.7143 H   0  0  0  0  0  0  0  0  0  0  0  0
    3.0401  -10.7571  -38.0508 H   0  0  0  0  0  0  0  0  0  0  0  0
    4.3510   -8.9624  -36.1293 H   0  0  0  0  0  0  0  0  0  0  0  0
    4.9323  -10.4769  -36.7308 H   0  0  0  0  0  0  0  0  0  0  0  0
    3.6135   -9.9334  -34.1979 H   0  0  0  0  0  0  0  0  0  0  0  0
    4.3573  -11.4117  -34.6928 H   0  0  0  0  0  0  0  0  0  0  0  0
  1  2  1  0  0  0  0
  2  3  2  0  0  0  0
  2  4  1  0  0  0  0
  4  5  2  0  0  0  0
  4  8  1  0  0  0  0
  5  6  1  0  0  0  0
  5 26  1  0  0  0  0
  6  7  1  0  0  0  0
  7  8  2  0  0  0  0
  7  9  1  0  0  0  0
  8 27  1  0  0  0  0
  9 10  2  0  0  0  0
  9 11  1  0  0  0  0
 11 12  1  0  0  0  0
 11 17  1  0  0  0  0
 12 13  1  0  0  0  0
 12 28  1  0  0  0  0
 12 29  1  0  0  0  0
 13 14  1  0  0  0  0
 13 30  1  0  0  0  0
 13 31  1  0  0  0  0
 14 15  1  0  0  0  0
 14 32  1  0  0  0  0
 14 33  1  0  0  0  0
 15 16  1  0  0  0  0
 15 18  1  0  0  0  0
 16 17  1  0  0  0  0
 16 34  1  0  0  0  0
 16 35  1  0  0  0  0
 17 36  1  0  0  0  0
 17 37  1  0  0  0  0
 18 19  2  0  0  0  0
 18 20  1  0  0  0  0
 20 21  1  0  0  0  0
 20 38  1  0  0  0  0
 20 39  1  0  0  0  0
 21 22  1  0  0  0  0
 21 25  1  0  0  0  0
 21 40  1  0  0  0  0
 22 23  1  0  0  0  0
 22 41  1  0  0  0  0
 22 42  1  0  0  0  0
 23 24  1  0  0  0  0
 23 43  1  0  0  0  0
 23 44  1  0  0  0  0
 24 25  1  0  0  0  0
 24 45  1  0  0  0  0
 24 46  1  0  0  0  0
 25 47  1  0  0  0  0
 25 48  1  0  0  0  0
M  CHG  1   1  -1
M  END
$$$$
