HTS1710-02169109-01
 OpenBabel03232612353D

 42 43  0  0  1  0  0  0  0  0999 V2000
    3.7279  -11.7288  -30.9879 N   0  0  0  0  0  0  0  0  0  0  0  0
    3.9002  -10.7287  -31.9263 C   0  0  0  0  0  0  0  0  0  0  0  0
    3.8714  -12.8255  -31.9510 C   0  0  2  0  0  0  0  0  0  0  0  0
    4.1722  -11.7552  -33.0615 C   0  0  1  0  0  0  0  0  0  0  0  0
    3.3649  -11.9587  -29.5994 C   0  0  0  0  0  0  0  0  0  0  0  0
    2.2462  -13.6853  -31.8716 S   0  0  0  0  0  0  0  0  0  0  0  0
    2.8534  -13.1833  -29.2349 C   0  0  0  0  0  0  0  0  0  0  0  0
    3.1437  -11.6939  -34.1053 N   0  0  0  0  0  0  0  0  0  0  0  0
    3.5750  -10.8073  -28.6285 C   0  0  0  0  0  0  0  0  0  0  0  0
    2.6281  -14.3486  -30.2023 C   0  0  0  0  0  0  0  0  0  0  0  0
    3.8001   -9.5253  -31.7654 O   0  0  0  0  0  0  0  0  0  0  0  0
    3.2762  -10.8842  -35.2238 C   0  0  0  0  0  0  0  0  0  0  0  0
    2.4659  -13.5986  -27.8191 C   0  0  0  0  0  0  0  0  0  0  0  0
    4.8261  -13.9333  -27.3940 C   0  0  0  0  0  0  0  0  0  0  0  0
    0.5531   -9.0153  -33.8094 C   0  0  0  0  0  0  0  0  0  0  0  0
    2.7524  -10.6035  -27.7542 O   0  5  0  0  0  0  0  0  0  0  0  0
    3.6185  -13.4595  -26.9666 O   0  0  0  0  0  0  0  0  0  0  0  0
    4.2802  -10.2069  -35.3686 O   0  0  0  0  0  0  0  0  0  0  0  0
    5.7442  -13.2412  -27.8028 O   0  0  0  0  0  0  0  0  0  0  0  0
    0.3500   -9.8534  -32.9471 O   0  5  0  0  0  0  0  0  0  0  0  0
    4.5784  -10.1317  -28.7697 O   0  0  0  0  0  0  0  0  0  0  0  0
    0.9646   -7.8851  -33.6119 O   0  0  0  0  0  0  0  0  0  0  0  0
    2.1479  -10.8879  -36.2601 C   0  0  0  0  0  0  0  0  0  0  0  0
    0.2631   -9.4123  -35.2637 C   0  0  0  0  0  0  0  0  0  0  0  0
    0.7404  -10.8459  -35.6115 C   0  0  0  0  0  0  0  0  0  0  0  0
    4.8875  -15.4561  -27.2945 C   0  0  0  0  0  0  0  0  0  0  0  0
    4.5504  -13.6525  -31.9451 H   0  0  0  0  0  0  0  0  0  0  0  0
    5.0571  -11.7727  -33.6627 H   0  0  0  0  0  0  0  0  0  0  0  0
    2.3336  -12.2450  -34.0090 H   0  0  0  0  0  0  0  0  0  0  0  0
    3.5120  -14.9497  -30.2501 H   0  0  0  0  0  0  0  0  0  0  0  0
    1.8105  -14.9473  -29.8585 H   0  0  0  0  0  0  0  0  0  0  0  0
    2.1388  -14.6173  -27.8193 H   0  0  0  0  0  0  0  0  0  0  0  0
    1.6704  -12.9787  -27.4616 H   0  0  0  0  0  0  0  0  0  0  0  0
    2.2271  -11.7776  -36.8492 H   0  0  0  0  0  0  0  0  0  0  0  0
    2.2549  -10.0070  -36.8580 H   0  0  0  0  0  0  0  0  0  0  0  0
    0.7617   -8.7213  -35.9109 H   0  0  0  0  0  0  0  0  0  0  0  0
   -0.7987   -9.3900  -35.3940 H   0  0  0  0  0  0  0  0  0  0  0  0
    0.7652  -11.4227  -34.7106 H   0  0  0  0  0  0  0  0  0  0  0  0
    0.0515  -11.2423  -36.3277 H   0  0  0  0  0  0  0  0  0  0  0  0
    3.9607  -15.8260  -26.9085 H   0  0  0  0  0  0  0  0  0  0  0  0
    5.6849  -15.7388  -26.6395 H   0  0  0  0  0  0  0  0  0  0  0  0
    5.0601  -15.8704  -28.2658 H   0  0  0  0  0  0  0  0  0  0  0  0
  1  2  1  0  0  0  0
  1  3  1  0  0  0  0
  1  5  1  0  0  0  0
  2  4  1  0  0  0  0
  2 11  2  0  0  0  0
  3  4  1  0  0  0  0
  3  6  1  0  0  0  0
  3 27  1  1  0  0  0
  4  8  1  0  0  0  0
  4 28  1  6  0  0  0
  5  7  2  0  0  0  0
  5  9  1  0  0  0  0
  6 10  1  0  0  0  0
  7 10  1  0  0  0  0
  7 13  1  0  0  0  0
  8 12  1  0  0  0  0
  8 29  1  0  0  0  0
  9 16  1  0  0  0  0
  9 21  2  0  0  0  0
 10 30  1  0  0  0  0
 10 31  1  0  0  0  0
 12 18  2  0  0  0  0
 12 23  1  0  0  0  0
 13 17  1  0  0  0  0
 13 32  1  0  0  0  0
 13 33  1  0  0  0  0
 14 17  1  0  0  0  0
 14 19  2  0  0  0  0
 14 26  1  0  0  0  0
 15 20  1  0  0  0  0
 15 22  2  0  0  0  0
 15 24  1  0  0  0  0
 23 25  1  0  0  0  0
 23 34  1  0  0  0  0
 23 35  1  0  0  0  0
 24 25  1  0  0  0  0
 24 36  1  0  0  0  0
 24 37  1  0  0  0  0
 25 38  1  0  0  0  0
 25 39  1  0  0  0  0
 26 40  1  0  0  0  0
 26 41  1  0  0  0  0
 26 42  1  0  0  0  0
M  CHG  2  16  -1  20  -1
M  END
$$$$
