HTS1710-00881936-01
 OpenBabel03232612363D

 28 29  0  0  1  0  0  0  0  0999 V2000
    2.5217  -10.7200  -32.6251 N   0  0  0  0  0  0  0  0  0  0  0  0
    1.6376  -11.2832  -33.5389 C   0  0  0  0  0  0  0  0  0  0  0  0
    2.8362  -11.5472  -31.5444 C   0  0  0  0  0  0  0  0  0  0  0  0
    2.1439  -12.8618  -31.6897 C   0  0  0  0  0  0  0  0  0  0  0  0
    1.1450  -12.9458  -33.1264 S   0  0  0  0  0  0  0  0  0  0  0  0
    3.0586   -9.3334  -32.7360 C   0  0  2  0  0  0  0  0  0  0  0  0
    2.1694  -13.9767  -30.8676 C   0  0  0  0  0  0  0  0  0  0  0  0
    4.6186   -9.3265  -32.7095 C   0  0  0  0  0  0  0  0  0  0  0  0
    2.8996  -14.2089  -29.6111 C   0  0  0  0  0  0  0  0  0  0  0  0
    4.4671  -14.2109  -28.1558 C   0  0  0  0  0  0  0  0  0  0  0  0
    2.3704   -8.4074  -31.7061 C   0  0  0  0  0  0  0  0  0  0  0  0
    4.1841  -13.7720  -29.4206 O   0  0  0  0  0  0  0  0  0  0  0  0
    0.9490  -10.5078  -34.8565 S   0  0  0  0  0  0  0  0  0  0  0  0
    5.2252   -8.3954  -31.6452 C   0  0  0  0  0  0  0  0  0  0  0  0
    3.4402  -14.8910  -27.5623 C   0  0  0  0  0  0  0  0  0  0  0  0
    2.4056  -14.8914  -28.5260 C   0  0  0  0  0  0  0  0  0  0  0  0
    3.5615  -11.1993  -30.6310 O   0  0  0  0  0  0  0  0  0  0  0  0
    1.9765   -8.8904  -30.6574 O   0  5  0  0  0  0  0  0  0  0  0  0
    5.4535   -7.2417  -31.9666 O   0  5  0  0  0  0  0  0  0  0  0  0
    6.1467  -13.8741  -27.3716 Br  0  0  0  0  0  0  0  0  0  0  0  0
    2.2684   -7.2320  -32.0132 O   0  0  0  0  0  0  0  0  0  0  0  0
    5.4434   -8.8755  -30.5464 O   0  0  0  0  0  0  0  0  0  0  0  0
    2.8126   -8.9209  -33.6921 H   0  0  0  0  0  0  0  0  0  0  0  0
    1.5863  -14.7665  -31.1856 H   0  0  0  0  0  0  0  0  0  0  0  0
    4.9695   -9.0121  -33.6702 H   0  0  0  0  0  0  0  0  0  0  0  0
    4.9272  -10.3206  -32.4615 H   0  0  0  0  0  0  0  0  0  0  0  0
    3.4239  -15.3110  -26.6198 H   0  0  0  0  0  0  0  0  0  0  0  0
    1.4702  -15.3174  -28.4332 H   0  0  0  0  0  0  0  0  0  0  0  0
  1  2  1  0  0  0  0
  1  3  1  0  0  0  0
  1  6  1  0  0  0  0
  2  5  1  0  0  0  0
  2 13  2  0  0  0  0
  3  4  1  0  0  0  0
  3 17  2  0  0  0  0
  4  7  2  0  0  0  0
  4  5  1  0  0  0  0
  6  8  1  0  0  0  0
  6 11  1  0  0  0  0
  6 23  1  6  0  0  0
  7  9  1  0  0  0  0
  7 24  1  0  0  0  0
  8 14  1  0  0  0  0
  8 25  1  0  0  0  0
  8 26  1  0  0  0  0
  9 12  1  0  0  0  0
  9 16  2  0  0  0  0
 10 12  1  0  0  0  0
 10 20  1  0  0  0  0
 10 15  2  0  0  0  0
 11 18  1  0  0  0  0
 11 21  2  0  0  0  0
 14 19  1  0  0  0  0
 14 22  2  0  0  0  0
 15 16  1  0  0  0  0
 15 27  1  0  0  0  0
 16 28  1  0  0  0  0
M  CHG  2  18  -1  19  -1
M  END
$$$$
