HTS1710-00188715-01
 OpenBabel03232612353D

 42 43  0  0  0  0  0  0  0  0999 V2000
    4.3913  -11.2422  -35.7966 S   0  0  0  0  0  0  0  0  0  0  0  0
    4.5415  -10.6878  -34.0799 C   0  0  0  0  0  0  0  0  0  0  0  0
    5.1316   -9.4386  -33.8142 C   0  0  0  0  0  0  0  0  0  0  0  0
    2.7231  -11.2707  -36.1310 N   0  0  0  0  0  0  0  0  0  0  0  0
   -1.0185   -6.9690  -35.6713 C   0  0  0  0  0  0  0  0  0  0  0  0
    5.2860   -8.9760  -32.4899 C   0  0  0  0  0  0  0  0  0  0  0  0
    5.9236   -7.6312  -32.2110 C   0  0  0  0  0  0  0  0  0  0  0  0
    4.8454  -10.1315  -36.6402 O   0  0  0  0  0  0  0  0  0  0  0  0
    4.8745  -12.6137  -35.9806 O   0  0  0  0  0  0  0  0  0  0  0  0
   -1.9173   -6.9582  -34.6127 N   0  0  0  0  0  0  0  0  0  0  0  0
    4.0953  -11.4971  -33.0121 C   0  0  0  0  0  0  0  0  0  0  0  0
   -0.0376   -8.1078  -35.8061 C   0  0  0  0  0  0  0  0  0  0  0  0
   -4.1160   -6.0971  -35.3235 C   0  0  0  0  0  0  0  0  0  0  0  0
   -1.0418   -6.0527  -36.4772 O   0  0  0  0  0  0  0  0  0  0  0  0
    6.6633   -7.1692  -33.0624 O   0  5  0  0  0  0  0  0  0  0  0  0
    4.8366   -9.7920  -31.4323 C   0  0  0  0  0  0  0  0  0  0  0  0
   -4.3741   -7.2438  -35.6461 O   0  5  0  0  0  0  0  0  0  0  0  0
    4.2485  -11.0394  -31.6881 C   0  0  0  0  0  0  0  0  0  0  0  0
    1.8049  -10.2480  -36.0176 C   0  0  0  0  0  0  0  0  0  0  0  0
   -2.8942   -5.8788  -34.4275 C   0  0  0  0  0  0  0  0  0  0  0  0
    0.9385   -8.1171  -36.8245 C   0  0  0  0  0  0  0  0  0  0  0  0
   -0.0871   -9.1906  -34.9044 C   0  0  0  0  0  0  0  0  0  0  0  0
    5.6578   -7.0908  -31.1503 O   0  0  0  0  0  0  0  0  0  0  0  0
   -4.7447   -5.1079  -35.6582 O   0  0  0  0  0  0  0  0  0  0  0  0
    1.8482   -9.1818  -36.9307 C   0  0  0  0  0  0  0  0  0  0  0  0
    0.8230  -10.2529  -35.0102 C   0  0  0  0  0  0  0  0  0  0  0  0
    3.5301  -12.7295  -33.2890 O   0  0  0  0  0  0  0  0  0  0  0  0
    4.0613  -13.9715  -32.7968 C   0  0  0  0  0  0  0  0  0  0  0  0
    5.4563   -8.8522  -34.5988 H   0  0  0  0  0  0  0  0  0  0  0  0
    2.3660  -12.1318  -36.4476 H   0  0  0  0  0  0  0  0  0  0  0  0
   -1.8985   -7.6993  -33.9650 H   0  0  0  0  0  0  0  0  0  0  0  0
    4.9415   -9.4680  -30.4581 H   0  0  0  0  0  0  0  0  0  0  0  0
    3.9261  -11.6254  -30.9022 H   0  0  0  0  0  0  0  0  0  0  0  0
   -3.2073   -5.8599  -33.4044 H   0  0  0  0  0  0  0  0  0  0  0  0
   -2.4348   -4.9491  -34.6916 H   0  0  0  0  0  0  0  0  0  0  0  0
    0.9843   -7.3355  -37.4967 H   0  0  0  0  0  0  0  0  0  0  0  0
   -0.8004   -9.2019  -34.1586 H   0  0  0  0  0  0  0  0  0  0  0  0
    2.5531   -9.1806  -37.6845 H   0  0  0  0  0  0  0  0  0  0  0  0
    0.7720  -11.0412  -34.3462 H   0  0  0  0  0  0  0  0  0  0  0  0
    3.4543  -14.7815  -33.1438 H   0  0  0  0  0  0  0  0  0  0  0  0
    4.0626  -13.9598  -31.7269 H   0  0  0  0  0  0  0  0  0  0  0  0
    5.0622  -14.0976  -33.1533 H   0  0  0  0  0  0  0  0  0  0  0  0
  1  2  1  0  0  0  0
  1  4  1  0  0  0  0
  1  8  2  0  0  0  0
  1  9  2  0  0  0  0
  2  3  2  0  0  0  0
  2 11  1  0  0  0  0
  3  6  1  0  0  0  0
  3 29  1  0  0  0  0
  4 19  1  0  0  0  0
  4 30  1  0  0  0  0
  5 12  1  0  0  0  0
  5 10  1  0  0  0  0
  5 14  2  0  0  0  0
  6  7  1  0  0  0  0
  6 16  2  0  0  0  0
  7 15  1  0  0  0  0
  7 23  2  0  0  0  0
 10 20  1  0  0  0  0
 10 31  1  0  0  0  0
 11 18  2  0  0  0  0
 11 27  1  0  0  0  0
 12 22  2  0  0  0  0
 12 21  1  0  0  0  0
 13 20  1  0  0  0  0
 13 17  1  0  0  0  0
 13 24  2  0  0  0  0
 16 18  1  0  0  0  0
 16 32  1  0  0  0  0
 18 33  1  0  0  0  0
 19 25  1  0  0  0  0
 19 26  2  0  0  0  0
 20 34  1  0  0  0  0
 20 35  1  0  0  0  0
 21 25  2  0  0  0  0
 21 36  1  0  0  0  0
 22 26  1  0  0  0  0
 22 37  1  0  0  0  0
 25 38  1  0  0  0  0
 26 39  1  0  0  0  0
 27 28  1  0  0  0  0
 28 40  1  0  0  0  0
 28 41  1  0  0  0  0
 28 42  1  0  0  0  0
M  CHG  2  15  -1  17  -1
M  END
$$$$
