HTS1710-05075945-01
 OpenBabel03232612353D

 46 48  0  0  1  0  0  0  0  0999 V2000
    3.1453  -14.6293  -28.9560 C   0  0  0  0  0  0  0  0  0  0  0  0
    3.7612  -12.9647  -28.5965 S   0  0  0  0  0  0  0  0  0  0  0  0
    5.1903  -12.9907  -28.8660 O   0  0  0  0  0  0  0  0  0  0  0  0
    3.3109  -12.5184  -27.2888 O   0  0  0  0  0  0  0  0  0  0  0  0
    3.0171  -12.0030  -29.7762 N   0  0  0  0  0  0  0  0  0  0  0  0
    3.5647  -12.1055  -31.1565 C   0  0  0  0  0  0  0  0  0  0  0  0
    2.5864  -12.7388  -32.1939 C   0  0  1  0  0  0  0  0  0  0  0  0
    1.8175  -11.6650  -33.0042 C   0  0  0  0  0  0  0  0  0  0  0  0
    2.6704  -10.9503  -33.9851 N   0  0  0  0  0  0  0  0  0  0  0  0
    3.5093  -11.8622  -34.8090 C   0  0  0  0  0  0  0  0  0  0  0  0
    4.2498  -12.9295  -33.9723 C   0  0  0  0  0  0  0  0  0  0  0  0
    3.2938  -13.5917  -33.1229 O   0  0  0  0  0  0  0  0  0  0  0  0
    2.1979   -9.7637  -34.5514 C   0  0  0  0  0  0  0  0  0  0  0  0
    2.4509   -9.4464  -35.7013 O   0  0  0  0  0  0  0  0  0  0  0  0
    1.3675   -8.9031  -33.6716 C   0  0  0  0  0  0  0  0  0  0  0  0
    1.7082   -8.4625  -32.4022 C   0  0  0  0  0  0  0  0  0  0  0  0
    0.7659   -7.6699  -31.7802 O   0  0  0  0  0  0  0  0  0  0  0  0
   -0.2138   -7.5447  -32.7256 C   0  0  0  0  0  0  0  0  0  0  0  0
   -1.3745   -6.7722  -32.6034 C   0  0  0  0  0  0  0  0  0  0  0  0
   -2.2395   -6.7012  -33.7127 C   0  0  0  0  0  0  0  0  0  0  0  0
   -1.9172   -7.3728  -34.9130 C   0  0  0  0  0  0  0  0  0  0  0  0
   -0.7363   -8.1377  -35.0101 C   0  0  0  0  0  0  0  0  0  0  0  0
    0.0900   -8.2340  -33.8785 C   0  0  0  0  0  0  0  0  0  0  0  0
    2.6471  -10.6107  -29.3930 C   0  0  0  0  0  0  0  0  0  0  0  0
    3.8554   -9.7186  -29.0897 C   0  0  0  0  0  0  0  0  0  0  0  0
    4.8520   -9.8838  -29.7718 O   0  5  0  0  0  0  0  0  0  0  0  0
    3.7406   -8.9077  -28.1876 O   0  0  0  0  0  0  0  0  0  0  0  0
    3.5624  -15.3228  -28.2560 H   0  0  0  0  0  0  0  0  0  0  0  0
    3.4312  -14.9088  -29.9485 H   0  0  0  0  0  0  0  0  0  0  0  0
    2.0784  -14.6398  -28.8758 H   0  0  0  0  0  0  0  0  0  0  0  0
    4.4496  -12.7061  -31.1214 H   0  0  0  0  0  0  0  0  0  0  0  0
    3.7517  -11.1047  -31.4854 H   0  0  0  0  0  0  0  0  0  0  0  0
    1.8849  -13.3149  -31.6275 H   0  0  0  0  0  0  0  0  0  0  0  0
    1.4124  -10.9485  -32.3205 H   0  0  0  0  0  0  0  0  0  0  0  0
    1.0533  -12.1707  -33.5567 H   0  0  0  0  0  0  0  0  0  0  0  0
    4.2356  -11.2761  -35.3324 H   0  0  0  0  0  0  0  0  0  0  0  0
    2.8539  -12.3803  -35.4775 H   0  0  0  0  0  0  0  0  0  0  0  0
    5.0009  -12.4599  -33.3721 H   0  0  0  0  0  0  0  0  0  0  0  0
    4.7184  -13.6411  -34.6196 H   0  0  0  0  0  0  0  0  0  0  0  0
    2.6040   -8.7100  -31.9538 H   0  0  0  0  0  0  0  0  0  0  0  0
   -1.5899   -6.2704  -31.7278 H   0  0  0  0  0  0  0  0  0  0  0  0
   -3.1131   -6.1558  -33.6484 H   0  0  0  0  0  0  0  0  0  0  0  0
   -2.5505   -7.3033  -35.7249 H   0  0  0  0  0  0  0  0  0  0  0  0
   -0.4857   -8.6146  -35.8903 H   0  0  0  0  0  0  0  0  0  0  0  0
    2.0294  -10.6524  -28.5203 H   0  0  0  0  0  0  0  0  0  0  0  0
    2.1390  -10.1785  -30.2296 H   0  0  0  0  0  0  0  0  0  0  0  0
  1  2  1  0  0  0  0
  1 28  1  0  0  0  0
  1 29  1  0  0  0  0
  1 30  1  0  0  0  0
  2  3  2  0  0  0  0
  2  4  2  0  0  0  0
  2  5  1  0  0  0  0
  5  6  1  0  0  0  0
  5 24  1  0  0  0  0
  6  7  1  0  0  0  0
  6 31  1  0  0  0  0
  6 32  1  0  0  0  0
  7  8  1  0  0  0  0
  7 12  1  0  0  0  0
  7 33  1  1  0  0  0
  8  9  1  0  0  0  0
  8 34  1  0  0  0  0
  8 35  1  0  0  0  0
  9 10  1  0  0  0  0
  9 13  1  0  0  0  0
 10 11  1  0  0  0  0
 10 36  1  0  0  0  0
 10 37  1  0  0  0  0
 11 12  1  0  0  0  0
 11 38  1  0  0  0  0
 11 39  1  0  0  0  0
 13 14  2  0  0  0  0
 13 15  1  0  0  0  0
 15 16  2  0  0  0  0
 15 23  1  0  0  0  0
 16 17  1  0  0  0  0
 16 40  1  0  0  0  0
 17 18  1  0  0  0  0
 18 19  2  0  0  0  0
 18 23  1  0  0  0  0
 19 20  1  0  0  0  0
 19 41  1  0  0  0  0
 20 21  2  0  0  0  0
 20 42  1  0  0  0  0
 21 22  1  0  0  0  0
 21 43  1  0  0  0  0
 22 23  2  0  0  0  0
 22 44  1  0  0  0  0
 24 25  1  0  0  0  0
 24 45  1  0  0  0  0
 24 46  1  0  0  0  0
 25 26  1  0  0  0  0
 25 27  2  0  0  0  0
M  CHG  1  26  -1
M  END
$$$$
