HTS1710-02149986-01
 OpenBabel03232612353D

 28 29  0  0  0  0  0  0  0  0999 V2000
    4.8698  -10.5410  -33.3207 C   0  0  0  0  0  0  0  0  0  0  0  0
    4.4731   -9.4473  -31.1618 C   0  0  0  0  0  0  0  0  0  0  0  0
    4.3287  -10.5925  -32.0013 C   0  0  0  0  0  0  0  0  0  0  0  0
    5.6591   -8.2469  -32.9463 C   0  0  0  0  0  0  0  0  0  0  0  0
    5.1286   -8.2973  -31.6428 C   0  0  0  0  0  0  0  0  0  0  0  0
    5.5245   -9.3795  -33.7718 C   0  0  0  0  0  0  0  0  0  0  0  0
    4.7212  -11.6935  -34.2879 C   0  0  0  0  0  0  0  0  0  0  0  0
    3.9801   -9.4384  -29.7321 C   0  0  0  0  0  0  0  0  0  0  0  0
    6.3598   -7.0002  -33.4506 C   0  0  0  0  0  0  0  0  0  0  0  0
    3.6214  -11.8178  -31.5128 C   0  0  0  0  0  0  0  0  0  0  0  0
    3.0645   -8.6777  -29.4667 O   0  5  0  0  0  0  0  0  0  0  0  0
    4.1309  -12.6890  -33.9043 O   0  5  0  0  0  0  0  0  0  0  0  0
    6.8897   -7.0530  -34.5473 O   0  5  0  0  0  0  0  0  0  0  0  0
    5.1892  -11.5409  -35.4036 O   0  0  0  0  0  0  0  0  0  0  0  0
    4.5358  -10.1698  -28.9307 O   0  0  0  0  0  0  0  0  0  0  0  0
    6.3522   -6.0170  -32.7296 O   0  0  0  0  0  0  0  0  0  0  0  0
    4.3058  -12.7981  -30.7568 C   0  0  0  0  0  0  0  0  0  0  0  0
    2.2509  -12.0249  -31.7998 C   0  0  0  0  0  0  0  0  0  0  0  0
    1.5874  -13.1755  -31.3470 C   0  0  0  0  0  0  0  0  0  0  0  0
    3.6410  -13.9468  -30.2994 C   0  0  0  0  0  0  0  0  0  0  0  0
    2.2820  -14.1364  -30.5957 C   0  0  0  0  0  0  0  0  0  0  0  0
    5.2220   -7.4743  -31.0273 H   0  0  0  0  0  0  0  0  0  0  0  0
    5.9138   -9.3577  -34.7273 H   0  0  0  0  0  0  0  0  0  0  0  0
    5.3060  -12.6673  -30.5388 H   0  0  0  0  0  0  0  0  0  0  0  0
    1.7331  -11.3210  -32.3488 H   0  0  0  0  0  0  0  0  0  0  0  0
    0.5888  -13.3153  -31.5664 H   0  0  0  0  0  0  0  0  0  0  0  0
    4.1515  -14.6520  -29.7452 H   0  0  0  0  0  0  0  0  0  0  0  0
    1.7938  -14.9818  -30.2613 H   0  0  0  0  0  0  0  0  0  0  0  0
  1  3  2  0  0  0  0
  1  6  1  0  0  0  0
  1  7  1  0  0  0  0
  2  3  1  0  0  0  0
  2  5  2  0  0  0  0
  2  8  1  0  0  0  0
  3 10  1  0  0  0  0
  4  5  1  0  0  0  0
  4  6  2  0  0  0  0
  4  9  1  0  0  0  0
  5 22  1  0  0  0  0
  6 23  1  0  0  0  0
  7 12  1  0  0  0  0
  7 14  2  0  0  0  0
  8 11  1  0  0  0  0
  8 15  2  0  0  0  0
  9 13  1  0  0  0  0
  9 16  2  0  0  0  0
 10 17  2  0  0  0  0
 10 18  1  0  0  0  0
 17 20  1  0  0  0  0
 17 24  1  0  0  0  0
 18 19  2  0  0  0  0
 18 25  1  0  0  0  0
 19 21  1  0  0  0  0
 19 26  1  0  0  0  0
 20 21  2  0  0  0  0
 20 27  1  0  0  0  0
 21 28  1  0  0  0  0
M  CHG  3  11  -1  12  -1  13  -1
M  END
$$$$
