HTS1710-05472863-01
 OpenBabel03232612353D

 43 44  0  0  0  0  0  0  0  0999 V2000
    3.0772  -12.5396  -34.6739 C   0  0  0  0  0  0  0  0  0  0  0  0
    2.6978  -11.4297  -35.5712 N   0  0  0  0  0  0  0  0  0  0  0  0
    1.2492  -11.2574  -35.8038 C   0  0  0  0  0  0  0  0  0  0  0  0
    0.6675  -10.1776  -34.8677 C   0  0  0  0  0  0  0  0  0  0  0  0
    0.7844   -8.7537  -35.4497 C   0  0  0  0  0  0  0  0  0  0  0  0
   -0.3592   -7.8693  -34.9686 C   0  0  0  0  0  0  0  0  0  0  0  0
   -1.0618   -7.0527  -35.8727 C   0  0  0  0  0  0  0  0  0  0  0  0
   -2.1004   -6.2230  -35.4177 C   0  0  0  0  0  0  0  0  0  0  0  0
   -2.4390   -6.2040  -34.0550 C   0  0  0  0  0  0  0  0  0  0  0  0
   -1.7398   -7.0148  -33.1481 C   0  0  0  0  0  0  0  0  0  0  0  0
   -0.7039   -7.8458  -33.6029 C   0  0  0  0  0  0  0  0  0  0  0  0
    3.6326  -10.6145  -36.2177 C   0  0  0  0  0  0  0  0  0  0  0  0
    3.3048   -9.7852  -37.0495 O   0  0  0  0  0  0  0  0  0  0  0  0
    5.1150  -10.8904  -35.8941 C   0  0  0  0  0  0  0  0  0  0  0  0
    5.7307   -9.7575  -35.2454 O   0  0  0  0  0  0  0  0  0  0  0  0
    5.4201   -9.5834  -33.8433 C   0  0  0  0  0  0  0  0  0  0  0  0
    5.7701   -8.1918  -33.3616 C   0  0  0  0  0  0  0  0  0  0  0  0
    6.4783   -7.3472  -34.1711 O   0  0  0  0  0  0  0  0  0  0  0  0
    6.5981   -6.2658  -33.3231 C   0  0  0  0  0  0  0  0  0  0  0  0
    6.0464   -6.3783  -32.1277 N   0  0  0  0  0  0  0  0  0  0  0  0
    5.5111   -7.6276  -32.1404 C   0  0  0  0  0  0  0  0  0  0  0  0
    4.7846   -8.2308  -30.9901 C   0  0  0  0  0  0  0  0  0  0  0  0
    3.8108   -7.6296  -30.5691 O   0  5  0  0  0  0  0  0  0  0  0  0
    5.1910   -9.2831  -30.5293 O   0  0  0  0  0  0  0  0  0  0  0  0
    2.1939  -13.0144  -34.3007 H   0  0  0  0  0  0  0  0  0  0  0  0
    3.6493  -12.1566  -33.8549 H   0  0  0  0  0  0  0  0  0  0  0  0
    3.6632  -13.2521  -35.2160 H   0  0  0  0  0  0  0  0  0  0  0  0
    0.7514  -12.1864  -35.6193 H   0  0  0  0  0  0  0  0  0  0  0  0
    1.0993  -10.9489  -36.8173 H   0  0  0  0  0  0  0  0  0  0  0  0
    1.1959  -10.2110  -33.9379 H   0  0  0  0  0  0  0  0  0  0  0  0
   -0.3739  -10.3888  -34.7412 H   0  0  0  0  0  0  0  0  0  0  0  0
    0.7576   -8.8094  -36.5179 H   0  0  0  0  0  0  0  0  0  0  0  0
    1.7075   -8.3258  -35.1185 H   0  0  0  0  0  0  0  0  0  0  0  0
   -0.8136   -7.0630  -36.8744 H   0  0  0  0  0  0  0  0  0  0  0  0
   -2.6146   -5.6272  -36.0852 H   0  0  0  0  0  0  0  0  0  0  0  0
   -3.2015   -5.5941  -33.7209 H   0  0  0  0  0  0  0  0  0  0  0  0
   -1.9872   -7.0002  -32.1463 H   0  0  0  0  0  0  0  0  0  0  0  0
   -0.1925   -8.4421  -32.9336 H   0  0  0  0  0  0  0  0  0  0  0  0
    5.6377  -11.0971  -36.8046 H   0  0  0  0  0  0  0  0  0  0  0  0
    5.1651  -11.7277  -35.2298 H   0  0  0  0  0  0  0  0  0  0  0  0
    5.9766  -10.2979  -33.2734 H   0  0  0  0  0  0  0  0  0  0  0  0
    4.3676   -9.7265  -33.7143 H   0  0  0  0  0  0  0  0  0  0  0  0
    7.0959   -5.4082  -33.6091 H   0  0  0  0  0  0  0  0  0  0  0  0
  1  2  1  0  0  0  0
  1 25  1  0  0  0  0
  1 26  1  0  0  0  0
  1 27  1  0  0  0  0
  2  3  1  0  0  0  0
  2 12  1  0  0  0  0
  3  4  1  0  0  0  0
  3 28  1  0  0  0  0
  3 29  1  0  0  0  0
  4  5  1  0  0  0  0
  4 30  1  0  0  0  0
  4 31  1  0  0  0  0
  5  6  1  0  0  0  0
  5 32  1  0  0  0  0
  5 33  1  0  0  0  0
  6  7  2  0  0  0  0
  6 11  1  0  0  0  0
  7  8  1  0  0  0  0
  7 34  1  0  0  0  0
  8  9  2  0  0  0  0
  8 35  1  0  0  0  0
  9 10  1  0  0  0  0
  9 36  1  0  0  0  0
 10 11  2  0  0  0  0
 10 37  1  0  0  0  0
 11 38  1  0  0  0  0
 12 13  2  0  0  0  0
 12 14  1  0  0  0  0
 14 15  1  0  0  0  0
 14 39  1  0  0  0  0
 14 40  1  0  0  0  0
 15 16  1  0  0  0  0
 16 17  1  0  0  0  0
 16 41  1  0  0  0  0
 16 42  1  0  0  0  0
 17 18  1  0  0  0  0
 17 21  2  0  0  0  0
 18 19  1  0  0  0  0
 19 20  2  0  0  0  0
 19 43  1  0  0  0  0
 20 21  1  0  0  0  0
 21 22  1  0  0  0  0
 22 23  1  0  0  0  0
 22 24  2  0  0  0  0
M  CHG  1  23  -1
M  END
$$$$
