HTS1710-02383774-01
 OpenBabel03232612363D

 47 48  0  0  1  0  0  0  0  0999 V2000
    0.9543   -8.5977  -34.3738 C   0  0  0  0  0  0  0  0  0  0  0  0
    0.0016   -7.7241  -33.7080 C   0  0  0  0  0  0  0  0  0  0  0  0
   -0.2158   -7.6149  -35.9722 N   0  0  0  0  0  0  0  0  0  0  0  0
   -0.7660   -7.1823  -34.7155 N   0  0  0  0  0  0  0  0  0  0  0  0
    0.8337   -8.5065  -35.7366 C   0  0  0  0  0  0  0  0  0  0  0  0
    1.9720   -9.3130  -33.7539 N   0  0  0  0  0  0  0  0  0  0  0  0
    2.1246  -10.6927  -33.8064 C   0  0  0  0  0  0  0  0  0  0  0  0
    3.9639   -9.2734  -31.3332 C   0  0  2  0  0  0  0  0  0  0  0  0
    3.7469  -10.1912  -30.0952 C   0  0  0  0  0  0  0  0  0  0  0  0
    4.6758  -10.2430  -32.7383 S   0  0  0  0  0  0  0  0  0  0  0  0
    4.8964   -8.0842  -31.0465 C   0  0  0  0  0  0  0  0  0  0  0  0
   -0.1070   -7.4858  -32.5181 O   0  0  0  0  0  0  0  0  0  0  0  0
    3.2181   -9.4501  -28.8551 C   0  0  0  0  0  0  0  0  0  0  0  0
    3.2874  -11.4152  -33.0872 C   0  0  2  0  0  0  0  0  0  0  0  0
   -1.9294   -6.3673  -34.5874 C   0  0  0  0  0  0  0  0  0  0  0  0
    1.2485  -11.3131  -34.3838 O   0  0  0  0  0  0  0  0  0  0  0  0
    6.0476   -8.3283  -30.7260 O   0  5  0  0  0  0  0  0  0  0  0  0
    3.0042   -8.2543  -28.9562 O   0  5  0  0  0  0  0  0  0  0  0  0
   -0.4173   -6.7300  -37.1327 C   0  0  0  0  0  0  0  0  0  0  0  0
    1.7602   -9.1298  -36.7503 C   0  0  0  0  0  0  0  0  0  0  0  0
    4.4226   -6.9689  -31.1743 O   0  0  0  0  0  0  0  0  0  0  0  0
    3.0470  -10.1122  -27.8463 O   0  0  0  0  0  0  0  0  0  0  0  0
    3.7959  -12.6023  -33.9321 C   0  0  0  0  0  0  0  0  0  0  0  0
   -1.8972   -5.1984  -33.8034 C   0  0  0  0  0  0  0  0  0  0  0  0
   -3.1286   -6.7338  -35.2301 C   0  0  0  0  0  0  0  0  0  0  0  0
   -4.2763   -5.9356  -35.0975 C   0  0  0  0  0  0  0  0  0  0  0  0
   -3.0451   -4.4020  -33.6695 C   0  0  0  0  0  0  0  0  0  0  0  0
   -4.2351   -4.7690  -34.3178 C   0  0  0  0  0  0  0  0  0  0  0  0
    2.6363   -8.8021  -33.2374 H   0  0  0  0  0  0  0  0  0  0  0  0
    2.9984   -8.8870  -31.5851 H   0  0  0  0  0  0  0  0  0  0  0  0
    4.6831  -10.6440  -29.8433 H   0  0  0  0  0  0  0  0  0  0  0  0
    3.0031  -10.9102  -30.3681 H   0  0  0  0  0  0  0  0  0  0  0  0
    2.9168  -11.7898  -32.1560 H   0  0  0  0  0  0  0  0  0  0  0  0
   -1.3222   -6.1736  -37.0040 H   0  0  0  0  0  0  0  0  0  0  0  0
   -0.4846   -7.3193  -38.0232 H   0  0  0  0  0  0  0  0  0  0  0  0
    0.4083   -6.0543  -37.2137 H   0  0  0  0  0  0  0  0  0  0  0  0
    2.4580   -9.7686  -36.2504 H   0  0  0  0  0  0  0  0  0  0  0  0
    2.2908   -8.3593  -37.2697 H   0  0  0  0  0  0  0  0  0  0  0  0
    1.1892   -9.7036  -37.4500 H   0  0  0  0  0  0  0  0  0  0  0  0
    4.1696  -12.2404  -34.8671 H   0  0  0  0  0  0  0  0  0  0  0  0
    2.9909  -13.2844  -34.1098 H   0  0  0  0  0  0  0  0  0  0  0  0
    4.5798  -13.1052  -33.4052 H   0  0  0  0  0  0  0  0  0  0  0  0
   -1.0247   -4.9257  -33.3245 H   0  0  0  0  0  0  0  0  0  0  0  0
   -3.1637   -7.5928  -35.8009 H   0  0  0  0  0  0  0  0  0  0  0  0
   -5.1508   -6.2069  -35.5736 H   0  0  0  0  0  0  0  0  0  0  0  0
   -3.0144   -3.5460  -33.0939 H   0  0  0  0  0  0  0  0  0  0  0  0
   -5.0783   -4.1820  -34.2213 H   0  0  0  0  0  0  0  0  0  0  0  0
  1  2  1  0  0  0  0
  1  5  2  0  0  0  0
  1  6  1  0  0  0  0
  2  4  1  0  0  0  0
  2 12  2  0  0  0  0
  3  4  1  0  0  0  0
  3  5  1  0  0  0  0
  3 19  1  0  0  0  0
  4 15  1  0  0  0  0
  5 20  1  0  0  0  0
  6  7  1  0  0  0  0
  6 29  1  0  0  0  0
  7 14  1  0  0  0  0
  7 16  2  0  0  0  0
  8  9  1  0  0  0  0
  8 10  1  0  0  0  0
  8 11  1  0  0  0  0
  8 30  1  6  0  0  0
  9 13  1  0  0  0  0
  9 31  1  0  0  0  0
  9 32  1  0  0  0  0
 10 14  1  0  0  0  0
 11 17  1  0  0  0  0
 11 21  2  0  0  0  0
 13 18  1  0  0  0  0
 13 22  2  0  0  0  0
 14 23  1  0  0  0  0
 14 33  1  1  0  0  0
 15 24  2  0  0  0  0
 15 25  1  0  0  0  0
 19 34  1  0  0  0  0
 19 35  1  0  0  0  0
 19 36  1  0  0  0  0
 20 37  1  0  0  0  0
 20 38  1  0  0  0  0
 20 39  1  0  0  0  0
 23 40  1  0  0  0  0
 23 41  1  0  0  0  0
 23 42  1  0  0  0  0
 24 27  1  0  0  0  0
 24 43  1  0  0  0  0
 25 26  2  0  0  0  0
 25 44  1  0  0  0  0
 26 28  1  0  0  0  0
 26 45  1  0  0  0  0
 27 28  2  0  0  0  0
 27 46  1  0  0  0  0
 28 47  1  0  0  0  0
M  CHG  2  17  -1  18  -1
M  END
$$$$
