HTS1710-04197901-01
 OpenBabel03232612353D

 43 44  0  0  1  0  0  0  0  0999 V2000
    3.8525   -9.3503  -31.9505 C   0  0  0  0  0  0  0  0  0  0  0  0
    2.7538   -9.8697  -32.8035 C   0  0  0  0  0  0  0  0  0  0  0  0
    4.1700   -9.7192  -30.6685 C   0  0  0  0  0  0  0  0  0  0  0  0
    4.7207   -8.3839  -32.3461 N   0  0  0  0  0  0  0  0  0  0  0  0
    2.9367   -9.8251  -34.1810 N   0  0  0  0  0  0  0  0  0  0  0  0
    2.6253  -10.6541  -36.4918 C   0  0  0  0  0  0  0  0  0  0  0  0
    1.9352  -10.3038  -35.1471 C   0  0  2  0  0  0  0  0  0  0  0  0
    5.5024   -8.2209  -31.2925 C   0  0  0  0  0  0  0  0  0  0  0  0
    5.2363   -9.0049  -30.1909 O   0  0  0  0  0  0  0  0  0  0  0  0
    4.0523  -10.0986  -36.5778 C   0  0  0  0  0  0  0  0  0  0  0  0
    0.8598   -9.2310  -35.3098 C   0  0  0  0  0  0  0  0  0  0  0  0
    1.7132  -10.3197  -32.3549 O   0  0  0  0  0  0  0  0  0  0  0  0
    4.9087  -10.6477  -35.9064 O   0  5  0  0  0  0  0  0  0  0  0  0
    3.4974  -10.7693  -29.8022 C   0  0  0  0  0  0  0  0  0  0  0  0
   -0.2864   -9.2212  -34.4902 C   0  0  0  0  0  0  0  0  0  0  0  0
    1.0070   -8.2352  -36.2926 C   0  0  0  0  0  0  0  0  0  0  0  0
   -1.1122   -7.2297  -35.6279 C   0  0  0  0  0  0  0  0  0  0  0  0
    4.2294   -9.1298  -37.2972 O   0  0  0  0  0  0  0  0  0  0  0  0
    0.0313   -7.2392  -36.4543 C   0  0  0  0  0  0  0  0  0  0  0  0
   -1.2637   -8.2264  -34.6495 C   0  0  0  0  0  0  0  0  0  0  0  0
   -2.0999   -6.2703  -35.7433 O   0  0  0  0  0  0  0  0  0  0  0  0
    2.5656  -10.1035  -28.7643 C   0  0  0  0  0  0  0  0  0  0  0  0
    4.5315  -11.6859  -29.1034 C   0  0  0  0  0  0  0  0  0  0  0  0
   -3.2538   -6.2277  -34.8846 C   0  0  0  0  0  0  0  0  0  0  0  0
    3.7800   -9.4541  -34.5281 H   0  0  0  0  0  0  0  0  0  0  0  0
    2.0473  -10.2421  -37.2925 H   0  0  0  0  0  0  0  0  0  0  0  0
    2.6852  -11.7202  -36.5602 H   0  0  0  0  0  0  0  0  0  0  0  0
    1.4651  -11.1978  -34.7939 H   0  0  0  0  0  0  0  0  0  0  0  0
    6.2762   -7.5380  -31.2949 H   0  0  0  0  0  0  0  0  0  0  0  0
    2.9060  -11.3869  -30.4453 H   0  0  0  0  0  0  0  0  0  0  0  0
   -0.4080   -9.9493  -33.7691 H   0  0  0  0  0  0  0  0  0  0  0  0
    1.8408   -8.2370  -36.9007 H   0  0  0  0  0  0  0  0  0  0  0  0
    0.1505   -6.5134  -37.1782 H   0  0  0  0  0  0  0  0  0  0  0  0
   -2.0991   -8.2272  -34.0437 H   0  0  0  0  0  0  0  0  0  0  0  0
    3.1437   -9.4816  -28.1131 H   0  0  0  0  0  0  0  0  0  0  0  0
    2.0727  -10.8601  -28.1904 H   0  0  0  0  0  0  0  0  0  0  0  0
    1.8354   -9.5077  -29.2710 H   0  0  0  0  0  0  0  0  0  0  0  0
    5.1431  -11.1000  -28.4495 H   0  0  0  0  0  0  0  0  0  0  0  0
    5.1471  -12.1565  -29.8413 H   0  0  0  0  0  0  0  0  0  0  0  0
    4.0188  -12.4346  -28.5364 H   0  0  0  0  0  0  0  0  0  0  0  0
   -3.8749   -5.4018  -35.1625 H   0  0  0  0  0  0  0  0  0  0  0  0
   -2.9384   -6.1109  -33.8688 H   0  0  0  0  0  0  0  0  0  0  0  0
   -3.8063   -7.1386  -34.9841 H   0  0  0  0  0  0  0  0  0  0  0  0
  1  2  1  0  0  0  0
  1  3  2  0  0  0  0
  1  4  1  0  0  0  0
  2  5  1  0  0  0  0
  2 12  2  0  0  0  0
  3  9  1  0  0  0  0
  3 14  1  0  0  0  0
  4  8  2  0  0  0  0
  5  7  1  0  0  0  0
  5 25  1  0  0  0  0
  6  7  1  0  0  0  0
  6 10  1  0  0  0  0
  6 26  1  0  0  0  0
  6 27  1  0  0  0  0
  7 11  1  0  0  0  0
  7 28  1  1  0  0  0
  8  9  1  0  0  0  0
  8 29  1  0  0  0  0
 10 13  1  0  0  0  0
 10 18  2  0  0  0  0
 11 15  2  0  0  0  0
 11 16  1  0  0  0  0
 14 22  1  0  0  0  0
 14 23  1  0  0  0  0
 14 30  1  0  0  0  0
 15 20  1  0  0  0  0
 15 31  1  0  0  0  0
 16 19  2  0  0  0  0
 16 32  1  0  0  0  0
 17 20  2  0  0  0  0
 17 21  1  0  0  0  0
 17 19  1  0  0  0  0
 19 33  1  0  0  0  0
 20 34  1  0  0  0  0
 21 24  1  0  0  0  0
 22 35  1  0  0  0  0
 22 36  1  0  0  0  0
 22 37  1  0  0  0  0
 23 38  1  0  0  0  0
 23 39  1  0  0  0  0
 23 40  1  0  0  0  0
 24 41  1  0  0  0  0
 24 42  1  0  0  0  0
 24 43  1  0  0  0  0
M  CHG  1  13  -1
M  END
$$$$
