HTS1710-01991442-01
 OpenBabel03232612363D

 42 43  0  0  0  0  0  0  0  0999 V2000
    2.8987  -10.3311  -30.7533 C   0  0  0  0  0  0  0  0  0  0  0  0
    2.8284  -11.7451  -30.7185 C   0  0  0  0  0  0  0  0  0  0  0  0
    3.6407   -9.5460  -29.7043 C   0  0  0  0  0  0  0  0  0  0  0  0
    3.4039  -12.4741  -29.6758 N   0  0  0  0  0  0  0  0  0  0  0  0
    2.2712   -9.6292  -31.8011 C   0  0  0  0  0  0  0  0  0  0  0  0
    2.1312  -12.4214  -31.7375 C   0  0  0  0  0  0  0  0  0  0  0  0
    0.2611   -8.3848  -33.6297 C   0  0  0  0  0  0  0  0  0  0  0  0
    0.9983   -9.5473  -33.8327 N   0  0  0  0  0  0  0  0  0  0  0  0
   -3.5531   -6.7525  -35.1840 C   0  0  0  0  0  0  0  0  0  0  0  0
    1.6005  -10.3076  -32.8328 C   0  0  0  0  0  0  0  0  0  0  0  0
    4.8390   -9.3996  -29.8698 O   0  5  0  0  0  0  0  0  0  0  0  0
    0.0588   -7.9686  -32.4998 O   0  0  0  0  0  0  0  0  0  0  0  0
   -3.5061   -7.8978  -34.7712 O   0  5  0  0  0  0  0  0  0  0  0  0
    4.6057  -13.9245  -27.5862 O   0  0  0  0  0  0  0  0  0  0  0  0
    1.5200  -11.7146  -32.7810 C   0  0  0  0  0  0  0  0  0  0  0  0
    2.9983   -9.1224  -28.7574 O   0  0  0  0  0  0  0  0  0  0  0  0
   -4.5659   -6.0889  -35.3206 O   0  0  0  0  0  0  0  0  0  0  0  0
    3.2276  -12.0514  -28.2695 C   0  0  0  0  0  0  0  0  0  0  0  0
    4.6068  -13.2964  -29.9270 C   0  0  0  0  0  0  0  0  0  0  0  0
   -0.3228   -7.6918  -34.8716 C   0  0  0  0  0  0  0  0  0  0  0  0
   -2.2284   -6.1013  -35.5954 C   0  0  0  0  0  0  0  0  0  0  0  0
   -1.1090   -6.3897  -34.5627 C   0  0  0  0  0  0  0  0  0  0  0  0
    4.6882  -14.4671  -28.9191 C   0  0  0  0  0  0  0  0  0  0  0  0
    3.3530  -13.2640  -27.3163 C   0  0  0  0  0  0  0  0  0  0  0  0
    2.3048   -8.5978  -31.8112 H   0  0  0  0  0  0  0  0  0  0  0  0
    2.0696  -13.4513  -31.7154 H   0  0  0  0  0  0  0  0  0  0  0  0
    1.1031   -9.8586  -34.7607 H   0  0  0  0  0  0  0  0  0  0  0  0
    1.0078  -12.2265  -33.5162 H   0  0  0  0  0  0  0  0  0  0  0  0
    2.2593  -11.6114  -28.1533 H   0  0  0  0  0  0  0  0  0  0  0  0
    3.9890  -11.3405  -28.0251 H   0  0  0  0  0  0  0  0  0  0  0  0
    5.4785  -12.6841  -29.8255 H   0  0  0  0  0  0  0  0  0  0  0  0
    4.5488  -13.6978  -30.9171 H   0  0  0  0  0  0  0  0  0  0  0  0
   -0.9856   -8.3768  -35.3576 H   0  0  0  0  0  0  0  0  0  0  0  0
    0.5071   -7.4115  -35.4860 H   0  0  0  0  0  0  0  0  0  0  0  0
   -2.3693   -5.0432  -35.6691 H   0  0  0  0  0  0  0  0  0  0  0  0
   -1.9303   -6.5124  -36.5373 H   0  0  0  0  0  0  0  0  0  0  0  0
   -0.4232   -5.5683  -34.5643 H   0  0  0  0  0  0  0  0  0  0  0  0
   -1.5771   -6.5160  -33.6089 H   0  0  0  0  0  0  0  0  0  0  0  0
    3.8764  -15.1441  -29.0848 H   0  0  0  0  0  0  0  0  0  0  0  0
    5.6090  -14.9976  -29.0445 H   0  0  0  0  0  0  0  0  0  0  0  0
    3.3321  -12.9292  -26.3002 H   0  0  0  0  0  0  0  0  0  0  0  0
    2.5386  -13.9406  -27.4713 H   0  0  0  0  0  0  0  0  0  0  0  0
  1  2  2  0  0  0  0
  1  3  1  0  0  0  0
  1  5  1  0  0  0  0
  2  4  1  0  0  0  0
  2  6  1  0  0  0  0
  3 11  1  0  0  0  0
  3 16  2  0  0  0  0
  4 18  1  0  0  0  0
  4 19  1  0  0  0  0
  5 10  2  0  0  0  0
  5 25  1  0  0  0  0
  6 15  2  0  0  0  0
  6 26  1  0  0  0  0
  7  8  1  0  0  0  0
  7 12  2  0  0  0  0
  7 20  1  0  0  0  0
  8 10  1  0  0  0  0
  8 27  1  0  0  0  0
  9 13  1  0  0  0  0
  9 17  2  0  0  0  0
  9 21  1  0  0  0  0
 10 15  1  0  0  0  0
 14 23  1  0  0  0  0
 14 24  1  0  0  0  0
 15 28  1  0  0  0  0
 18 24  1  0  0  0  0
 18 29  1  0  0  0  0
 18 30  1  0  0  0  0
 19 23  1  0  0  0  0
 19 31  1  0  0  0  0
 19 32  1  0  0  0  0
 20 22  1  0  0  0  0
 20 33  1  0  0  0  0
 20 34  1  0  0  0  0
 21 22  1  0  0  0  0
 21 35  1  0  0  0  0
 21 36  1  0  0  0  0
 22 37  1  0  0  0  0
 22 38  1  0  0  0  0
 23 39  1  0  0  0  0
 23 40  1  0  0  0  0
 24 41  1  0  0  0  0
 24 42  1  0  0  0  0
M  CHG  2  11  -1  13  -1
M  END
$$$$
