HTS1710-04760611-01
 OpenBabel03232612363D

 39 41  0  0  1  0  0  0  0  0999 V2000
    0.4698   -9.7352  -34.2207 C   0  0  0  0  0  0  0  0  0  0  0  0
    1.1639  -10.7705  -35.1348 C   0  0  0  0  0  0  0  0  0  0  0  0
    2.6154  -10.3619  -35.5069 C   0  0  2  0  0  0  0  0  0  0  0  0
    3.2541   -9.6856  -34.3673 N   0  0  0  0  0  0  0  0  0  0  0  0
    4.6195   -9.7456  -34.1203 C   0  0  0  0  0  0  0  0  0  0  0  0
    5.3210  -10.4260  -34.8499 O   0  0  0  0  0  0  0  0  0  0  0  0
    5.1341   -9.0152  -32.9326 C   0  0  0  0  0  0  0  0  0  0  0  0
    5.7405   -7.8017  -33.0240 N   0  0  0  0  0  0  0  0  0  0  0  0
    5.8924   -7.4256  -31.7633 C   0  0  0  0  0  0  0  0  0  0  0  0
    5.4295   -8.2886  -30.7914 O   0  0  0  0  0  0  0  0  0  0  0  0
    4.9952   -9.3018  -31.5979 C   0  0  0  0  0  0  0  0  0  0  0  0
    4.5851  -10.5909  -31.0068 C   0  0  0  0  0  0  0  0  0  0  0  0
    4.5284  -11.7300  -31.8388 C   0  0  0  0  0  0  0  0  0  0  0  0
    4.1249  -12.9762  -31.3333 C   0  0  0  0  0  0  0  0  0  0  0  0
    3.7440  -13.0925  -29.9901 C   0  0  0  0  0  0  0  0  0  0  0  0
    3.3640  -14.3149  -29.4797 O   0  0  0  0  0  0  0  0  0  0  0  0
    3.2710  -14.4767  -28.0485 C   0  0  0  0  0  0  0  0  0  0  0  0
    2.5584  -13.2367  -27.4602 C   0  0  0  0  0  0  0  0  0  0  0  0
    3.2808  -12.0557  -27.8663 O   0  0  0  0  0  0  0  0  0  0  0  0
    3.7247  -11.9538  -29.1673 C   0  0  0  0  0  0  0  0  0  0  0  0
    4.1397  -10.7116  -29.6708 C   0  0  0  0  0  0  0  0  0  0  0  0
    2.6629   -9.4367  -36.7351 C   0  0  0  0  0  0  0  0  0  0  0  0
    1.6663   -8.7836  -36.9950 O   0  5  0  0  0  0  0  0  0  0  0  0
    3.7024   -9.4201  -37.3718 O   0  0  0  0  0  0  0  0  0  0  0  0
   -0.5229  -10.0659  -33.9968 H   0  0  0  0  0  0  0  0  0  0  0  0
    0.4267   -8.7901  -34.7207 H   0  0  0  0  0  0  0  0  0  0  0  0
    1.0251   -9.6328  -33.3119 H   0  0  0  0  0  0  0  0  0  0  0  0
    0.5943  -10.8689  -36.0352 H   0  0  0  0  0  0  0  0  0  0  0  0
    1.2154  -11.6941  -34.5970 H   0  0  0  0  0  0  0  0  0  0  0  0
    3.1439  -11.2601  -35.7499 H   0  0  0  0  0  0  0  0  0  0  0  0
    2.6877   -9.1666  -33.7515 H   0  0  0  0  0  0  0  0  0  0  0  0
    6.3373   -6.5271  -31.5188 H   0  0  0  0  0  0  0  0  0  0  0  0
    4.7875  -11.6453  -32.8341 H   0  0  0  0  0  0  0  0  0  0  0  0
    4.1090  -13.8040  -31.9493 H   0  0  0  0  0  0  0  0  0  0  0  0
    4.2523  -14.5615  -27.6304 H   0  0  0  0  0  0  0  0  0  0  0  0
    2.7184  -15.3627  -27.8147 H   0  0  0  0  0  0  0  0  0  0  0  0
    2.5446  -13.3017  -26.3923 H   0  0  0  0  0  0  0  0  0  0  0  0
    1.5508  -13.1901  -27.8173 H   0  0  0  0  0  0  0  0  0  0  0  0
    4.1195   -9.8795  -29.0608 H   0  0  0  0  0  0  0  0  0  0  0  0
  1  2  1  0  0  0  0
  1 25  1  0  0  0  0
  1 26  1  0  0  0  0
  1 27  1  0  0  0  0
  2  3  1  0  0  0  0
  2 28  1  0  0  0  0
  2 29  1  0  0  0  0
  3  4  1  0  0  0  0
  3 22  1  0  0  0  0
  3 30  1  6  0  0  0
  4  5  1  0  0  0  0
  4 31  1  0  0  0  0
  5  6  2  0  0  0  0
  5  7  1  0  0  0  0
  7  8  1  0  0  0  0
  7 11  2  0  0  0  0
  8  9  2  0  0  0  0
  9 10  1  0  0  0  0
  9 32  1  0  0  0  0
 10 11  1  0  0  0  0
 11 12  1  0  0  0  0
 12 13  2  0  0  0  0
 12 21  1  0  0  0  0
 13 14  1  0  0  0  0
 13 33  1  0  0  0  0
 14 15  2  0  0  0  0
 14 34  1  0  0  0  0
 15 16  1  0  0  0  0
 15 20  1  0  0  0  0
 16 17  1  0  0  0  0
 17 18  1  0  0  0  0
 17 35  1  0  0  0  0
 17 36  1  0  0  0  0
 18 19  1  0  0  0  0
 18 37  1  0  0  0  0
 18 38  1  0  0  0  0
 19 20  1  0  0  0  0
 20 21  2  0  0  0  0
 21 39  1  0  0  0  0
 22 23  1  0  0  0  0
 22 24  2  0  0  0  0
M  CHG  1  23  -1
M  END
$$$$
