HTS1710-00803421-01
 OpenBabel03232612353D

 39 40  0  0  1  0  0  0  0  0999 V2000
    3.1199   -9.4446  -33.2679 N   0  0  0  0  0  0  0  0  0  0  0  0
    3.5648  -10.1631  -34.3740 C   0  0  0  0  0  0  0  0  0  0  0  0
    1.9883   -8.6659  -33.5122 C   0  0  0  0  0  0  0  0  0  0  0  0
    1.5284   -8.8685  -34.9075 C   0  0  0  0  0  0  0  0  0  0  0  0
    2.5893   -9.8967  -35.8463 S   0  0  0  0  0  0  0  0  0  0  0  0
    3.8389   -9.4004  -31.9648 C   0  0  2  0  0  0  0  0  0  0  0  0
    0.4307   -8.2823  -35.5009 C   0  0  0  0  0  0  0  0  0  0  0  0
    2.9107   -9.7584  -30.7649 C   0  0  0  0  0  0  0  0  0  0  0  0
    4.5915   -8.0587  -31.8103 C   0  0  0  0  0  0  0  0  0  0  0  0
   -0.6782   -7.3746  -35.0671 C   0  0  0  0  0  0  0  0  0  0  0  0
    4.9086  -11.1633  -34.4232 S   0  0  0  0  0  0  0  0  0  0  0  0
    3.6577   -9.7558  -29.4238 C   0  0  0  0  0  0  0  0  0  0  0  0
   -1.0895   -6.3102  -35.9053 C   0  0  0  0  0  0  0  0  0  0  0  0
   -2.1528   -5.4656  -35.5119 C   0  0  0  0  0  0  0  0  0  0  0  0
    1.5003   -7.9005  -32.6994 O   0  0  0  0  0  0  0  0  0  0  0  0
    5.7874   -8.0330  -32.0504 O   0  5  0  0  0  0  0  0  0  0  0  0
    4.8251  -10.1067  -29.4343 O   0  5  0  0  0  0  0  0  0  0  0  0
   -1.3836   -7.6027  -33.8687 C   0  0  0  0  0  0  0  0  0  0  0  0
   -2.8263   -5.6912  -34.2946 C   0  0  0  0  0  0  0  0  0  0  0  0
    3.9300   -7.0956  -31.4594 O   0  0  0  0  0  0  0  0  0  0  0  0
    3.0441   -9.3724  -28.4423 O   0  0  0  0  0  0  0  0  0  0  0  0
   -2.4396   -6.7665  -33.4837 C   0  0  0  0  0  0  0  0  0  0  0  0
   -0.4079   -6.0967  -37.0924 O   0  0  0  0  0  0  0  0  0  0  0  0
   -3.8756   -4.8977  -33.8710 O   0  0  0  0  0  0  0  0  0  0  0  0
   -0.6674   -4.9890  -37.9718 C   0  0  0  0  0  0  0  0  0  0  0  0
   -4.3828   -3.7910  -34.6363 C   0  0  0  0  0  0  0  0  0  0  0  0
    4.5848  -10.1675  -31.9579 H   0  0  0  0  0  0  0  0  0  0  0  0
    0.3538   -8.5331  -36.4990 H   0  0  0  0  0  0  0  0  0  0  0  0
    2.5002  -10.7331  -30.9273 H   0  0  0  0  0  0  0  0  0  0  0  0
    2.1447   -9.0133  -30.7122 H   0  0  0  0  0  0  0  0  0  0  0  0
   -2.4369   -4.6807  -36.1186 H   0  0  0  0  0  0  0  0  0  0  0  0
   -1.1184   -8.3973  -33.2658 H   0  0  0  0  0  0  0  0  0  0  0  0
   -2.9363   -6.9438  -32.5966 H   0  0  0  0  0  0  0  0  0  0  0  0
   -0.0145   -5.0446  -38.8177 H   0  0  0  0  0  0  0  0  0  0  0  0
   -0.4966   -4.0710  -37.4492 H   0  0  0  0  0  0  0  0  0  0  0  0
   -1.6842   -5.0270  -38.3029 H   0  0  0  0  0  0  0  0  0  0  0  0
   -5.1911   -3.3315  -34.1066 H   0  0  0  0  0  0  0  0  0  0  0  0
   -4.7323   -4.1432  -35.5843 H   0  0  0  0  0  0  0  0  0  0  0  0
   -3.6026   -3.0746  -34.7877 H   0  0  0  0  0  0  0  0  0  0  0  0
  1  2  1  0  0  0  0
  1  3  1  0  0  0  0
  1  6  1  0  0  0  0
  2  5  1  0  0  0  0
  2 11  2  0  0  0  0
  3  4  1  0  0  0  0
  3 15  2  0  0  0  0
  4  7  2  0  0  0  0
  4  5  1  0  0  0  0
  6  8  1  0  0  0  0
  6  9  1  0  0  0  0
  6 27  1  6  0  0  0
  7 10  1  0  0  0  0
  7 28  1  0  0  0  0
  8 12  1  0  0  0  0
  8 29  1  0  0  0  0
  8 30  1  0  0  0  0
  9 16  1  0  0  0  0
  9 20  2  0  0  0  0
 10 13  2  0  0  0  0
 10 18  1  0  0  0  0
 12 17  1  0  0  0  0
 12 21  2  0  0  0  0
 13 14  1  0  0  0  0
 13 23  1  0  0  0  0
 14 19  2  0  0  0  0
 14 31  1  0  0  0  0
 18 22  2  0  0  0  0
 18 32  1  0  0  0  0
 19 22  1  0  0  0  0
 19 24  1  0  0  0  0
 22 33  1  0  0  0  0
 23 25  1  0  0  0  0
 24 26  1  0  0  0  0
 25 34  1  0  0  0  0
 25 35  1  0  0  0  0
 25 36  1  0  0  0  0
 26 37  1  0  0  0  0
 26 38  1  0  0  0  0
 26 39  1  0  0  0  0
M  CHG  2  16  -1  17  -1
M  END
$$$$
