HTS1710-05434745-01
 OpenBabel03232612353D

 45 47  0  0  1  0  0  0  0  0999 V2000
    3.7451  -11.0702  -31.7011 C   0  0  0  0  0  0  0  0  0  0  0  0
    4.1824  -11.0905  -30.3791 C   0  0  0  0  0  0  0  0  0  0  0  0
    2.7306   -9.2856  -33.1749 C   0  0  0  0  0  0  0  0  0  0  0  0
    3.9942  -12.2862  -29.6296 N   0  0  0  0  0  0  0  0  0  0  0  0
    4.0247   -9.8353  -32.5749 C   0  0  2  0  0  0  0  0  0  0  0  0
    2.9851  -12.1635  -32.3110 C   0  0  0  0  0  0  0  0  0  0  0  0
    1.7778   -8.6352  -32.2540 C   0  0  0  0  0  0  0  0  0  0  0  0
    2.7077  -13.2454  -31.3943 C   0  0  0  0  0  0  0  0  0  0  0  0
    3.1360  -13.3186  -30.0879 C   0  0  0  0  0  0  0  0  0  0  0  0
    2.4602   -9.4014  -34.5263 C   0  0  0  0  0  0  0  0  0  0  0  0
    0.5238   -8.1459  -32.9063 C   0  0  0  0  0  0  0  0  0  0  0  0
    1.2990   -8.9241  -35.0839 O   0  0  0  0  0  0  0  0  0  0  0  0
    0.3430   -8.3158  -34.2933 C   0  0  0  0  0  0  0  0  0  0  0  0
    5.1558  -10.0991  -33.6204 C   0  0  0  0  0  0  0  0  0  0  0  0
    5.6411   -8.8396  -34.3536 C   0  0  0  0  0  0  0  0  0  0  0  0
    2.5852  -12.1781  -33.4630 O   0  0  0  0  0  0  0  0  0  0  0  0
    1.9781   -8.5015  -31.0582 O   0  0  0  0  0  0  0  0  0  0  0  0
    4.8302  -10.0688  -29.7696 O   0  5  0  0  0  0  0  0  0  0  0  0
    5.7267   -8.7319  -35.5670 O   0  0  0  0  0  0  0  0  0  0  0  0
    4.6315  -12.4207  -28.2975 C   0  0  0  0  0  0  0  0  0  0  0  0
    5.9598   -7.8501  -33.4657 O   0  0  0  0  0  0  0  0  0  0  0  0
    2.7384  -14.5236  -29.2618 C   0  0  0  0  0  0  0  0  0  0  0  0
   -0.4859   -7.5197  -32.1468 C   0  0  0  0  0  0  0  0  0  0  0  0
   -0.8375   -7.8626  -34.9086 C   0  0  0  0  0  0  0  0  0  0  0  0
    6.7309   -6.7229  -33.9187 C   0  0  0  0  0  0  0  0  0  0  0  0
   -1.6630   -7.0707  -32.7658 C   0  0  0  0  0  0  0  0  0  0  0  0
   -1.8394   -7.2419  -34.1458 C   0  0  0  0  0  0  0  0  0  0  0  0
    4.4110   -9.0586  -31.9485 H   0  0  0  0  0  0  0  0  0  0  0  0
    2.1397  -14.0305  -31.7492 H   0  0  0  0  0  0  0  0  0  0  0  0
    3.1540   -9.8616  -35.1362 H   0  0  0  0  0  0  0  0  0  0  0  0
    4.7853  -10.7898  -34.3488 H   0  0  0  0  0  0  0  0  0  0  0  0
    5.9945  -10.4809  -33.0765 H   0  0  0  0  0  0  0  0  0  0  0  0
    5.2423  -11.5633  -28.1062 H   0  0  0  0  0  0  0  0  0  0  0  0
    5.2382  -13.3019  -28.2797 H   0  0  0  0  0  0  0  0  0  0  0  0
    3.8740  -12.4940  -27.5454 H   0  0  0  0  0  0  0  0  0  0  0  0
    2.0870  -15.1497  -29.8349 H   0  0  0  0  0  0  0  0  0  0  0  0
    2.2328  -14.1981  -28.3768 H   0  0  0  0  0  0  0  0  0  0  0  0
    3.6145  -15.0744  -28.9898 H   0  0  0  0  0  0  0  0  0  0  0  0
   -0.3588   -7.3910  -31.1307 H   0  0  0  0  0  0  0  0  0  0  0  0
   -0.9679   -7.9868  -35.9248 H   0  0  0  0  0  0  0  0  0  0  0  0
    6.8895   -6.0485  -33.1033 H   0  0  0  0  0  0  0  0  0  0  0  0
    6.2011   -6.2193  -34.7001 H   0  0  0  0  0  0  0  0  0  0  0  0
    7.6753   -7.0627  -34.2894 H   0  0  0  0  0  0  0  0  0  0  0  0
   -2.3989   -6.6142  -32.2045 H   0  0  0  0  0  0  0  0  0  0  0  0
   -2.7050   -6.9118  -34.6007 H   0  0  0  0  0  0  0  0  0  0  0  0
  1  2  2  0  0  0  0
  1  5  1  0  0  0  0
  1  6  1  0  0  0  0
  2  4  1  0  0  0  0
  2 18  1  0  0  0  0
  3  5  1  0  0  0  0
  3  7  1  0  0  0  0
  3 10  2  0  0  0  0
  4 20  1  0  0  0  0
  4  9  1  0  0  0  0
  5 14  1  0  0  0  0
  5 28  1  1  0  0  0
  6  8  1  0  0  0  0
  6 16  2  0  0  0  0
  7 11  1  0  0  0  0
  7 17  2  0  0  0  0
  8  9  2  0  0  0  0
  8 29  1  0  0  0  0
  9 22  1  0  0  0  0
 10 12  1  0  0  0  0
 10 30  1  0  0  0  0
 11 23  2  0  0  0  0
 11 13  1  0  0  0  0
 12 13  1  0  0  0  0
 13 24  2  0  0  0  0
 14 15  1  0  0  0  0
 14 31  1  0  0  0  0
 14 32  1  0  0  0  0
 15 19  2  0  0  0  0
 15 21  1  0  0  0  0
 20 33  1  0  0  0  0
 20 34  1  0  0  0  0
 20 35  1  0  0  0  0
 21 25  1  0  0  0  0
 22 36  1  0  0  0  0
 22 37  1  0  0  0  0
 22 38  1  0  0  0  0
 23 26  1  0  0  0  0
 23 39  1  0  0  0  0
 24 27  1  0  0  0  0
 24 40  1  0  0  0  0
 25 41  1  0  0  0  0
 25 42  1  0  0  0  0
 25 43  1  0  0  0  0
 26 27  2  0  0  0  0
 26 44  1  0  0  0  0
 27 45  1  0  0  0  0
M  CHG  1  18  -1
M  END
$$$$
