HTS1710-01266056-01
 OpenBabel03232612343D

 51 52  0  0  1  0  0  0  0  0999 V2000
    3.6053   -8.1370  -31.0923 C   0  0  0  0  0  0  0  0  0  0  0  0
    2.2707   -7.4740  -31.0587 C   0  0  0  0  0  0  0  0  0  0  0  0
    2.3006   -6.0890  -31.2307 N   0  0  0  0  0  0  0  0  0  0  0  0
    4.7965   -7.4470  -31.2935 C   0  0  0  0  0  0  0  0  0  0  0  0
    3.6414   -9.6548  -30.8746 C   0  0  2  0  0  0  0  0  0  0  0  0
    4.7248   -6.0236  -31.4650 C   0  0  0  0  0  0  0  0  0  0  0  0
    3.4989   -5.3890  -31.4210 C   0  0  0  0  0  0  0  0  0  0  0  0
    2.9520  -10.4065  -32.0301 C   0  0  0  0  0  0  0  0  0  0  0  0
    1.7327  -11.6828  -34.2381 C   0  0  0  0  0  0  0  0  0  0  0  0
    1.5011  -12.1645  -32.9347 C   0  0  0  0  0  0  0  0  0  0  0  0
    2.5666  -10.5683  -34.4443 C   0  0  0  0  0  0  0  0  0  0  0  0
    2.1060  -11.5203  -31.8344 C   0  0  0  0  0  0  0  0  0  0  0  0
    3.1761   -9.9403  -33.3387 C   0  0  0  0  0  0  0  0  0  0  0  0
    1.0031   -5.3498  -31.1902 C   0  0  0  0  0  0  0  0  0  0  0  0
    1.2288   -8.0886  -30.8901 O   0  0  0  0  0  0  0  0  0  0  0  0
    3.1606  -10.0130  -29.4349 C   0  0  0  0  0  0  0  0  0  0  0  0
    0.2159   -5.4770  -32.5080 C   0  0  0  0  0  0  0  0  0  0  0  0
    3.5743  -11.4169  -28.9617 C   0  0  0  0  0  0  0  0  0  0  0  0
    0.4796   -6.4030  -33.2578 O   0  5  0  0  0  0  0  0  0  0  0  0
    4.5484  -12.0279  -29.3735 O   0  0  0  0  0  0  0  0  0  0  0  0
    6.0127   -8.0336  -31.3326 O   0  5  0  0  0  0  0  0  0  0  0  0
    1.1449  -12.2959  -35.3107 O   0  0  0  0  0  0  0  0  0  0  0  0
    0.6770  -13.2646  -32.7714 O   0  0  0  0  0  0  0  0  0  0  0  0
    2.7639  -10.1180  -35.7387 O   0  0  0  0  0  0  0  0  0  0  0  0
   -0.6312   -4.6266  -32.7141 O   0  0  0  0  0  0  0  0  0  0  0  0
    2.7016  -11.8929  -28.0239 O   0  0  0  0  0  0  0  0  0  0  0  0
    3.4977   -3.8800  -31.5863 C   0  0  0  0  0  0  0  0  0  0  0  0
    0.7917  -14.1828  -31.6698 C   0  0  0  0  0  0  0  0  0  0  0  0
    1.7158   -9.5434  -36.5392 C   0  0  0  0  0  0  0  0  0  0  0  0
    2.9056  -13.2093  -27.4805 C   0  0  0  0  0  0  0  0  0  0  0  0
    4.6508  -10.0075  -30.9154 H   0  0  0  0  0  0  0  0  0  0  0  0
    5.5860   -5.4765  -31.6206 H   0  0  0  0  0  0  0  0  0  0  0  0
    1.9286  -11.8661  -30.8784 H   0  0  0  0  0  0  0  0  0  0  0  0
    3.7946   -9.1283  -33.4913 H   0  0  0  0  0  0  0  0  0  0  0  0
    1.2026   -4.3146  -31.0071 H   0  0  0  0  0  0  0  0  0  0  0  0
    0.4075   -5.7771  -30.4107 H   0  0  0  0  0  0  0  0  0  0  0  0
    2.0925   -9.9531  -29.4134 H   0  0  0  0  0  0  0  0  0  0  0  0
    3.6289   -9.3153  -28.7724 H   0  0  0  0  0  0  0  0  0  0  0  0
    0.7686  -13.1487  -35.2147 H   0  0  0  0  0  0  0  0  0  0  0  0
    4.5018   -3.5350  -31.7192 H   0  0  0  0  0  0  0  0  0  0  0  0
    3.0771   -3.4259  -30.7135 H   0  0  0  0  0  0  0  0  0  0  0  0
    2.9133   -3.6155  -32.4427 H   0  0  0  0  0  0  0  0  0  0  0  0
    0.0479  -14.9464  -31.7629 H   0  0  0  0  0  0  0  0  0  0  0  0
    0.6485  -13.6557  -30.7497 H   0  0  0  0  0  0  0  0  0  0  0  0
    1.7641  -14.6292  -31.6774 H   0  0  0  0  0  0  0  0  0  0  0  0
    2.1069   -9.2720  -37.4975 H   0  0  0  0  0  0  0  0  0  0  0  0
    1.3312   -8.6722  -36.0512 H   0  0  0  0  0  0  0  0  0  0  0  0
    0.9297  -10.2584  -36.6642 H   0  0  0  0  0  0  0  0  0  0  0  0
    2.1385  -13.4229  -26.7656 H   0  0  0  0  0  0  0  0  0  0  0  0
    3.8616  -13.2534  -27.0018 H   0  0  0  0  0  0  0  0  0  0  0  0
    2.8684  -13.9308  -28.2698 H   0  0  0  0  0  0  0  0  0  0  0  0
  1  2  1  0  0  0  0
  1  4  2  0  0  0  0
  1  5  1  0  0  0  0
  2  3  1  0  0  0  0
  2 15  2  0  0  0  0
  3 14  1  0  0  0  0
  3  7  1  0  0  0  0
  4  6  1  0  0  0  0
  4 21  1  0  0  0  0
  5  8  1  0  0  0  0
  5 16  1  0  0  0  0
  5 31  1  6  0  0  0
  6  7  2  0  0  0  0
  6 32  1  0  0  0  0
  7 27  1  0  0  0  0
  8 12  2  0  0  0  0
  8 13  1  0  0  0  0
  9 11  1  0  0  0  0
  9 22  1  0  0  0  0
  9 10  2  0  0  0  0
 10 12  1  0  0  0  0
 10 23  1  0  0  0  0
 11 13  2  0  0  0  0
 11 24  1  0  0  0  0
 12 33  1  0  0  0  0
 13 34  1  0  0  0  0
 14 17  1  0  0  0  0
 14 35  1  0  0  0  0
 14 36  1  0  0  0  0
 16 18  1  0  0  0  0
 16 37  1  0  0  0  0
 16 38  1  0  0  0  0
 17 19  1  0  0  0  0
 17 25  2  0  0  0  0
 18 20  2  0  0  0  0
 18 26  1  0  0  0  0
 22 39  1  0  0  0  0
 23 28  1  0  0  0  0
 24 29  1  0  0  0  0
 26 30  1  0  0  0  0
 27 40  1  0  0  0  0
 27 41  1  0  0  0  0
 27 42  1  0  0  0  0
 28 43  1  0  0  0  0
 28 44  1  0  0  0  0
 28 45  1  0  0  0  0
 29 46  1  0  0  0  0
 29 47  1  0  0  0  0
 29 48  1  0  0  0  0
 30 49  1  0  0  0  0
 30 50  1  0  0  0  0
 30 51  1  0  0  0  0
M  CHG  2  19  -1  21  -1
M  END
$$$$
