HTS1710-01152169-01
 OpenBabel03232612353D

 39 40  0  0  1  0  0  0  0  0999 V2000
    3.1277   -9.2536  -32.6441 N   0  0  0  0  0  0  0  0  0  0  0  0
    3.5520  -10.0509  -33.7016 C   0  0  0  0  0  0  0  0  0  0  0  0
    2.0158   -8.4629  -32.9368 C   0  0  0  0  0  0  0  0  0  0  0  0
    1.5429   -8.7478  -34.3140 C   0  0  0  0  0  0  0  0  0  0  0  0
    2.5734   -9.8635  -35.1839 S   0  0  0  0  0  0  0  0  0  0  0  0
    3.8421   -9.1539  -31.3406 C   0  0  2  0  0  0  0  0  0  0  0  0
    0.4560   -8.1771  -34.9428 C   0  0  0  0  0  0  0  0  0  0  0  0
    2.8600   -9.1125  -30.1313 C   0  0  0  0  0  0  0  0  0  0  0  0
    4.8620   -7.9908  -31.3739 C   0  0  0  0  0  0  0  0  0  0  0  0
   -0.6300   -7.2147  -34.5702 C   0  0  0  0  0  0  0  0  0  0  0  0
    4.8886  -11.0627  -33.6977 S   0  0  0  0  0  0  0  0  0  0  0  0
   -1.0844   -6.2553  -35.5137 C   0  0  0  0  0  0  0  0  0  0  0  0
    3.3236   -9.9998  -28.9680 C   0  0  0  0  0  0  0  0  0  0  0  0
    1.5520   -7.6327  -32.1742 O   0  0  0  0  0  0  0  0  0  0  0  0
    4.4794   -6.8958  -31.7514 O   0  5  0  0  0  0  0  0  0  0  0  0
   -2.1336   -5.3543  -35.1606 C   0  0  0  0  0  0  0  0  0  0  0  0
    4.5253  -10.1228  -28.8046 O   0  5  0  0  0  0  0  0  0  0  0  0
    5.9979   -8.2453  -31.0113 O   0  0  0  0  0  0  0  0  0  0  0  0
    2.4603  -10.4969  -28.2646 O   0  0  0  0  0  0  0  0  0  0  0  0
   -0.4372   -6.2329  -36.7459 O   0  0  0  0  0  0  0  0  0  0  0  0
   -2.5767   -4.3991  -36.0584 O   0  0  0  0  0  0  0  0  0  0  0  0
   -1.2647   -7.2995  -33.3165 C   0  0  0  0  0  0  0  0  0  0  0  0
   -2.2939   -6.4185  -32.9722 C   0  0  0  0  0  0  0  0  0  0  0  0
   -2.7218   -5.4466  -33.8801 C   0  0  0  0  0  0  0  0  0  0  0  0
   -0.5721   -5.2432  -37.7804 C   0  0  0  0  0  0  0  0  0  0  0  0
   -3.8629   -3.7569  -35.9811 C   0  0  0  0  0  0  0  0  0  0  0  0
    4.4089  -10.0487  -31.1891 H   0  0  0  0  0  0  0  0  0  0  0  0
    0.3683   -8.4946  -35.9208 H   0  0  0  0  0  0  0  0  0  0  0  0
    1.8985   -9.4495  -30.4582 H   0  0  0  0  0  0  0  0  0  0  0  0
    2.8231   -8.1037  -29.7765 H   0  0  0  0  0  0  0  0  0  0  0  0
   -0.9662   -8.0218  -32.6426 H   0  0  0  0  0  0  0  0  0  0  0  0
   -2.7393   -6.4862  -32.0437 H   0  0  0  0  0  0  0  0  0  0  0  0
   -3.4731   -4.7914  -33.6130 H   0  0  0  0  0  0  0  0  0  0  0  0
    0.0548   -5.5038  -38.6074 H   0  0  0  0  0  0  0  0  0  0  0  0
   -0.2805   -4.2869  -37.3992 H   0  0  0  0  0  0  0  0  0  0  0  0
   -1.5911   -5.2025  -38.1042 H   0  0  0  0  0  0  0  0  0  0  0  0
   -3.9634   -3.0613  -36.7880 H   0  0  0  0  0  0  0  0  0  0  0  0
   -3.9466   -3.2371  -35.0496 H   0  0  0  0  0  0  0  0  0  0  0  0
   -4.6348   -4.4949  -36.0483 H   0  0  0  0  0  0  0  0  0  0  0  0
  1  2  1  0  0  0  0
  1  3  1  0  0  0  0
  1  6  1  0  0  0  0
  2  5  1  0  0  0  0
  2 11  2  0  0  0  0
  3  4  1  0  0  0  0
  3 14  2  0  0  0  0
  4  7  2  0  0  0  0
  4  5  1  0  0  0  0
  6  8  1  0  0  0  0
  6  9  1  0  0  0  0
  6 27  1  1  0  0  0
  7 10  1  0  0  0  0
  7 28  1  0  0  0  0
  8 13  1  0  0  0  0
  8 29  1  0  0  0  0
  8 30  1  0  0  0  0
  9 15  1  0  0  0  0
  9 18  2  0  0  0  0
 10 12  2  0  0  0  0
 10 22  1  0  0  0  0
 12 16  1  0  0  0  0
 12 20  1  0  0  0  0
 13 17  1  0  0  0  0
 13 19  2  0  0  0  0
 16 21  1  0  0  0  0
 16 24  2  0  0  0  0
 20 25  1  0  0  0  0
 21 26  1  0  0  0  0
 22 23  2  0  0  0  0
 22 31  1  0  0  0  0
 23 24  1  0  0  0  0
 23 32  1  0  0  0  0
 24 33  1  0  0  0  0
 25 34  1  0  0  0  0
 25 35  1  0  0  0  0
 25 36  1  0  0  0  0
 26 37  1  0  0  0  0
 26 38  1  0  0  0  0
 26 39  1  0  0  0  0
M  CHG  2  15  -1  17  -1
M  END
$$$$
