HTS1710-00872988-01
 OpenBabel03232612353D

 43 45  0  0  1  0  0  0  0  0999 V2000
    4.4627   -7.3892  -31.4573 C   0  0  0  0  0  0  0  0  0  0  0  0
    5.0103   -8.3167  -32.3271 C   0  0  0  0  0  0  0  0  0  0  0  0
    3.7690  -10.0829  -31.0218 C   0  0  0  0  0  0  0  0  0  0  0  0
    3.3155   -9.0658  -30.2316 C   0  0  0  0  0  0  0  0  0  0  0  0
    4.6117   -9.7686  -32.2663 C   0  0  1  0  0  0  0  0  0  0  0  0
    3.5792   -7.7415  -30.4651 O   0  0  0  0  0  0  0  0  0  0  0  0
    4.8022   -5.9643  -31.5692 C   0  0  0  0  0  0  0  0  0  0  0  0
    5.9082   -8.0005  -33.3294 O   0  0  0  0  0  0  0  0  0  0  0  0
    5.7442   -5.6764  -32.6486 C   0  0  0  0  0  0  0  0  0  0  0  0
    3.4819  -11.5510  -30.7457 C   0  0  0  0  0  0  0  0  0  0  0  0
    3.9006  -10.1815  -33.5662 C   0  0  0  0  0  0  0  0  0  0  0  0
    6.2489   -6.6718  -33.4552 C   0  0  0  0  0  0  0  0  0  0  0  0
    2.5510   -9.3065  -29.1136 N   0  0  0  0  0  0  0  0  0  0  0  0
    4.3467   -5.1008  -30.8386 O   0  0  0  0  0  0  0  0  0  0  0  0
    2.6349   -9.6544  -33.9188 C   0  0  0  0  0  0  0  0  0  0  0  0
    2.4393  -12.1240  -31.0232 O   0  0  0  0  0  0  0  0  0  0  0  0
    4.5322  -12.1823  -30.1361 O   0  0  0  0  0  0  0  0  0  0  0  0
    2.0310   -8.7403  -33.0742 O   0  0  0  0  0  0  0  0  0  0  0  0
    7.2141   -6.3297  -34.5612 C   0  0  0  0  0  0  0  0  0  0  0  0
    4.5294  -11.0981  -34.4323 C   0  0  0  0  0  0  0  0  0  0  0  0
    6.7623   -6.8273  -35.8185 O   0  0  0  0  0  0  0  0  0  0  0  0
    2.0162  -10.0616  -35.1223 C   0  0  0  0  0  0  0  0  0  0  0  0
    4.4744  -13.6011  -29.9018 C   0  0  0  0  0  0  0  0  0  0  0  0
    0.6722   -8.2982  -33.2204 C   0  0  0  0  0  0  0  0  0  0  0  0
    3.9087  -11.4987  -35.6249 C   0  0  0  0  0  0  0  0  0  0  0  0
    2.6523  -10.9815  -35.9679 C   0  0  0  0  0  0  0  0  0  0  0  0
    5.5029  -10.3539  -32.1767 H   0  0  0  0  0  0  0  0  0  0  0  0
    6.0390   -4.7008  -32.8107 H   0  0  0  0  0  0  0  0  0  0  0  0
    1.9991  -10.1200  -29.0606 H   0  0  0  0  0  0  0  0  0  0  0  0
    2.5559   -8.6654  -28.3665 H   0  0  0  0  0  0  0  0  0  0  0  0
    8.1669   -6.7622  -34.3377 H   0  0  0  0  0  0  0  0  0  0  0  0
    7.2868   -5.2642  -34.6271 H   0  0  0  0  0  0  0  0  0  0  0  0
    5.4566  -11.4789  -34.1866 H   0  0  0  0  0  0  0  0  0  0  0  0
    6.7043   -7.7948  -35.7814 H   0  0  0  0  0  0  0  0  0  0  0  0
    1.0925   -9.6803  -35.3799 H   0  0  0  0  0  0  0  0  0  0  0  0
    5.3751  -13.9200  -29.4201 H   0  0  0  0  0  0  0  0  0  0  0  0
    4.3688  -14.1128  -30.8355 H   0  0  0  0  0  0  0  0  0  0  0  0
    3.6363  -13.8252  -29.2755 H   0  0  0  0  0  0  0  0  0  0  0  0
    0.4411   -7.5943  -32.4484 H   0  0  0  0  0  0  0  0  0  0  0  0
    0.0138   -9.1383  -33.1459 H   0  0  0  0  0  0  0  0  0  0  0  0
    0.5496   -7.8326  -34.1760 H   0  0  0  0  0  0  0  0  0  0  0  0
    4.3771  -12.1738  -36.2492 H   0  0  0  0  0  0  0  0  0  0  0  0
    2.1946  -11.2781  -36.8440 H   0  0  0  0  0  0  0  0  0  0  0  0
  1  2  2  0  0  0  0
  1  6  1  0  0  0  0
  1  7  1  0  0  0  0
  2  5  1  0  0  0  0
  2  8  1  0  0  0  0
  3  4  2  0  0  0  0
  3 10  1  0  0  0  0
  3  5  1  0  0  0  0
  4  6  1  0  0  0  0
  4 13  1  0  0  0  0
  5 11  1  0  0  0  0
  5 27  1  1  0  0  0
  7  9  1  0  0  0  0
  7 14  2  0  0  0  0
  8 12  1  0  0  0  0
  9 12  2  0  0  0  0
  9 28  1  0  0  0  0
 10 16  2  0  0  0  0
 10 17  1  0  0  0  0
 11 15  2  0  0  0  0
 11 20  1  0  0  0  0
 12 19  1  0  0  0  0
 13 29  1  0  0  0  0
 13 30  1  0  0  0  0
 15 18  1  0  0  0  0
 15 22  1  0  0  0  0
 17 23  1  0  0  0  0
 18 24  1  0  0  0  0
 19 21  1  0  0  0  0
 19 31  1  0  0  0  0
 19 32  1  0  0  0  0
 20 25  2  0  0  0  0
 20 33  1  0  0  0  0
 21 34  1  0  0  0  0
 22 26  2  0  0  0  0
 22 35  1  0  0  0  0
 23 36  1  0  0  0  0
 23 37  1  0  0  0  0
 23 38  1  0  0  0  0
 24 39  1  0  0  0  0
 24 40  1  0  0  0  0
 24 41  1  0  0  0  0
 25 26  1  0  0  0  0
 25 42  1  0  0  0  0
 26 43  1  0  0  0  0
M  END
$$$$
