HTS1710-00571823-01
 OpenBabel03232612343D

 28 28  0  0  0  0  0  0  0  0999 V2000
    2.4602   -9.8205  -33.2136 C   0  0  0  0  0  0  0  0  0  0  0  0
    1.5065   -8.7873  -33.4063 C   0  0  0  0  0  0  0  0  0  0  0  0
    3.1709   -9.8426  -31.9978 C   0  0  0  0  0  0  0  0  0  0  0  0
    2.7861  -10.8979  -34.2079 C   0  0  0  0  0  0  0  0  0  0  0  0
    1.3571   -7.7874  -32.4289 C   0  0  0  0  0  0  0  0  0  0  0  0
    0.5852   -8.7209  -34.5852 C   0  0  0  0  0  0  0  0  0  0  0  0
    3.0136   -8.8489  -31.0157 C   0  0  0  0  0  0  0  0  0  0  0  0
    3.5075  -10.8722  -35.3611 C   0  0  0  0  0  0  0  0  0  0  0  0
    2.1178   -7.7724  -31.2435 C   0  0  0  0  0  0  0  0  0  0  0  0
   -0.4341   -9.3881  -34.5308 O   0  5  0  0  0  0  0  0  0  0  0  0
    0.9087   -7.9854  -35.5022 O   0  0  0  0  0  0  0  0  0  0  0  0
    3.7808   -9.0318  -29.7425 C   0  0  0  0  0  0  0  0  0  0  0  0
    4.1924   -9.6827  -35.9494 C   0  0  0  0  0  0  0  0  0  0  0  0
    1.9145   -6.6015  -30.3252 C   0  0  0  0  0  0  0  0  0  0  0  0
    3.2548   -8.6347  -28.7169 O   0  5  0  0  0  0  0  0  0  0  0  0
    4.8629   -9.5863  -29.8220 O   0  0  0  0  0  0  0  0  0  0  0  0
    4.0381   -9.4905  -37.1434 O   0  5  0  0  0  0  0  0  0  0  0  0
    4.8570   -8.9808  -35.2061 O   0  0  0  0  0  0  0  0  0  0  0  0
    2.4127   -5.3358  -30.3529 C   0  0  0  0  0  0  0  0  0  0  0  0
    3.3450   -4.7752  -31.3763 C   0  0  0  0  0  0  0  0  0  0  0  0
    3.3540   -3.5671  -31.5409 O   0  5  0  0  0  0  0  0  0  0  0  0
    4.0397   -5.5711  -31.9856 O   0  0  0  0  0  0  0  0  0  0  0  0
    3.8308  -10.6161  -31.8214 H   0  0  0  0  0  0  0  0  0  0  0  0
    2.3925  -11.8230  -33.9747 H   0  0  0  0  0  0  0  0  0  0  0  0
    0.6654   -7.0379  -32.5857 H   0  0  0  0  0  0  0  0  0  0  0  0
    3.5894  -11.7607  -35.8795 H   0  0  0  0  0  0  0  0  0  0  0  0
    1.2837   -6.7909  -29.5307 H   0  0  0  0  0  0  0  0  0  0  0  0
    2.1181   -4.7020  -29.5936 H   0  0  0  0  0  0  0  0  0  0  0  0
  1  2  2  0  0  0  0
  1  3  1  0  0  0  0
  1  4  1  0  0  0  0
  2  5  1  0  0  0  0
  2  6  1  0  0  0  0
  3  7  2  0  0  0  0
  3 23  1  0  0  0  0
  4  8  2  0  0  0  0
  4 24  1  0  0  0  0
  5  9  2  0  0  0  0
  5 25  1  0  0  0  0
  6 10  1  0  0  0  0
  6 11  2  0  0  0  0
  7 12  1  0  0  0  0
  7  9  1  0  0  0  0
  8 13  1  0  0  0  0
  8 26  1  0  0  0  0
  9 14  1  0  0  0  0
 12 15  1  0  0  0  0
 12 16  2  0  0  0  0
 13 17  1  0  0  0  0
 13 18  2  0  0  0  0
 14 19  2  0  0  0  0
 14 27  1  0  0  0  0
 19 20  1  0  0  0  0
 19 28  1  0  0  0  0
 20 21  1  0  0  0  0
 20 22  2  0  0  0  0
M  CHG  4  10  -1  15  -1  17  -1  21  -1
M  END
$$$$
