HTS1710-01239398-01
 OpenBabel03232612353D

 45 46  0  0  1  0  0  0  0  0999 V2000
    3.2497   -8.2277  -31.5670 C   0  0  0  0  0  0  0  0  0  0  0  0
    4.5555   -9.7107  -32.8385 N   0  0  0  0  0  0  0  0  0  0  0  0
    4.4070   -7.6343  -31.9245 C   0  0  0  0  0  0  0  0  0  0  0  0
    3.2647   -9.6594  -32.1037 C   0  0  1  0  0  0  0  0  0  0  0  0
    5.2559   -8.5213  -32.7337 C   0  0  0  0  0  0  0  0  0  0  0  0
    3.1335  -10.7344  -31.0183 C   0  0  0  0  0  0  0  0  0  0  0  0
    2.3639  -11.9050  -31.2096 C   0  0  0  0  0  0  0  0  0  0  0  0
    2.1747   -7.7944  -30.6282 C   0  0  0  0  0  0  0  0  0  0  0  0
    3.7908  -10.5347  -29.7909 C   0  0  0  0  0  0  0  0  0  0  0  0
    2.2657  -12.8542  -30.1690 C   0  0  0  0  0  0  0  0  0  0  0  0
    6.3564   -8.2809  -33.2000 O   0  0  0  0  0  0  0  0  0  0  0  0
    4.6878   -9.4349  -36.3658 C   0  0  0  0  0  0  0  0  0  0  0  0
    4.8252   -6.3929  -31.5883 O   0  5  0  0  0  0  0  0  0  0  0  0
    2.4304   -7.3788  -29.5108 O   0  0  0  0  0  0  0  0  0  0  0  0
    3.6537   -9.2609  -36.9889 O   0  5  0  0  0  0  0  0  0  0  0  0
    5.0608  -10.9728  -33.4096 C   0  0  0  0  0  0  0  0  0  0  0  0
    2.9235  -12.6454  -28.9467 C   0  0  0  0  0  0  0  0  0  0  0  0
    3.6895  -11.4780  -28.7589 C   0  0  0  0  0  0  0  0  0  0  0  0
    1.7160  -12.0942  -32.4171 O   0  0  0  0  0  0  0  0  0  0  0  0
    5.4645   -8.5583  -36.0308 O   0  0  0  0  0  0  0  0  0  0  0  0
    2.7917  -13.6064  -27.9614 O   0  0  0  0  0  0  0  0  0  0  0  0
    4.3250  -11.3783  -34.7100 C   0  0  0  0  0  0  0  0  0  0  0  0
    5.0549  -10.8780  -35.9814 C   0  0  0  0  0  0  0  0  0  0  0  0
    0.7573   -7.7188  -31.1983 C   0  0  0  0  0  0  0  0  0  0  0  0
    0.7974  -13.1708  -32.6661 C   0  0  0  0  0  0  0  0  0  0  0  0
    2.3126  -14.9364  -28.2265 C   0  0  0  0  0  0  0  0  0  0  0  0
    2.4188   -9.8788  -32.7211 H   0  0  0  0  0  0  0  0  0  0  0  0
    4.3551   -9.6825  -29.6482 H   0  0  0  0  0  0  0  0  0  0  0  0
    1.7052  -13.7095  -30.3084 H   0  0  0  0  0  0  0  0  0  0  0  0
    4.9321  -11.7511  -32.6867 H   0  0  0  0  0  0  0  0  0  0  0  0
    6.0920  -10.8261  -33.6547 H   0  0  0  0  0  0  0  0  0  0  0  0
    4.1754  -11.3176  -27.8627 H   0  0  0  0  0  0  0  0  0  0  0  0
    3.3401  -10.9604  -34.6922 H   0  0  0  0  0  0  0  0  0  0  0  0
    4.2965  -12.4472  -34.7492 H   0  0  0  0  0  0  0  0  0  0  0  0
    6.1097  -10.9254  -35.8082 H   0  0  0  0  0  0  0  0  0  0  0  0
    4.7502  -11.5086  -36.7904 H   0  0  0  0  0  0  0  0  0  0  0  0
    0.7470   -8.1336  -32.1846 H   0  0  0  0  0  0  0  0  0  0  0  0
    0.4428   -6.6968  -31.2380 H   0  0  0  0  0  0  0  0  0  0  0  0
    0.0906   -8.2730  -30.5713 H   0  0  0  0  0  0  0  0  0  0  0  0
    0.4304  -13.1018  -33.6688 H   0  0  0  0  0  0  0  0  0  0  0  0
   -0.0221  -13.1061  -31.9811 H   0  0  0  0  0  0  0  0  0  0  0  0
    1.2998  -14.1062  -32.5338 H   0  0  0  0  0  0  0  0  0  0  0  0
    2.2967  -15.4979  -27.3158 H   0  0  0  0  0  0  0  0  0  0  0  0
    2.9613  -15.4157  -28.9297 H   0  0  0  0  0  0  0  0  0  0  0  0
    1.3234  -14.8851  -28.6312 H   0  0  0  0  0  0  0  0  0  0  0  0
  1  3  2  0  0  0  0
  1  4  1  0  0  0  0
  1  8  1  0  0  0  0
  2  4  1  0  0  0  0
  2 16  1  0  0  0  0
  2  5  1  0  0  0  0
  3  5  1  0  0  0  0
  3 13  1  0  0  0  0
  4  6  1  0  0  0  0
  4 27  1  6  0  0  0
  5 11  2  0  0  0  0
  6  7  2  0  0  0  0
  6  9  1  0  0  0  0
  7 10  1  0  0  0  0
  7 19  1  0  0  0  0
  8 14  2  0  0  0  0
  8 24  1  0  0  0  0
  9 18  2  0  0  0  0
  9 28  1  0  0  0  0
 10 17  2  0  0  0  0
 10 29  1  0  0  0  0
 12 23  1  0  0  0  0
 12 15  1  0  0  0  0
 12 20  2  0  0  0  0
 16 22  1  0  0  0  0
 16 30  1  0  0  0  0
 16 31  1  0  0  0  0
 17 18  1  0  0  0  0
 17 21  1  0  0  0  0
 18 32  1  0  0  0  0
 19 25  1  0  0  0  0
 21 26  1  0  0  0  0
 22 23  1  0  0  0  0
 22 33  1  0  0  0  0
 22 34  1  0  0  0  0
 23 35  1  0  0  0  0
 23 36  1  0  0  0  0
 24 37  1  0  0  0  0
 24 38  1  0  0  0  0
 24 39  1  0  0  0  0
 25 40  1  0  0  0  0
 25 41  1  0  0  0  0
 25 42  1  0  0  0  0
 26 43  1  0  0  0  0
 26 44  1  0  0  0  0
 26 45  1  0  0  0  0
M  CHG  2  13  -1  15  -1
M  END
$$$$
