HTS1710-00634943-01
 OpenBabel03232612363D

 37 39  0  0  1  0  0  0  0  0999 V2000
    2.9511  -10.2821  -32.3883 C   0  0  2  0  0  0  0  0  0  0  0  0
    4.0722  -10.4239  -33.3627 N   0  0  0  0  0  0  0  0  0  0  0  0
    3.4714   -9.1958  -31.4429 C   0  0  0  0  0  0  0  0  0  0  0  0
    2.6310  -11.5745  -31.6394 C   0  0  0  0  0  0  0  0  0  0  0  0
    5.1075   -9.5526  -33.0722 C   0  0  0  0  0  0  0  0  0  0  0  0
    3.9596  -11.1682  -34.6408 C   0  0  0  0  0  0  0  0  0  0  0  0
    4.6851   -8.8088  -31.8779 C   0  0  0  0  0  0  0  0  0  0  0  0
    2.5759   -8.6065  -30.3987 C   0  0  0  0  0  0  0  0  0  0  0  0
    3.4274  -11.9626  -30.5381 C   0  0  0  0  0  0  0  0  0  0  0  0
    1.5358  -12.3845  -32.0409 C   0  0  0  0  0  0  0  0  0  0  0  0
    6.1409   -9.4170  -33.7064 O   0  0  0  0  0  0  0  0  0  0  0  0
    2.9269  -10.6032  -35.6564 C   0  0  0  0  0  0  0  0  0  0  0  0
    5.4659   -7.8316  -31.3627 O   0  5  0  0  0  0  0  0  0  0  0  0
    1.6002   -7.5245  -30.8684 C   0  0  0  0  0  0  0  0  0  0  0  0
    2.5093   -9.0630  -29.2700 O   0  0  0  0  0  0  0  0  0  0  0  0
    3.0911  -13.1438  -29.8732 C   0  0  0  0  0  0  0  0  0  0  0  0
    1.2248  -13.5723  -31.3469 C   0  0  0  0  0  0  0  0  0  0  0  0
    3.5082   -9.5672  -36.6330 C   0  0  0  0  0  0  0  0  0  0  0  0
    2.0319  -13.9162  -30.2599 C   0  0  0  0  0  0  0  0  0  0  0  0
    3.7157  -13.6915  -28.7955 O   0  0  0  0  0  0  0  0  0  0  0  0
    4.6203   -9.1420  -36.3723 O   0  5  0  0  0  0  0  0  0  0  0  0
    2.8352   -9.2319  -37.5928 O   0  0  0  0  0  0  0  0  0  0  0  0
    1.9122  -15.0066  -29.4543 O   0  0  0  0  0  0  0  0  0  0  0  0
    2.9878  -14.9129  -28.4734 C   0  0  0  0  0  0  0  0  0  0  0  0
    2.0250  -10.0388  -32.8659 H   0  0  0  0  0  0  0  0  0  0  0  0
    3.6798  -12.1753  -34.4121 H   0  0  0  0  0  0  0  0  0  0  0  0
    4.9149  -11.0827  -35.1154 H   0  0  0  0  0  0  0  0  0  0  0  0
    4.2317  -11.3914  -30.2350 H   0  0  0  0  0  0  0  0  0  0  0  0
    0.9608  -12.1007  -32.8496 H   0  0  0  0  0  0  0  0  0  0  0  0
    2.1346  -10.1392  -35.1069 H   0  0  0  0  0  0  0  0  0  0  0  0
    2.5915  -11.4297  -36.2472 H   0  0  0  0  0  0  0  0  0  0  0  0
    1.8222   -7.2592  -31.8809 H   0  0  0  0  0  0  0  0  0  0  0  0
    1.6976   -6.6611  -30.2439 H   0  0  0  0  0  0  0  0  0  0  0  0
    0.5989   -7.8968  -30.8086 H   0  0  0  0  0  0  0  0  0  0  0  0
    0.4300  -14.1658  -31.6317 H   0  0  0  0  0  0  0  0  0  0  0  0
    2.5851  -14.8563  -27.4836 H   0  0  0  0  0  0  0  0  0  0  0  0
    3.6258  -15.7712  -28.5062 H   0  0  0  0  0  0  0  0  0  0  0  0
  1  2  1  0  0  0  0
  1  3  1  0  0  0  0
  1  4  1  0  0  0  0
  1 25  1  6  0  0  0
  2  5  1  0  0  0  0
  2  6  1  0  0  0  0
  3  7  2  0  0  0  0
  3  8  1  0  0  0  0
  4  9  2  0  0  0  0
  4 10  1  0  0  0  0
  5 11  2  0  0  0  0
  5  7  1  0  0  0  0
  6 12  1  0  0  0  0
  6 26  1  0  0  0  0
  6 27  1  0  0  0  0
  7 13  1  0  0  0  0
  8 14  1  0  0  0  0
  8 15  2  0  0  0  0
  9 16  1  0  0  0  0
  9 28  1  0  0  0  0
 10 17  2  0  0  0  0
 10 29  1  0  0  0  0
 12 18  1  0  0  0  0
 12 30  1  0  0  0  0
 12 31  1  0  0  0  0
 14 32  1  0  0  0  0
 14 33  1  0  0  0  0
 14 34  1  0  0  0  0
 16 19  2  0  0  0  0
 16 20  1  0  0  0  0
 17 19  1  0  0  0  0
 17 35  1  0  0  0  0
 18 21  1  0  0  0  0
 18 22  2  0  0  0  0
 19 23  1  0  0  0  0
 20 24  1  0  0  0  0
 23 24  1  0  0  0  0
 24 36  1  0  0  0  0
 24 37  1  0  0  0  0
M  CHG  2  13  -1  21  -1
M  END
$$$$
