HTS1710-00593851-01
 OpenBabel03232612363D

 39 41  0  0  0  0  0  0  0  0999 V2000
    3.1390  -12.3151  -32.3325 C   0  0  0  0  0  0  0  0  0  0  0  0
    1.9881  -13.0827  -32.3025 C   0  0  0  0  0  0  0  0  0  0  0  0
    3.3995  -11.4216  -33.3767 C   0  0  0  0  0  0  0  0  0  0  0  0
    3.9376  -12.6317  -31.1168 C   0  0  0  0  0  0  0  0  0  0  0  0
    2.0176  -13.9130  -31.0684 C   0  0  0  0  0  0  0  0  0  0  0  0
    1.0239  -12.9964  -33.3123 C   0  0  0  0  0  0  0  0  0  0  0  0
    2.4457  -11.3226  -34.4144 C   0  0  0  0  0  0  0  0  0  0  0  0
    3.2130  -13.5992  -30.4308 N   0  0  0  0  0  0  0  0  0  0  0  0
    5.0052  -12.1449  -30.7902 O   0  0  0  0  0  0  0  0  0  0  0  0
    1.1647  -14.6988  -30.6906 O   0  0  0  0  0  0  0  0  0  0  0  0
    1.2619  -12.1025  -34.3755 C   0  0  0  0  0  0  0  0  0  0  0  0
    2.7185  -10.1794  -35.7795 S   0  0  0  0  0  0  0  0  0  0  0  0
    3.6284  -14.1644  -29.1338 C   0  0  0  0  0  0  0  0  0  0  0  0
    1.3408   -9.0350  -35.5853 C   0  0  0  0  0  0  0  0  0  0  0  0
    2.5169  -10.9173  -37.0313 O   0  0  0  0  0  0  0  0  0  0  0  0
    3.9605   -9.4451  -35.5174 O   0  0  0  0  0  0  0  0  0  0  0  0
    2.9009  -13.5030  -27.9398 C   0  0  0  0  0  0  0  0  0  0  0  0
    0.6591   -8.9505  -34.3593 C   0  0  0  0  0  0  0  0  0  0  0  0
    0.9252   -8.2374  -36.6645 C   0  0  0  0  0  0  0  0  0  0  0  0
    3.1240  -11.9866  -27.8775 C   0  0  0  0  0  0  0  0  0  0  0  0
   -0.4201   -8.0662  -34.2095 C   0  0  0  0  0  0  0  0  0  0  0  0
   -0.1542   -7.3522  -36.5152 C   0  0  0  0  0  0  0  0  0  0  0  0
    4.2406  -11.5750  -28.1428 O   0  5  0  0  0  0  0  0  0  0  0  0
    2.1611  -11.2940  -27.5971 O   0  0  0  0  0  0  0  0  0  0  0  0
   -0.8393   -7.2544  -35.2850 C   0  0  0  0  0  0  0  0  0  0  0  0
   -2.0015   -6.3001  -35.1241 C   0  0  0  0  0  0  0  0  0  0  0  0
   -2.1602   -5.7836  -34.0306 O   0  5  0  0  0  0  0  0  0  0  0  0
   -2.7096   -6.1055  -36.0974 O   0  0  0  0  0  0  0  0  0  0  0  0
    4.2606  -10.8529  -33.3888 H   0  0  0  0  0  0  0  0  0  0  0  0
    0.1659  -13.5690  -33.2797 H   0  0  0  0  0  0  0  0  0  0  0  0
    0.5674  -12.0144  -35.1337 H   0  0  0  0  0  0  0  0  0  0  0  0
    4.6820  -14.0183  -29.0175 H   0  0  0  0  0  0  0  0  0  0  0  0
    3.3733  -15.2035  -29.1352 H   0  0  0  0  0  0  0  0  0  0  0  0
    3.2639  -13.9401  -27.0331 H   0  0  0  0  0  0  0  0  0  0  0  0
    1.8518  -13.6706  -28.0673 H   0  0  0  0  0  0  0  0  0  0  0  0
    0.9533   -9.5413  -33.5659 H   0  0  0  0  0  0  0  0  0  0  0  0
    1.4151   -8.3024  -37.5704 H   0  0  0  0  0  0  0  0  0  0  0  0
   -0.9121   -8.0089  -33.3041 H   0  0  0  0  0  0  0  0  0  0  0  0
   -0.4495   -6.7674  -37.3125 H   0  0  0  0  0  0  0  0  0  0  0  0
  1  2  2  0  0  0  0
  1  3  1  0  0  0  0
  1  4  1  0  0  0  0
  2  5  1  0  0  0  0
  2  6  1  0  0  0  0
  3  7  2  0  0  0  0
  3 29  1  0  0  0  0
  4  8  1  0  0  0  0
  4  9  2  0  0  0  0
  5 10  2  0  0  0  0
  5  8  1  0  0  0  0
  6 11  2  0  0  0  0
  6 30  1  0  0  0  0
  7 12  1  0  0  0  0
  7 11  1  0  0  0  0
  8 13  1  0  0  0  0
 11 31  1  0  0  0  0
 12 14  1  0  0  0  0
 12 15  2  0  0  0  0
 12 16  2  0  0  0  0
 13 17  1  0  0  0  0
 13 32  1  0  0  0  0
 13 33  1  0  0  0  0
 14 18  2  0  0  0  0
 14 19  1  0  0  0  0
 17 20  1  0  0  0  0
 17 34  1  0  0  0  0
 17 35  1  0  0  0  0
 18 21  1  0  0  0  0
 18 36  1  0  0  0  0
 19 22  2  0  0  0  0
 19 37  1  0  0  0  0
 20 23  1  0  0  0  0
 20 24  2  0  0  0  0
 21 25  2  0  0  0  0
 21 38  1  0  0  0  0
 22 25  1  0  0  0  0
 22 39  1  0  0  0  0
 25 26  1  0  0  0  0
 26 27  1  0  0  0  0
 26 28  2  0  0  0  0
M  CHG  2  23  -1  27  -1
M  END
$$$$
