HTS1710-02663578-01
 OpenBabel03232612363D

 31 30  0  0  0  0  0  0  0  0999 V2000
    3.6749   -9.5988  -29.4983 C   0  0  0  0  0  0  0  0  0  0  0  0
    4.0363   -9.5037  -31.9520 C   0  0  0  0  0  0  0  0  0  0  0  0
    3.2980  -10.8295  -29.0351 C   0  0  0  0  0  0  0  0  0  0  0  0
    2.8047  -10.0339  -34.7407 C   0  0  0  0  0  0  0  0  0  0  0  0
    4.0453   -9.4887  -34.5562 C   0  0  0  0  0  0  0  0  0  0  0  0
    4.7538   -9.2207  -33.2462 C   0  0  0  0  0  0  0  0  0  0  0  0
    4.4893   -9.2702  -30.6883 C   0  0  0  0  0  0  0  0  0  0  0  0
    3.6544  -12.1399  -29.6741 C   0  0  0  0  0  0  0  0  0  0  0  0
    2.0364  -10.3299  -36.0001 C   0  0  0  0  0  0  0  0  0  0  0  0
    4.7945  -12.5751  -29.7404 O   0  0  0  0  0  0  0  0  0  0  0  0
    5.8942   -8.7843  -33.2457 O   0  0  0  0  0  0  0  0  0  0  0  0
    2.1853   -9.6316  -36.9886 O   0  0  0  0  0  0  0  0  0  0  0  0
    2.5436  -10.9656  -27.9182 O   0  0  0  0  0  0  0  0  0  0  0  0
    4.7921   -9.1122  -35.6224 O   0  5  0  0  0  0  0  0  0  0  0  0
    5.7101   -8.7267  -30.4772 O   0  5  0  0  0  0  0  0  0  0  0  0
    2.5593  -12.7908  -30.1726 O   0  0  0  0  0  0  0  0  0  0  0  0
    1.0614  -11.5132  -36.0336 C   0  0  0  0  0  0  0  0  0  0  0  0
    2.7330  -14.0468  -30.8534 C   0  0  0  0  0  0  0  0  0  0  0  0
    1.3736  -14.4652  -31.4423 C   0  0  0  0  0  0  0  0  0  0  0  0
    3.3475   -8.7924  -28.9437 H   0  0  0  0  0  0  0  0  0  0  0  0
    3.0959   -9.9214  -32.0316 H   0  0  0  0  0  0  0  0  0  0  0  0
    2.3124  -10.2847  -33.8691 H   0  0  0  0  0  0  0  0  0  0  0  0
    2.3283  -11.8200  -27.5994 H   0  0  0  0  0  0  0  0  0  0  0  0
    1.0643  -12.0047  -35.0832 H   0  0  0  0  0  0  0  0  0  0  0  0
    1.3642  -12.2035  -36.7931 H   0  0  0  0  0  0  0  0  0  0  0  0
    0.0755  -11.1570  -36.2480 H   0  0  0  0  0  0  0  0  0  0  0  0
    3.0727  -14.7897  -30.1623 H   0  0  0  0  0  0  0  0  0  0  0  0
    3.4594  -13.9479  -31.6328 H   0  0  0  0  0  0  0  0  0  0  0  0
    0.6571  -14.5603  -30.6533 H   0  0  0  0  0  0  0  0  0  0  0  0
    1.4766  -15.4038  -31.9456 H   0  0  0  0  0  0  0  0  0  0  0  0
    1.0422  -13.7222  -32.1374 H   0  0  0  0  0  0  0  0  0  0  0  0
  1  3  2  0  0  0  0
  1  7  1  0  0  0  0
  1 20  1  0  0  0  0
  2  6  1  0  0  0  0
  2  7  2  0  0  0  0
  2 21  1  0  0  0  0
  3  8  1  0  0  0  0
  3 13  1  0  0  0  0
  4  5  2  0  0  0  0
  4  9  1  0  0  0  0
  4 22  1  0  0  0  0
  5  6  1  0  0  0  0
  5 14  1  0  0  0  0
  6 11  2  0  0  0  0
  7 15  1  0  0  0  0
  8 10  2  0  0  0  0
  8 16  1  0  0  0  0
  9 12  2  0  0  0  0
  9 17  1  0  0  0  0
 13 23  1  0  0  0  0
 16 18  1  0  0  0  0
 17 24  1  0  0  0  0
 17 25  1  0  0  0  0
 17 26  1  0  0  0  0
 18 19  1  0  0  0  0
 18 27  1  0  0  0  0
 18 28  1  0  0  0  0
 19 29  1  0  0  0  0
 19 30  1  0  0  0  0
 19 31  1  0  0  0  0
M  CHG  2  14  -1  15  -1
M  END
$$$$
