HTS1710-01226046-01
 OpenBabel03232612343D

 30 31  0  0  0  0  0  0  0  0999 V2000
    1.4907   -8.8345  -36.2056 C   0  0  0  0  0  0  0  0  0  0  0  0
    1.2361   -9.4121  -34.9357 C   0  0  0  0  0  0  0  0  0  0  0  0
    2.6470   -9.2664  -37.0742 C   0  0  0  0  0  0  0  0  0  0  0  0
    2.0549  -10.4198  -34.4527 N   0  0  0  0  0  0  0  0  0  0  0  0
   -1.9069   -7.4884  -33.8386 C   0  0  0  0  0  0  0  0  0  0  0  0
    3.8328   -9.4546  -29.9401 C   0  0  0  0  0  0  0  0  0  0  0  0
   -0.7210   -7.9502  -34.6567 C   0  0  0  0  0  0  0  0  0  0  0  0
    0.1222   -8.9780  -34.1856 C   0  0  0  0  0  0  0  0  0  0  0  0
    0.6496   -7.8058  -36.6698 C   0  0  0  0  0  0  0  0  0  0  0  0
    3.1701  -10.3975  -30.9217 C   0  0  0  0  0  0  0  0  0  0  0  0
    2.3051  -10.8699  -33.1695 C   0  0  0  0  0  0  0  0  0  0  0  0
    2.9062   -9.9905  -32.2486 C   0  0  0  0  0  0  0  0  0  0  0  0
   -0.4394   -7.3655  -35.9066 C   0  0  0  0  0  0  0  0  0  0  0  0
    2.6859   -8.8498  -38.2195 O   0  5  0  0  0  0  0  0  0  0  0  0
   -2.9998   -7.9518  -34.1189 O   0  5  0  0  0  0  0  0  0  0  0  0
    3.7211   -8.2581  -30.1441 O   0  5  0  0  0  0  0  0  0  0  0  0
    3.4797   -9.9934  -36.5610 O   0  0  0  0  0  0  0  0  0  0  0  0
    4.4398   -9.9491  -29.0052 O   0  0  0  0  0  0  0  0  0  0  0  0
   -1.6970   -6.6842  -32.9467 O   0  0  0  0  0  0  0  0  0  0  0  0
    2.8029  -11.7027  -30.5279 C   0  0  0  0  0  0  0  0  0  0  0  0
    2.1834  -12.5735  -31.4359 C   0  0  0  0  0  0  0  0  0  0  0  0
    1.9293  -12.1603  -32.7509 C   0  0  0  0  0  0  0  0  0  0  0  0
    2.5499  -10.9049  -35.1520 H   0  0  0  0  0  0  0  0  0  0  0  0
   -0.0791   -9.4209  -33.2755 H   0  0  0  0  0  0  0  0  0  0  0  0
    0.8379   -7.3696  -37.5859 H   0  0  0  0  0  0  0  0  0  0  0  0
    3.1575   -9.0351  -32.5471 H   0  0  0  0  0  0  0  0  0  0  0  0
   -1.0405   -6.6062  -36.2632 H   0  0  0  0  0  0  0  0  0  0  0  0
    2.9921  -12.0186  -29.5638 H   0  0  0  0  0  0  0  0  0  0  0  0
    1.9134  -13.5229  -31.1345 H   0  0  0  0  0  0  0  0  0  0  0  0
    1.4663  -12.8027  -33.4127 H   0  0  0  0  0  0  0  0  0  0  0  0
  1  2  2  0  0  0  0
  1  3  1  0  0  0  0
  1  9  1  0  0  0  0
  2  4  1  0  0  0  0
  2  8  1  0  0  0  0
  3 14  1  0  0  0  0
  3 17  2  0  0  0  0
  4 11  1  0  0  0  0
  4 23  1  0  0  0  0
  5  7  1  0  0  0  0
  5 15  1  0  0  0  0
  5 19  2  0  0  0  0
  6 10  1  0  0  0  0
  6 16  1  0  0  0  0
  6 18  2  0  0  0  0
  7 13  1  0  0  0  0
  7  8  2  0  0  0  0
  8 24  1  0  0  0  0
  9 13  2  0  0  0  0
  9 25  1  0  0  0  0
 10 12  2  0  0  0  0
 10 20  1  0  0  0  0
 11 12  1  0  0  0  0
 11 22  2  0  0  0  0
 12 26  1  0  0  0  0
 13 27  1  0  0  0  0
 20 21  2  0  0  0  0
 20 28  1  0  0  0  0
 21 22  1  0  0  0  0
 21 29  1  0  0  0  0
 22 30  1  0  0  0  0
M  CHG  3  14  -1  15  -1  16  -1
M  END
$$$$
