HTS1710-01243136-01
 OpenBabel03232612353D

 46 48  0  0  1  0  0  0  0  0999 V2000
    4.4129  -11.3547  -31.3945 C   0  0  0  0  0  0  0  0  0  0  0  0
    4.7259  -10.5612  -33.6276 N   0  0  0  0  0  0  0  0  0  0  0  0
    4.6256  -10.0823  -32.2375 C   0  0  1  0  0  0  0  0  0  0  0  0
    4.2486  -12.4781  -32.3656 C   0  0  0  0  0  0  0  0  0  0  0  0
    4.5084  -11.9122  -33.7704 C   0  0  0  0  0  0  0  0  0  0  0  0
    4.3466  -11.3384  -30.0263 C   0  0  0  0  0  0  0  0  0  0  0  0
    3.5196   -9.0337  -32.0544 C   0  0  0  0  0  0  0  0  0  0  0  0
    3.8112   -7.6769  -31.7781 C   0  0  0  0  0  0  0  0  0  0  0  0
    5.0564   -9.6269  -34.7170 C   0  0  0  0  0  0  0  0  0  0  0  0
    2.1775   -9.4406  -32.1664 C   0  0  0  0  0  0  0  0  0  0  0  0
    2.7574   -6.7471  -31.6309 C   0  0  0  0  0  0  0  0  0  0  0  0
    3.8388   -9.4306  -35.6217 C   0  0  0  0  0  0  0  0  0  0  0  0
    4.5180  -12.5534  -34.8071 O   0  0  0  0  0  0  0  0  0  0  0  0
    3.8931  -13.6232  -32.1503 O   0  0  0  0  0  0  0  0  0  0  0  0
    4.0828  -12.4742  -29.0823 C   0  0  0  0  0  0  0  0  0  0  0  0
    2.7412   -9.4711  -35.0948 O   0  5  0  0  0  0  0  0  0  0  0  0
    4.5556  -10.1637  -29.3843 O   0  5  0  0  0  0  0  0  0  0  0  0
    1.4162   -7.1673  -31.7551 C   0  0  0  0  0  0  0  0  0  0  0  0
    1.1351   -8.5153  -32.0200 C   0  0  0  0  0  0  0  0  0  0  0  0
    5.1333   -7.2878  -31.6587 O   0  0  0  0  0  0  0  0  0  0  0  0
    4.0519   -9.2418  -36.8074 O   0  0  0  0  0  0  0  0  0  0  0  0
    0.3530   -6.2931  -31.6264 O   0  0  0  0  0  0  0  0  0  0  0  0
    4.7622  -13.7052  -29.2395 C   0  0  0  0  0  0  0  0  0  0  0  0
    3.1079  -12.3787  -28.0653 C   0  0  0  0  0  0  0  0  0  0  0  0
    5.5826   -5.9295  -31.8024 C   0  0  0  0  0  0  0  0  0  0  0  0
    0.4856   -4.9711  -31.0729 C   0  0  0  0  0  0  0  0  0  0  0  0
    2.8591  -13.4560  -27.1999 C   0  0  0  0  0  0  0  0  0  0  0  0
    4.5151  -14.7813  -28.3709 C   0  0  0  0  0  0  0  0  0  0  0  0
    3.5693  -14.6560  -27.3452 C   0  0  0  0  0  0  0  0  0  0  0  0
    5.5073   -9.5608  -31.9286 H   0  0  0  0  0  0  0  0  0  0  0  0
    5.8657  -10.0251  -35.2926 H   0  0  0  0  0  0  0  0  0  0  0  0
    5.3400   -8.6839  -34.2984 H   0  0  0  0  0  0  0  0  0  0  0  0
    1.9584  -10.4306  -32.3584 H   0  0  0  0  0  0  0  0  0  0  0  0
    2.9695   -5.7570  -31.4318 H   0  0  0  0  0  0  0  0  0  0  0  0
    0.1554   -8.8276  -32.1076 H   0  0  0  0  0  0  0  0  0  0  0  0
    5.4486  -13.8141  -30.0024 H   0  0  0  0  0  0  0  0  0  0  0  0
    2.5704  -11.5044  -27.9565 H   0  0  0  0  0  0  0  0  0  0  0  0
    6.6430   -5.8883  -31.6658 H   0  0  0  0  0  0  0  0  0  0  0  0
    5.1042   -5.3160  -31.0678 H   0  0  0  0  0  0  0  0  0  0  0  0
    5.3348   -5.5735  -32.7805 H   0  0  0  0  0  0  0  0  0  0  0  0
   -0.4679   -4.4857  -31.0764 H   0  0  0  0  0  0  0  0  0  0  0  0
    1.1760   -4.4051  -31.6628 H   0  0  0  0  0  0  0  0  0  0  0  0
    0.8473   -5.0396  -30.0683 H   0  0  0  0  0  0  0  0  0  0  0  0
    2.1513  -13.3642  -26.4545 H   0  0  0  0  0  0  0  0  0  0  0  0
    5.0319  -15.6668  -28.4888 H   0  0  0  0  0  0  0  0  0  0  0  0
    3.3961  -15.4427  -26.7001 H   0  0  0  0  0  0  0  0  0  0  0  0
  1  3  1  0  0  0  0
  1  4  1  0  0  0  0
  1  6  2  0  0  0  0
  2  3  1  0  0  0  0
  2  9  1  0  0  0  0
  2  5  1  0  0  0  0
  3  7  1  0  0  0  0
  3 30  1  1  0  0  0
  4  5  1  0  0  0  0
  4 14  2  0  0  0  0
  5 13  2  0  0  0  0
  6 15  1  0  0  0  0
  6 17  1  0  0  0  0
  7  8  2  0  0  0  0
  7 10  1  0  0  0  0
  8 11  1  0  0  0  0
  8 20  1  0  0  0  0
  9 12  1  0  0  0  0
  9 31  1  0  0  0  0
  9 32  1  0  0  0  0
 10 19  2  0  0  0  0
 10 33  1  0  0  0  0
 11 18  2  0  0  0  0
 11 34  1  0  0  0  0
 12 16  1  0  0  0  0
 12 21  2  0  0  0  0
 15 23  2  0  0  0  0
 15 24  1  0  0  0  0
 18 19  1  0  0  0  0
 18 22  1  0  0  0  0
 19 35  1  0  0  0  0
 20 25  1  0  0  0  0
 22 26  1  0  0  0  0
 23 28  1  0  0  0  0
 23 36  1  0  0  0  0
 24 27  2  0  0  0  0
 24 37  1  0  0  0  0
 25 38  1  0  0  0  0
 25 39  1  0  0  0  0
 25 40  1  0  0  0  0
 26 41  1  0  0  0  0
 26 42  1  0  0  0  0
 26 43  1  0  0  0  0
 27 29  1  0  0  0  0
 27 44  1  0  0  0  0
 28 29  2  0  0  0  0
 28 45  1  0  0  0  0
 29 46  1  0  0  0  0
M  CHG  2  16  -1  17  -1
M  END
$$$$
