HTS1710-01514318-01
 OpenBabel03232612353D

 37 38  0  0  1  0  0  0  0  0999 V2000
    0.8576  -10.2177  -34.3191 N   0  0  0  0  0  0  0  0  0  0  0  0
    0.8237  -11.3693  -35.1048 C   0  0  0  0  0  0  0  0  0  0  0  0
    1.2891  -12.5520  -34.5387 N   0  0  0  0  0  0  0  0  0  0  0  0
    1.3302  -10.1942  -33.0058 C   0  0  0  0  0  0  0  0  0  0  0  0
    1.8136  -11.5061  -32.4930 C   0  0  0  0  0  0  0  0  0  0  0  0
    1.7738  -12.7075  -33.3194 C   0  0  0  0  0  0  0  0  0  0  0  0
    5.3736  -14.0761  -27.7483 S   0  0  0  0  0  0  0  0  0  0  0  0
    2.2881  -11.5411  -31.1948 C   0  0  0  0  0  0  0  0  0  0  0  0
    4.8527  -13.2118  -29.2668 C   0  0  0  0  0  0  0  0  0  0  0  0
    3.4262  -12.5914  -29.2323 C   0  0  2  0  0  0  0  0  0  0  0  0
    2.7613  -12.6616  -30.5467 N   0  0  0  0  0  0  0  0  0  0  0  0
    3.5047  -11.1243  -28.7748 C   0  0  0  0  0  0  0  0  0  0  0  0
    0.3888   -8.9933  -34.8910 C   0  0  0  0  0  0  0  0  0  0  0  0
    0.4169  -11.3584  -36.2544 O   0  0  0  0  0  0  0  0  0  0  0  0
    1.3340   -9.1741  -32.3334 O   0  0  0  0  0  0  0  0  0  0  0  0
    5.1313  -15.4808  -28.0366 O   0  0  0  0  0  0  0  0  0  0  0  0
    4.5273  -13.5089  -26.7120 O   0  0  0  0  0  0  0  0  0  0  0  0
    4.5054  -10.4905  -29.0657 O   0  5  0  0  0  0  0  0  0  0  0  0
    6.7794  -13.7243  -27.6394 O   0  0  0  0  0  1  0  0  0  0  0  0
    2.1841  -13.9326  -32.9313 O   0  0  0  0  0  0  0  0  0  0  0  0
    0.8502   -8.5769  -36.1551 C   0  0  0  0  0  0  0  0  0  0  0  0
   -0.5363   -8.1935  -34.1934 C   0  0  0  0  0  0  0  0  0  0  0  0
    2.5476  -10.6853  -28.1600 O   0  0  0  0  0  0  0  0  0  0  0  0
   -0.5305   -6.5801  -36.0117 C   0  0  0  0  0  0  0  0  0  0  0  0
    0.3918   -7.3723  -36.7142 C   0  0  0  0  0  0  0  0  0  0  0  0
   -0.9954   -6.9896  -34.7528 C   0  0  0  0  0  0  0  0  0  0  0  0
   -1.1533   -4.9425  -36.7722 Br  0  0  0  0  0  0  0  0  0  0  0  0
    2.2878  -10.6542  -30.6670 H   0  0  0  0  0  0  0  0  0  0  0  0
    4.8868  -13.9141  -30.0733 H   0  0  0  0  0  0  0  0  0  0  0  0
    5.5269  -12.3887  -29.3807 H   0  0  0  0  0  0  0  0  0  0  0  0
    2.8444  -13.1621  -28.5388 H   0  0  0  0  0  0  0  0  0  0  0  0
    2.6516  -13.5404  -30.9767 H   0  0  0  0  0  0  0  0  0  0  0  0
    2.7669  -14.4254  -33.4748 H   0  0  0  0  0  0  0  0  0  0  0  0
    1.5275   -9.1588  -36.6724 H   0  0  0  0  0  0  0  0  0  0  0  0
   -0.8786   -8.4931  -33.2670 H   0  0  0  0  0  0  0  0  0  0  0  0
    0.7325   -7.0700  -37.6402 H   0  0  0  0  0  0  0  0  0  0  0  0
   -1.6740   -6.4068  -34.2382 H   0  0  0  0  0  0  0  0  0  0  0  0
  1  2  1  0  0  0  0
  1  4  1  0  0  0  0
  1 13  1  0  0  0  0
  2  3  1  0  0  0  0
  2 14  2  0  0  0  0
  3  6  2  0  0  0  0
  4  5  1  0  0  0  0
  4 15  2  0  0  0  0
  5  6  1  0  0  0  0
  5  8  2  0  0  0  0
  6 20  1  0  0  0  0
  7  9  1  0  0  0  0
  7 16  2  0  0  0  0
  7 17  2  0  0  0  0
  7 19  1  0  0  0  0
  8 11  1  0  0  0  0
  8 28  1  0  0  0  0
  9 10  1  0  0  0  0
  9 29  1  0  0  0  0
  9 30  1  0  0  0  0
 10 11  1  0  0  0  0
 10 12  1  0  0  0  0
 10 31  1  1  0  0  0
 11 32  1  0  0  0  0
 12 18  1  0  0  0  0
 12 23  2  0  0  0  0
 13 21  2  0  0  0  0
 13 22  1  0  0  0  0
 20 33  1  0  0  0  0
 21 25  1  0  0  0  0
 21 34  1  0  0  0  0
 22 26  2  0  0  0  0
 22 35  1  0  0  0  0
 24 26  1  0  0  0  0
 24 27  1  0  0  0  0
 24 25  2  0  0  0  0
 25 36  1  0  0  0  0
 26 37  1  0  0  0  0
M  CHG  1  18  -1
M  END
$$$$
