HTS1710-00576758-01
 OpenBabel03232612353D

 40 40  0  0  0  0  0  0  0  0999 V2000
    4.2972  -11.3771  -33.6236 C   0  0  0  0  0  0  0  0  0  0  0  0
    4.5437  -10.2917  -32.7669 C   0  0  0  0  0  0  0  0  0  0  0  0
    4.0453  -12.6474  -33.0829 C   0  0  0  0  0  0  0  0  0  0  0  0
    4.2661  -11.1224  -35.4085 S   0  0  0  0  0  0  0  0  0  0  0  0
    4.5498  -10.4646  -31.3685 C   0  0  0  0  0  0  0  0  0  0  0  0
    4.0446  -12.8333  -31.6929 C   0  0  0  0  0  0  0  0  0  0  0  0
    2.6549  -11.4202  -35.8675 N   0  0  0  0  0  0  0  0  0  0  0  0
    5.0537  -12.1594  -36.0831 O   0  0  0  0  0  0  0  0  0  0  0  0
    4.4300   -9.6901  -35.6750 O   0  0  0  0  0  0  0  0  0  0  0  0
    4.2932  -11.7462  -30.8252 C   0  0  0  0  0  0  0  0  0  0  0  0
    4.8178   -9.2696  -30.4923 C   0  0  0  0  0  0  0  0  0  0  0  0
    1.5910  -10.7567  -35.0987 C   0  0  0  0  0  0  0  0  0  0  0  0
    4.2696  -11.9064  -29.4499 O   0  0  0  0  0  0  0  0  0  0  0  0
    4.1043   -9.1119  -29.5170 O   0  5  0  0  0  0  0  0  0  0  0  0
    5.7476   -8.5491  -30.8108 O   0  0  0  0  0  0  0  0  0  0  0  0
    1.2293   -9.4055  -35.7567 C   0  0  0  0  0  0  0  0  0  0  0  0
    4.3616  -13.1856  -28.8007 C   0  0  0  0  0  0  0  0  0  0  0  0
    0.0632   -8.6748  -35.0455 C   0  0  0  0  0  0  0  0  0  0  0  0
   -0.3231   -7.3327  -35.7228 C   0  0  0  0  0  0  0  0  0  0  0  0
   -1.4127   -6.5538  -34.9425 C   0  0  0  0  0  0  0  0  0  0  0  0
   -2.7157   -7.3473  -34.7694 C   0  0  0  0  0  0  0  0  0  0  0  0
   -3.5021   -7.3362  -35.7014 O   0  5  0  0  0  0  0  0  0  0  0  0
   -2.8768   -7.9370  -33.7153 O   0  0  0  0  0  0  0  0  0  0  0  0
    4.7225   -9.3570  -33.1661 H   0  0  0  0  0  0  0  0  0  0  0  0
    3.8602  -13.4463  -33.7094 H   0  0  0  0  0  0  0  0  0  0  0  0
    3.8614  -13.7704  -31.3012 H   0  0  0  0  0  0  0  0  0  0  0  0
    2.4993  -12.4258  -35.7976 H   0  0  0  0  0  0  0  0  0  0  0  0
    1.9308  -10.5846  -34.0989 H   0  0  0  0  0  0  0  0  0  0  0  0
    0.7243  -11.3840  -35.0839 H   0  0  0  0  0  0  0  0  0  0  0  0
    0.9482   -9.5864  -36.7732 H   0  0  0  0  0  0  0  0  0  0  0  0
    2.0911   -8.7754  -35.6849 H   0  0  0  0  0  0  0  0  0  0  0  0
    4.3213  -13.0510  -27.7399 H   0  0  0  0  0  0  0  0  0  0  0  0
    5.2861  -13.6545  -29.0658 H   0  0  0  0  0  0  0  0  0  0  0  0
    3.5458  -13.8036  -29.1130 H   0  0  0  0  0  0  0  0  0  0  0  0
    0.3535   -8.4744  -34.0353 H   0  0  0  0  0  0  0  0  0  0  0  0
   -0.7923   -9.3152  -35.0992 H   0  0  0  0  0  0  0  0  0  0  0  0
   -0.6902   -7.5399  -36.7063 H   0  0  0  0  0  0  0  0  0  0  0  0
    0.5543   -6.7206  -35.7456 H   0  0  0  0  0  0  0  0  0  0  0  0
   -1.6320   -5.6513  -35.4738 H   0  0  0  0  0  0  0  0  0  0  0  0
   -1.0259   -6.3599  -33.9640 H   0  0  0  0  0  0  0  0  0  0  0  0
  1  2  2  0  0  0  0
  1  3  1  0  0  0  0
  1  4  1  0  0  0  0
  2  5  1  0  0  0  0
  2 24  1  0  0  0  0
  3  6  2  0  0  0  0
  3 25  1  0  0  0  0
  4  7  1  0  0  0  0
  4  8  2  0  0  0  0
  4  9  2  0  0  0  0
  5 10  2  0  0  0  0
  5 11  1  0  0  0  0
  6 10  1  0  0  0  0
  6 26  1  0  0  0  0
  7 12  1  0  0  0  0
  7 27  1  0  0  0  0
 10 13  1  0  0  0  0
 11 14  1  0  0  0  0
 11 15  2  0  0  0  0
 12 16  1  0  0  0  0
 12 28  1  0  0  0  0
 12 29  1  0  0  0  0
 13 17  1  0  0  0  0
 16 18  1  0  0  0  0
 16 30  1  0  0  0  0
 16 31  1  0  0  0  0
 17 32  1  0  0  0  0
 17 33  1  0  0  0  0
 17 34  1  0  0  0  0
 18 19  1  0  0  0  0
 18 35  1  0  0  0  0
 18 36  1  0  0  0  0
 19 20  1  0  0  0  0
 19 37  1  0  0  0  0
 19 38  1  0  0  0  0
 20 21  1  0  0  0  0
 20 39  1  0  0  0  0
 20 40  1  0  0  0  0
 21 22  1  0  0  0  0
 21 23  2  0  0  0  0
M  CHG  2  14  -1  22  -1
M  END
$$$$
