HTS1710-04762221-01
 OpenBabel03232612363D

 42 43  0  0  1  0  0  0  0  0999 V2000
    2.3907   -9.0690  -30.2839 C   0  0  0  0  0  0  0  0  0  0  0  0
    3.6727   -9.7700  -30.5201 N   0  0  0  0  0  0  0  0  0  0  0  0
    4.8472   -8.8722  -30.5941 C   0  0  0  0  0  0  0  0  0  0  0  0
    5.2509   -8.5941  -32.0169 C   0  0  0  0  0  0  0  0  0  0  0  0
    5.9716   -7.4989  -32.4116 C   0  0  0  0  0  0  0  0  0  0  0  0
    6.1102   -7.6400  -33.8176 C   0  0  0  0  0  0  0  0  0  0  0  0
    6.8147   -6.7009  -34.7229 C   0  0  0  0  0  0  0  0  0  0  0  0
    7.2421   -5.6576  -34.2602 O   0  5  0  0  0  0  0  0  0  0  0  0
    6.9253   -7.0346  -35.8890 O   0  0  0  0  0  0  0  0  0  0  0  0
    5.4482   -8.8203  -34.0968 C   0  0  0  0  0  0  0  0  0  0  0  0
    5.2992   -9.4412  -35.4628 C   0  0  0  0  0  0  0  0  0  0  0  0
    4.8937   -9.4566  -33.0152 O   0  0  0  0  0  0  0  0  0  0  0  0
    3.8087  -11.1514  -30.7543 C   0  0  0  0  0  0  0  0  0  0  0  0
    4.8925  -11.6546  -30.9982 O   0  0  0  0  0  0  0  0  0  0  0  0
    2.5584  -12.0607  -30.6685 C   0  0  1  0  0  0  0  0  0  0  0  0
    1.8999  -12.3645  -32.0356 C   0  0  0  0  0  0  0  0  0  0  0  0
    1.5164  -13.8561  -31.9802 C   0  0  0  0  0  0  0  0  0  0  0  0
    1.7758  -14.2843  -30.5265 C   0  0  0  0  0  0  0  0  0  0  0  0
    2.7889  -13.3578  -30.0036 N   0  0  0  0  0  0  0  0  0  0  0  0
    3.1587  -13.3763  -28.3633 S   0  0  0  0  0  0  0  0  0  0  0  0
    1.9191  -13.5166  -27.6166 O   0  0  0  0  0  0  0  0  0  0  0  0
    4.0594  -12.2669  -28.0996 O   0  0  0  0  0  0  0  0  0  0  0  0
    4.1500  -14.8808  -28.1811 C   0  0  0  0  0  0  0  0  0  0  0  0
    2.5767   -8.0259  -30.1349 H   0  0  0  0  0  0  0  0  0  0  0  0
    1.9174   -9.4746  -29.4142 H   0  0  0  0  0  0  0  0  0  0  0  0
    1.7512   -9.1999  -31.1317 H   0  0  0  0  0  0  0  0  0  0  0  0
    5.6678   -9.3332  -30.0853 H   0  0  0  0  0  0  0  0  0  0  0  0
    4.5834   -7.9419  -30.1358 H   0  0  0  0  0  0  0  0  0  0  0  0
    6.3348   -6.7374  -31.8173 H   0  0  0  0  0  0  0  0  0  0  0  0
    5.7848   -8.8244  -36.1899 H   0  0  0  0  0  0  0  0  0  0  0  0
    4.2603   -9.5268  -35.7043 H   0  0  0  0  0  0  0  0  0  0  0  0
    5.7467  -10.4131  -35.4636 H   0  0  0  0  0  0  0  0  0  0  0  0
    1.9004  -11.4641  -30.0718 H   0  0  0  0  0  0  0  0  0  0  0  0
    2.5908  -12.1846  -32.8326 H   0  0  0  0  0  0  0  0  0  0  0  0
    1.0496  -11.7406  -32.2161 H   0  0  0  0  0  0  0  0  0  0  0  0
    2.1234  -14.4250  -32.6531 H   0  0  0  0  0  0  0  0  0  0  0  0
    0.4993  -14.0189  -32.2700 H   0  0  0  0  0  0  0  0  0  0  0  0
    2.1406  -15.2898  -30.4950 H   0  0  0  0  0  0  0  0  0  0  0  0
    0.8791  -14.2528  -29.9436 H   0  0  0  0  0  0  0  0  0  0  0  0
    3.5355  -15.7372  -28.3650 H   0  0  0  0  0  0  0  0  0  0  0  0
    4.5432  -14.9307  -27.1873 H   0  0  0  0  0  0  0  0  0  0  0  0
    4.9570  -14.8635  -28.8835 H   0  0  0  0  0  0  0  0  0  0  0  0
  1  2  1  0  0  0  0
  1 24  1  0  0  0  0
  1 25  1  0  0  0  0
  1 26  1  0  0  0  0
  2  3  1  0  0  0  0
  2 13  1  0  0  0  0
  3  4  1  0  0  0  0
  3 27  1  0  0  0  0
  3 28  1  0  0  0  0
  4  5  2  0  0  0  0
  4 12  1  0  0  0  0
  5  6  1  0  0  0  0
  5 29  1  0  0  0  0
  6  7  1  0  0  0  0
  6 10  2  0  0  0  0
  7  8  1  0  0  0  0
  7  9  2  0  0  0  0
 10 11  1  0  0  0  0
 10 12  1  0  0  0  0
 11 30  1  0  0  0  0
 11 31  1  0  0  0  0
 11 32  1  0  0  0  0
 13 14  2  0  0  0  0
 13 15  1  0  0  0  0
 15 16  1  0  0  0  0
 15 19  1  0  0  0  0
 15 33  1  1  0  0  0
 16 17  1  0  0  0  0
 16 34  1  0  0  0  0
 16 35  1  0  0  0  0
 17 18  1  0  0  0  0
 17 36  1  0  0  0  0
 17 37  1  0  0  0  0
 18 19  1  0  0  0  0
 18 38  1  0  0  0  0
 18 39  1  0  0  0  0
 19 20  1  0  0  0  0
 20 21  2  0  0  0  0
 20 22  2  0  0  0  0
 20 23  1  0  0  0  0
 23 40  1  0  0  0  0
 23 41  1  0  0  0  0
 23 42  1  0  0  0  0
M  CHG  1   8  -1
M  END
$$$$
