HTS1710-01268248-01
 OpenBabel03232612353D

 46 48  0  0  1  0  0  0  0  0999 V2000
    2.7847   -7.6798  -31.4711 C   0  0  0  0  0  0  0  0  0  0  0  0
    3.7080   -9.8179  -30.5626 C   0  0  0  0  0  0  0  0  0  0  0  0
    1.5388   -7.9543  -32.0133 C   0  0  0  0  0  0  0  0  0  0  0  0
    3.9047   -8.7007  -31.5761 C   0  0  2  0  0  0  0  0  0  0  0  0
    4.0001  -11.2110  -30.9524 C   0  0  0  0  0  0  0  0  0  0  0  0
    0.4277   -6.9939  -31.9169 C   0  0  0  0  0  0  0  0  0  0  0  0
    3.2583   -9.4972  -29.2978 C   0  0  0  0  0  0  0  0  0  0  0  0
    3.0792   -6.5114  -30.7922 O   0  0  0  0  0  0  0  0  0  0  0  0
    3.7845  -12.2095  -29.8606 C   0  0  0  0  0  0  0  0  0  0  0  0
    0.7973   -5.7755  -31.2003 C   0  0  0  0  0  0  0  0  0  0  0  0
    3.0607  -10.4494  -28.3287 O   0  0  0  0  0  0  0  0  0  0  0  0
    2.0623   -5.5875  -30.6863 C   0  0  0  0  0  0  0  0  0  0  0  0
    3.3252  -11.7803  -28.5963 C   0  0  0  0  0  0  0  0  0  0  0  0
    5.3176   -8.0639  -31.4396 C   0  0  0  0  0  0  0  0  0  0  0  0
    5.8953   -7.6633  -32.8008 C   0  0  0  0  0  0  0  0  0  0  0  0
    4.3842  -11.5404  -32.0631 O   0  0  0  0  0  0  0  0  0  0  0  0
   -0.6863   -7.1803  -32.3781 O   0  0  0  0  0  0  0  0  0  0  0  0
    5.9430   -8.4133  -33.7623 O   0  0  0  0  0  0  0  0  0  0  0  0
    1.2196   -9.1018  -32.6565 O   0  0  0  0  0  0  0  0  0  0  0  0
    6.3429   -6.3713  -32.7960 O   0  0  0  0  0  0  0  0  0  0  0  0
    4.0385  -13.5788  -30.0768 C   0  0  0  0  0  0  0  0  0  0  0  0
    2.3905   -4.3155  -29.9476 C   0  0  0  0  0  0  0  0  0  0  0  0
    2.2605   -4.5453  -28.5338 O   0  0  0  0  0  0  0  0  0  0  0  0
    3.1257  -12.7168  -27.5677 C   0  0  0  0  0  0  0  0  0  0  0  0
    6.9230   -5.8245  -33.9922 C   0  0  0  0  0  0  0  0  0  0  0  0
    2.5984   -3.4090  -27.7223 C   0  0  0  0  0  0  0  0  0  0  0  0
    3.8389  -14.5091  -29.0447 C   0  0  0  0  0  0  0  0  0  0  0  0
    3.3832  -14.0781  -27.7903 C   0  0  0  0  0  0  0  0  0  0  0  0
    3.8549   -9.1158  -32.5611 H   0  0  0  0  0  0  0  0  0  0  0  0
    3.0642   -8.5088  -29.0730 H   0  0  0  0  0  0  0  0  0  0  0  0
    0.0905   -5.0340  -31.0753 H   0  0  0  0  0  0  0  0  0  0  0  0
    5.9740   -8.7729  -30.9799 H   0  0  0  0  0  0  0  0  0  0  0  0
    5.2276   -7.1800  -30.8434 H   0  0  0  0  0  0  0  0  0  0  0  0
    0.3374   -9.2537  -32.9336 H   0  0  0  0  0  0  0  0  0  0  0  0
    4.3731  -13.8993  -30.9989 H   0  0  0  0  0  0  0  0  0  0  0  0
    1.7152   -3.5420  -30.2484 H   0  0  0  0  0  0  0  0  0  0  0  0
    3.3927   -4.0159  -30.1733 H   0  0  0  0  0  0  0  0  0  0  0  0
    2.7883  -12.4020  -26.6446 H   0  0  0  0  0  0  0  0  0  0  0  0
    7.2176   -4.8113  -33.8149 H   0  0  0  0  0  0  0  0  0  0  0  0
    6.2030   -5.8534  -34.7832 H   0  0  0  0  0  0  0  0  0  0  0  0
    7.7803   -6.4019  -34.2691 H   0  0  0  0  0  0  0  0  0  0  0  0
    2.4765   -3.6596  -26.6892 H   0  0  0  0  0  0  0  0  0  0  0  0
    1.9551   -2.5905  -27.9691 H   0  0  0  0  0  0  0  0  0  0  0  0
    3.6155   -3.1307  -27.9042 H   0  0  0  0  0  0  0  0  0  0  0  0
    4.0275  -15.5103  -29.2090 H   0  0  0  0  0  0  0  0  0  0  0  0
    3.2374  -14.7619  -27.0312 H   0  0  0  0  0  0  0  0  0  0  0  0
  1  3  2  0  0  0  0
  1  4  1  0  0  0  0
  1  8  1  0  0  0  0
  2  4  1  0  0  0  0
  2  5  1  0  0  0  0
  2  7  2  0  0  0  0
  3  6  1  0  0  0  0
  3 19  1  0  0  0  0
  4 14  1  0  0  0  0
  4 29  1  6  0  0  0
  5  9  1  0  0  0  0
  5 16  2  0  0  0  0
  6 17  2  0  0  0  0
  6 10  1  0  0  0  0
  7 11  1  0  0  0  0
  7 30  1  0  0  0  0
  8 12  1  0  0  0  0
  9 21  2  0  0  0  0
  9 13  1  0  0  0  0
 10 12  2  0  0  0  0
 10 31  1  0  0  0  0
 11 13  1  0  0  0  0
 12 22  1  0  0  0  0
 13 24  2  0  0  0  0
 14 15  1  0  0  0  0
 14 32  1  0  0  0  0
 14 33  1  0  0  0  0
 15 18  2  0  0  0  0
 15 20  1  0  0  0  0
 19 34  1  0  0  0  0
 20 25  1  0  0  0  0
 21 27  1  0  0  0  0
 21 35  1  0  0  0  0
 22 23  1  0  0  0  0
 22 36  1  0  0  0  0
 22 37  1  0  0  0  0
 23 26  1  0  0  0  0
 24 28  1  0  0  0  0
 24 38  1  0  0  0  0
 25 39  1  0  0  0  0
 25 40  1  0  0  0  0
 25 41  1  0  0  0  0
 26 42  1  0  0  0  0
 26 43  1  0  0  0  0
 26 44  1  0  0  0  0
 27 28  2  0  0  0  0
 27 45  1  0  0  0  0
 28 46  1  0  0  0  0
M  END
$$$$
