HTS1710-00235979-01
 OpenBabel03232612363D

 32 34  0  0  0  0  0  0  0  0999 V2000
    6.6313  -16.1356  -27.1503 N   0  0  0  0  0  0  0  0  0  0  0  0
    3.9185  -12.8971  -30.6787 C   0  0  0  0  0  0  0  0  0  0  0  0
    4.8222  -13.3760  -29.7696 O   0  0  0  0  0  0  0  0  0  0  0  0
    8.0976  -16.9025  -25.7013 N   0  0  0  0  0  0  0  0  0  0  0  0
    6.9528  -17.6743  -25.6145 N   0  0  0  0  0  0  0  0  0  0  0  0
    4.2438  -11.7464  -31.5464 C   0  0  0  0  0  0  0  0  0  0  0  0
    4.6028  -10.8748  -33.8164 C   0  0  0  0  0  0  0  0  0  0  0  0
    4.8283   -9.3823  -31.8811 C   0  0  0  0  0  0  0  0  0  0  0  0
    7.8929  -15.9830  -26.6273 C   0  0  0  0  0  0  0  0  0  0  0  0
    6.0849  -17.2033  -26.4920 C   0  0  0  0  0  0  0  0  0  0  0  0
    6.0128  -15.4005  -28.1425 N   0  0  0  0  0  0  0  0  0  0  0  0
    2.7083  -13.5400  -30.7200 C   0  0  0  0  0  0  0  0  0  0  0  0
    4.1019  -14.3982  -29.2020 C   0  0  0  0  0  0  0  0  0  0  0  0
    4.6524  -11.1058  -35.3124 C   0  0  0  0  0  0  0  0  0  0  0  0
    5.1160   -8.0078  -31.3097 C   0  0  0  0  0  0  0  0  0  0  0  0
    4.5156  -10.4619  -31.0274 C   0  0  0  0  0  0  0  0  0  0  0  0
    4.2896  -11.9345  -32.9413 C   0  0  0  0  0  0  0  0  0  0  0  0
    4.8698   -9.6021  -33.2740 C   0  0  0  0  0  0  0  0  0  0  0  0
    4.7399  -15.1767  -28.1466 C   0  0  0  0  0  0  0  0  0  0  0  0
    2.8375  -14.5442  -29.7288 C   0  0  0  0  0  0  0  0  0  0  0  0
    4.1664   -7.3450  -30.9284 O   0  5  0  0  0  0  0  0  0  0  0  0
    4.7802  -12.2536  -35.7031 O   0  5  0  0  0  0  0  0  0  0  0  0
    4.5616  -10.1301  -36.0390 O   0  0  0  0  0  0  0  0  0  0  0  0
    6.2797   -7.6462  -31.2663 O   0  0  0  0  0  0  0  0  0  0  0  0
    8.5741  -15.2626  -26.9134 H   0  0  0  0  0  0  0  0  0  0  0  0
    5.1392  -17.5827  -26.6559 H   0  0  0  0  0  0  0  0  0  0  0  0
    1.8980  -13.3404  -31.3270 H   0  0  0  0  0  0  0  0  0  0  0  0
    4.4851  -10.3098  -30.0071 H   0  0  0  0  0  0  0  0  0  0  0  0
    4.0895  -12.8688  -33.3313 H   0  0  0  0  0  0  0  0  0  0  0  0
    5.0994   -8.8187  -33.9053 H   0  0  0  0  0  0  0  0  0  0  0  0
    4.1600  -15.5588  -27.3833 H   0  0  0  0  0  0  0  0  0  0  0  0
    2.1284  -15.2429  -29.4567 H   0  0  0  0  0  0  0  0  0  0  0  0
  1  9  1  0  0  0  0
  1 10  1  0  0  0  0
  1 11  1  0  0  0  0
  2  3  1  0  0  0  0
  2  6  1  0  0  0  0
  2 12  2  0  0  0  0
  3 13  1  0  0  0  0
  4  9  2  0  0  0  0
  4  5  1  0  0  0  0
  5 10  2  0  0  0  0
  6 16  2  0  0  0  0
  6 17  1  0  0  0  0
  7 17  2  0  0  0  0
  7 14  1  0  0  0  0
  7 18  1  0  0  0  0
  8 16  1  0  0  0  0
  8 15  1  0  0  0  0
  8 18  2  0  0  0  0
  9 25  1  0  0  0  0
 10 26  1  0  0  0  0
 11 19  2  0  0  0  0
 12 20  1  0  0  0  0
 12 27  1  0  0  0  0
 13 19  1  0  0  0  0
 13 20  2  0  0  0  0
 14 22  1  0  0  0  0
 14 23  2  0  0  0  0
 15 21  1  0  0  0  0
 15 24  2  0  0  0  0
 16 28  1  0  0  0  0
 17 29  1  0  0  0  0
 18 30  1  0  0  0  0
 19 31  1  0  0  0  0
 20 32  1  0  0  0  0
M  CHG  2  21  -1  22  -1
M  END
$$$$
