HTS1710-04762088-01
 OpenBabel03232612353D

 43 45  0  0  0  0  0  0  0  0999 V2000
    3.1545   -9.4072  -37.4833 C   0  0  0  0  0  0  0  0  0  0  0  0
    3.2369  -10.2795  -36.2925 N   0  0  0  0  0  0  0  0  0  0  0  0
    4.5978  -10.5409  -35.7764 C   0  0  0  0  0  0  0  0  0  0  0  0
    5.0891   -9.4532  -34.8494 C   0  0  0  0  0  0  0  0  0  0  0  0
    4.9363   -9.4564  -33.4863 C   0  0  0  0  0  0  0  0  0  0  0  0
    5.5802   -8.2719  -33.0435 C   0  0  0  0  0  0  0  0  0  0  0  0
    5.7090   -7.8182  -31.6375 C   0  0  0  0  0  0  0  0  0  0  0  0
    5.6132   -8.6456  -30.7480 O   0  5  0  0  0  0  0  0  0  0  0  0
    5.9043   -6.6298  -31.4557 O   0  0  0  0  0  0  0  0  0  0  0  0
    6.0437   -7.6923  -34.2087 C   0  0  0  0  0  0  0  0  0  0  0  0
    6.8182   -6.4020  -34.2973 C   0  0  0  0  0  0  0  0  0  0  0  0
    5.7678   -8.3825  -35.3612 O   0  0  0  0  0  0  0  0  0  0  0  0
    2.1263  -10.8967  -35.7127 C   0  0  0  0  0  0  0  0  0  0  0  0
    0.9890  -10.6406  -36.0742 O   0  0  0  0  0  0  0  0  0  0  0  0
    2.4047  -11.8470  -34.5264 C   0  0  0  0  0  0  0  0  0  0  0  0
    1.1291  -12.2517  -33.7483 C   0  0  0  0  0  0  0  0  0  0  0  0
    1.4557  -13.0995  -32.5437 C   0  0  0  0  0  3  0  0  0  0  0  0
    1.7915  -12.6426  -31.3701 N   0  0  0  0  0  0  0  0  0  0  0  0
    2.0341  -13.7929  -30.6918 C   0  0  0  0  0  0  0  0  0  0  0  0
    1.8652  -14.9236  -31.3621 N   0  0  0  0  0  0  0  0  0  0  0  0
    1.4638  -14.4569  -32.6614 O   0  0  0  0  0  0  0  0  0  0  0  0
    2.4510  -13.6914  -29.2763 C   0  0  0  0  0  0  0  0  0  0  0  0
    3.2932  -14.7893  -28.6797 C   0  0  0  0  0  0  0  0  0  0  0  0
    1.8720  -14.6030  -28.2247 C   0  0  0  0  0  0  0  0  0  0  0  0
    4.1329   -9.0554  -37.7361 H   0  0  0  0  0  0  0  0  0  0  0  0
    2.5192   -8.5728  -37.2709 H   0  0  0  0  0  0  0  0  0  0  0  0
    2.7516   -9.9620  -38.3048 H   0  0  0  0  0  0  0  0  0  0  0  0
    5.2702  -10.6134  -36.6056 H   0  0  0  0  0  0  0  0  0  0  0  0
    4.5614  -11.4513  -35.2157 H   0  0  0  0  0  0  0  0  0  0  0  0
    4.4576  -10.1652  -32.9089 H   0  0  0  0  0  0  0  0  0  0  0  0
    6.9463   -5.9947  -33.3162 H   0  0  0  0  0  0  0  0  0  0  0  0
    6.2810   -5.7046  -34.9056 H   0  0  0  0  0  0  0  0  0  0  0  0
    7.7770   -6.5908  -34.7332 H   0  0  0  0  0  0  0  0  0  0  0  0
    3.0733  -11.3573  -33.8496 H   0  0  0  0  0  0  0  0  0  0  0  0
    2.8239  -12.7437  -34.9325 H   0  0  0  0  0  0  0  0  0  0  0  0
    0.4873  -12.8073  -34.3996 H   0  0  0  0  0  0  0  0  0  0  0  0
    0.6490  -11.3584  -33.4072 H   0  0  0  0  0  0  0  0  0  0  0  0
    1.9845  -15.8494  -31.0494 H   0  0  0  0  0  0  0  0  0  0  0  0
    2.5320  -12.6295  -29.3797 H   0  0  0  0  0  0  0  0  0  0  0  0
    4.1015  -14.5459  -28.0222 H   0  0  0  0  0  0  0  0  0  0  0  0
    3.8598  -15.6066  -29.0742 H   0  0  0  0  0  0  0  0  0  0  0  0
    1.6693  -14.2270  -27.2436 H   0  0  0  0  0  0  0  0  0  0  0  0
    1.0093  -15.2329  -28.1617 H   0  0  0  0  0  0  0  0  0  0  0  0
  1  2  1  0  0  0  0
  1 25  1  0  0  0  0
  1 26  1  0  0  0  0
  1 27  1  0  0  0  0
  2  3  1  0  0  0  0
  2 13  1  0  0  0  0
  3  4  1  0  0  0  0
  3 28  1  0  0  0  0
  3 29  1  0  0  0  0
  4  5  2  0  0  0  0
  4 12  1  0  0  0  0
  5  6  1  0  0  0  0
  5 30  1  0  0  0  0
  6  7  1  0  0  0  0
  6 10  2  0  0  0  0
  7  8  1  0  0  0  0
  7  9  2  0  0  0  0
 10 11  1  0  0  0  0
 10 12  1  0  0  0  0
 11 31  1  0  0  0  0
 11 32  1  0  0  0  0
 11 33  1  0  0  0  0
 13 14  2  0  0  0  0
 13 15  1  0  0  0  0
 15 16  1  0  0  0  0
 15 34  1  0  0  0  0
 15 35  1  0  0  0  0
 16 17  1  0  0  0  0
 16 36  1  0  0  0  0
 16 37  1  0  0  0  0
 17 18  1  0  0  0  0
 17 21  1  0  0  0  0
 18 19  2  0  0  0  0
 19 20  1  0  0  0  0
 19 22  1  0  0  0  0
 20 21  1  0  0  0  0
 20 38  1  0  0  0  0
 22 23  1  0  0  0  0
 22 24  1  0  0  0  0
 22 39  1  0  0  0  0
 23 24  1  0  0  0  0
 23 40  1  0  0  0  0
 23 41  1  0  0  0  0
 24 42  1  0  0  0  0
 24 43  1  0  0  0  0
M  CHG  1   8  -1
M  END
$$$$
