HTS1710-05335774-01
 OpenBabel03232612353D

 46 47  0  0  1  0  0  0  0  0999 V2000
    1.8342  -15.2857  -26.3170 C   0  0  0  0  0  0  0  0  0  0  0  0
    2.2108  -13.9844  -27.0618 C   0  0  0  0  0  0  0  0  0  0  0  0
    3.3091  -14.1831  -28.1545 C   0  0  2  0  0  0  0  0  0  0  0  0
    4.6859  -14.5261  -27.5178 C   0  0  0  0  0  0  0  0  0  0  0  0
    3.4048  -12.9349  -29.0762 C   0  0  0  0  0  0  0  0  0  0  0  0
    4.0183  -11.9399  -28.7228 O   0  0  0  0  0  0  0  0  0  0  0  0
    2.6765  -12.9606  -30.2766 N   0  0  0  0  0  0  0  0  0  0  0  0
    1.8466  -14.1456  -30.6421 C   0  0  0  0  0  0  0  0  0  0  0  0
    0.8172  -13.8798  -31.7664 C   0  0  0  0  0  0  0  0  0  0  0  0
    1.4582  -13.1896  -32.9814 C   0  0  0  0  0  0  0  0  0  0  0  0
    2.1491  -11.8862  -32.5319 C   0  0  1  0  0  0  0  0  0  0  0  0
    3.1937  -12.1680  -31.4241 C   0  0  0  0  0  0  0  0  0  0  0  0
    2.7959  -11.1459  -33.7116 C   0  0  0  0  0  0  0  0  0  0  0  0
    2.2241  -10.2256  -34.2740 O   0  0  0  0  0  0  0  0  0  0  0  0
    4.0625  -11.5325  -34.1297 N   0  0  0  0  0  0  0  0  0  0  0  0
    4.7585  -10.8834  -35.2471 C   0  0  0  0  0  0  0  0  0  0  0  0
    5.3851   -9.5974  -34.7742 C   0  0  0  0  0  0  0  0  0  0  0  0
    5.7314   -8.5985  -35.5687 N   0  0  0  0  0  0  0  0  0  0  0  0
    6.2296   -7.6886  -34.6922 C   0  0  0  0  0  0  0  0  0  0  0  0
    6.1564   -8.1862  -33.4248 C   0  0  0  0  0  0  0  0  0  0  0  0
    5.6109   -9.4399  -33.4209 O   0  0  0  0  0  0  0  0  0  0  0  0
    6.7730   -6.3574  -35.0454 C   0  0  0  0  0  0  0  0  0  0  0  0
    6.9532   -6.1114  -36.2260 O   0  5  0  0  0  0  0  0  0  0  0  0
    7.0093   -5.5848  -34.1319 O   0  0  0  0  0  0  0  0  0  0  0  0
    1.0806  -15.0738  -25.5876 H   0  0  0  0  0  0  0  0  0  0  0  0
    2.7008  -15.6814  -25.8299 H   0  0  0  0  0  0  0  0  0  0  0  0
    1.4606  -16.0025  -27.0181 H   0  0  0  0  0  0  0  0  0  0  0  0
    2.5716  -13.2768  -26.3447 H   0  0  0  0  0  0  0  0  0  0  0  0
    1.3288  -13.6436  -27.5626 H   0  0  0  0  0  0  0  0  0  0  0  0
    3.0226  -15.0169  -28.7608 H   0  0  0  0  0  0  0  0  0  0  0  0
    5.0065  -13.7123  -26.9015 H   0  0  0  0  0  0  0  0  0  0  0  0
    5.4054  -14.6923  -28.2921 H   0  0  0  0  0  0  0  0  0  0  0  0
    4.5929  -15.4098  -26.9217 H   0  0  0  0  0  0  0  0  0  0  0  0
    1.3152  -14.4644  -29.7699 H   0  0  0  0  0  0  0  0  0  0  0  0
    2.5206  -14.8890  -31.0134 H   0  0  0  0  0  0  0  0  0  0  0  0
    0.0404  -13.2523  -31.3824 H   0  0  0  0  0  0  0  0  0  0  0  0
    0.4283  -14.8232  -32.0887 H   0  0  0  0  0  0  0  0  0  0  0  0
    0.7006  -12.9609  -33.7016 H   0  0  0  0  0  0  0  0  0  0  0  0
    2.1834  -13.8432  -33.4194 H   0  0  0  0  0  0  0  0  0  0  0  0
    1.3908  -11.2479  -32.1289 H   0  0  0  0  0  0  0  0  0  0  0  0
    3.5460  -11.2295  -31.0503 H   0  0  0  0  0  0  0  0  0  0  0  0
    3.9659  -12.7547  -31.8760 H   0  0  0  0  0  0  0  0  0  0  0  0
    4.5113  -12.2710  -33.6580 H   0  0  0  0  0  0  0  0  0  0  0  0
    4.0583  -10.6722  -36.0282 H   0  0  0  0  0  0  0  0  0  0  0  0
    5.5220  -11.5355  -35.6170 H   0  0  0  0  0  0  0  0  0  0  0  0
    6.4711   -7.6832  -32.5804 H   0  0  0  0  0  0  0  0  0  0  0  0
  1  2  1  0  0  0  0
  1 25  1  0  0  0  0
  1 26  1  0  0  0  0
  1 27  1  0  0  0  0
  2  3  1  0  0  0  0
  2 28  1  0  0  0  0
  2 29  1  0  0  0  0
  3  4  1  0  0  0  0
  3  5  1  0  0  0  0
  3 30  1  6  0  0  0
  4 31  1  0  0  0  0
  4 32  1  0  0  0  0
  4 33  1  0  0  0  0
  5  6  2  0  0  0  0
  5  7  1  0  0  0  0
  7  8  1  0  0  0  0
  7 12  1  0  0  0  0
  8  9  1  0  0  0  0
  8 34  1  0  0  0  0
  8 35  1  0  0  0  0
  9 10  1  0  0  0  0
  9 36  1  0  0  0  0
  9 37  1  0  0  0  0
 10 11  1  0  0  0  0
 10 38  1  0  0  0  0
 10 39  1  0  0  0  0
 11 12  1  0  0  0  0
 11 13  1  0  0  0  0
 11 40  1  1  0  0  0
 12 41  1  0  0  0  0
 12 42  1  0  0  0  0
 13 14  2  0  0  0  0
 13 15  1  0  0  0  0
 15 16  1  0  0  0  0
 15 43  1  0  0  0  0
 16 17  1  0  0  0  0
 16 44  1  0  0  0  0
 16 45  1  0  0  0  0
 17 18  2  0  0  0  0
 17 21  1  0  0  0  0
 18 19  1  0  0  0  0
 19 20  2  0  0  0  0
 19 22  1  0  0  0  0
 20 21  1  0  0  0  0
 20 46  1  0  0  0  0
 22 23  1  0  0  0  0
 22 24  2  0  0  0  0
M  CHG  1  23  -1
M  END
$$$$
