HTS1710-00278351-01
 OpenBabel03232612353D

 38 39  0  0  0  0  0  0  0  0999 V2000
    4.1551  -10.0678  -31.6895 C   0  0  0  0  0  0  0  0  0  0  0  0
    4.8011   -9.2571  -32.5868 C   0  0  0  0  0  0  0  0  0  0  0  0
    4.2429   -9.4340  -33.9429 C   0  0  0  0  0  0  0  0  0  0  0  0
    3.1779  -10.4483  -33.7849 C   0  0  0  0  0  0  0  0  0  0  0  0
    3.1046  -10.8594  -32.3647 C   0  0  0  0  0  0  0  0  0  0  0  0
    2.3752  -10.9291  -34.7997 C   0  0  0  0  0  0  0  0  0  0  0  0
    2.4810  -10.4826  -36.1964 C   0  0  0  0  0  0  0  0  0  0  0  0
    1.7875   -9.4504  -36.7404 C   0  0  0  0  0  0  0  0  0  0  0  0
    0.7927   -8.5531  -36.0917 C   0  0  0  0  0  0  0  0  0  0  0  0
    0.3470   -7.4068  -36.7798 C   0  0  0  0  0  0  0  0  0  0  0  0
   -0.5924   -6.5423  -36.1959 C   0  0  0  0  0  0  0  0  0  0  0  0
   -1.0978   -6.8153  -34.9156 C   0  0  0  0  0  0  0  0  0  0  0  0
   -0.6609   -7.9533  -34.2214 C   0  0  0  0  0  0  0  0  0  0  0  0
    0.2796   -8.8185  -34.8050 C   0  0  0  0  0  0  0  0  0  0  0  0
    2.3442  -11.6721  -31.8660 O   0  0  0  0  0  0  0  0  0  0  0  0
    4.5783   -8.8659  -34.9693 O   0  0  0  0  0  0  0  0  0  0  0  0
    1.4338  -11.9051  -34.5118 O   0  0  0  0  0  0  0  0  0  0  0  0
    4.4712  -10.1058  -30.3516 O   0  0  0  0  0  0  0  0  0  0  0  0
    5.8228   -8.4081  -32.2314 O   0  0  0  0  0  0  0  0  0  0  0  0
    3.7847  -10.9562  -29.4182 C   0  0  0  0  0  0  0  0  0  0  0  0
    6.4795   -7.5527  -33.1816 C   0  0  0  0  0  0  0  0  0  0  0  0
    0.7791  -12.6761  -35.5397 C   0  0  0  0  0  0  0  0  0  0  0  0
    3.1335  -10.9938  -36.8112 H   0  0  0  0  0  0  0  0  0  0  0  0
    1.9751   -9.2625  -37.7377 H   0  0  0  0  0  0  0  0  0  0  0  0
    0.7146   -7.2010  -37.7218 H   0  0  0  0  0  0  0  0  0  0  0  0
   -0.9114   -5.7054  -36.7085 H   0  0  0  0  0  0  0  0  0  0  0  0
   -1.7889   -6.1807  -34.4859 H   0  0  0  0  0  0  0  0  0  0  0  0
   -1.0313   -8.1555  -33.2796 H   0  0  0  0  0  0  0  0  0  0  0  0
    0.5971   -9.6539  -34.2888 H   0  0  0  0  0  0  0  0  0  0  0  0
    4.1972  -10.8191  -28.4405 H   0  0  0  0  0  0  0  0  0  0  0  0
    3.9009  -11.9779  -29.7143 H   0  0  0  0  0  0  0  0  0  0  0  0
    2.7446  -10.7049  -29.4049 H   0  0  0  0  0  0  0  0  0  0  0  0
    7.2376   -6.9839  -32.6851 H   0  0  0  0  0  0  0  0  0  0  0  0
    5.7633   -6.8881  -33.6179 H   0  0  0  0  0  0  0  0  0  0  0  0
    6.9265   -8.1493  -33.9493 H   0  0  0  0  0  0  0  0  0  0  0  0
    0.0966  -13.3656  -35.0883 H   0  0  0  0  0  0  0  0  0  0  0  0
    1.5120  -13.2162  -36.1018 H   0  0  0  0  0  0  0  0  0  0  0  0
    0.2429  -12.0187  -36.1918 H   0  0  0  0  0  0  0  0  0  0  0  0
  1  2  2  0  0  0  0
  1  5  1  0  0  0  0
  1 18  1  0  0  0  0
  2  3  1  0  0  0  0
  2 19  1  0  0  0  0
  3  4  1  0  0  0  0
  3 16  2  0  0  0  0
  4  5  1  0  0  0  0
  4  6  2  0  0  0  0
  5 15  2  0  0  0  0
  6  7  1  0  0  0  0
  6 17  1  0  0  0  0
  7  8  2  0  0  0  0
  7 23  1  0  0  0  0
  8  9  1  0  0  0  0
  8 24  1  0  0  0  0
  9 10  2  0  0  0  0
  9 14  1  0  0  0  0
 10 11  1  0  0  0  0
 10 25  1  0  0  0  0
 11 12  2  0  0  0  0
 11 26  1  0  0  0  0
 12 13  1  0  0  0  0
 12 27  1  0  0  0  0
 13 14  2  0  0  0  0
 13 28  1  0  0  0  0
 14 29  1  0  0  0  0
 17 22  1  0  0  0  0
 18 20  1  0  0  0  0
 19 21  1  0  0  0  0
 20 30  1  0  0  0  0
 20 31  1  0  0  0  0
 20 32  1  0  0  0  0
 21 33  1  0  0  0  0
 21 34  1  0  0  0  0
 21 35  1  0  0  0  0
 22 36  1  0  0  0  0
 22 37  1  0  0  0  0
 22 38  1  0  0  0  0
M  END
$$$$
