HTS1710-00659985-01
 OpenBabel03232612363D

 39 40  0  0  0  0  0  0  0  0999 V2000
    3.2870  -13.1152  -29.6474 C   0  0  0  0  0  0  0  0  0  0  0  0
    2.7005  -13.9858  -30.8171 C   0  0  0  0  0  0  0  0  0  0  0  0
    2.4594  -13.2895  -28.3379 C   0  0  0  0  0  0  0  0  0  0  0  0
    4.7177  -13.5890  -29.2553 C   0  0  0  0  0  0  0  0  0  0  0  0
    3.2827  -11.6065  -30.0692 C   0  0  0  0  0  0  0  0  0  0  0  0
    2.1203  -13.1902  -31.9958 C   0  0  0  0  0  0  0  0  0  0  0  0
    3.1932  -14.3076  -27.4387 C   0  0  0  0  0  0  0  0  0  0  0  0
    4.5777  -14.5580  -28.0659 C   0  0  0  0  0  0  0  0  0  0  0  0
    3.6623  -10.6285  -28.9439 C   0  0  0  0  0  0  0  0  0  0  0  0
    2.9686  -12.8797  -33.0546 N   0  0  0  0  0  0  0  0  0  0  0  0
    0.9338  -12.9129  -32.0401 O   0  0  0  0  0  0  0  0  0  0  0  0
    2.7536  -10.0147  -28.4125 O   0  5  0  0  0  0  0  0  0  0  0  0
    4.8395  -10.5496  -28.6414 O   0  0  0  0  0  0  0  0  0  0  0  0
    2.6307  -12.1698  -34.2066 C   0  0  0  0  0  0  0  0  0  0  0  0
    3.5559  -11.2147  -34.6684 C   0  0  0  0  0  0  0  0  0  0  0  0
    1.3995  -12.3118  -34.8833 C   0  0  0  0  0  0  0  0  0  0  0  0
    3.2910  -10.4307  -35.8116 C   0  0  0  0  0  0  0  0  0  0  0  0
    1.1260  -11.5371  -36.0189 C   0  0  0  0  0  0  0  0  0  0  0  0
    2.0647  -10.6061  -36.4856 C   0  0  0  0  0  0  0  0  0  0  0  0
    4.3021   -9.4189  -36.3039 C   0  0  0  0  0  0  0  0  0  0  0  0
    4.2633   -9.1113  -37.4823 O   0  5  0  0  0  0  0  0  0  0  0  0
    5.0944   -8.9732  -35.4907 O   0  0  0  0  0  0  0  0  0  0  0  0
    1.9207  -14.5984  -30.4152 H   0  0  0  0  0  0  0  0  0  0  0  0
    3.5225  -14.5454  -31.2121 H   0  0  0  0  0  0  0  0  0  0  0  0
    1.4808  -13.6526  -28.5730 H   0  0  0  0  0  0  0  0  0  0  0  0
    2.3626  -12.3512  -27.8329 H   0  0  0  0  0  0  0  0  0  0  0  0
    5.3159  -12.7482  -28.9725 H   0  0  0  0  0  0  0  0  0  0  0  0
    5.1924  -14.0750  -30.0820 H   0  0  0  0  0  0  0  0  0  0  0  0
    2.2998  -11.3577  -30.4108 H   0  0  0  0  0  0  0  0  0  0  0  0
    4.0288  -11.5008  -30.8289 H   0  0  0  0  0  0  0  0  0  0  0  0
    2.6402  -15.2226  -27.3947 H   0  0  0  0  0  0  0  0  0  0  0  0
    3.2912  -13.9311  -26.4420 H   0  0  0  0  0  0  0  0  0  0  0  0
    5.3464  -14.3690  -27.3460 H   0  0  0  0  0  0  0  0  0  0  0  0
    4.6716  -15.5737  -28.3889 H   0  0  0  0  0  0  0  0  0  0  0  0
    3.8995  -13.1921  -32.9834 H   0  0  0  0  0  0  0  0  0  0  0  0
    4.4453  -11.0854  -34.1612 H   0  0  0  0  0  0  0  0  0  0  0  0
    0.6990  -12.9880  -34.5409 H   0  0  0  0  0  0  0  0  0  0  0  0
    0.2281  -11.6526  -36.5145 H   0  0  0  0  0  0  0  0  0  0  0  0
    1.8571  -10.0460  -37.3272 H   0  0  0  0  0  0  0  0  0  0  0  0
  1  2  1  0  0  0  0
  1  3  1  0  0  0  0
  1  4  1  0  0  0  0
  1  5  1  0  0  0  0
  2  6  1  0  0  0  0
  2 23  1  0  0  0  0
  2 24  1  0  0  0  0
  3  7  1  0  0  0  0
  3 25  1  0  0  0  0
  3 26  1  0  0  0  0
  4  8  1  0  0  0  0
  4 27  1  0  0  0  0
  4 28  1  0  0  0  0
  5  9  1  0  0  0  0
  5 29  1  0  0  0  0
  5 30  1  0  0  0  0
  6 10  1  0  0  0  0
  6 11  2  0  0  0  0
  7  8  1  0  0  0  0
  7 31  1  0  0  0  0
  7 32  1  0  0  0  0
  8 33  1  0  0  0  0
  8 34  1  0  0  0  0
  9 12  1  0  0  0  0
  9 13  2  0  0  0  0
 10 14  1  0  0  0  0
 10 35  1  0  0  0  0
 14 15  2  0  0  0  0
 14 16  1  0  0  0  0
 15 17  1  0  0  0  0
 15 36  1  0  0  0  0
 16 18  2  0  0  0  0
 16 37  1  0  0  0  0
 17 19  2  0  0  0  0
 17 20  1  0  0  0  0
 18 19  1  0  0  0  0
 18 38  1  0  0  0  0
 19 39  1  0  0  0  0
 20 21  1  0  0  0  0
 20 22  2  0  0  0  0
M  CHG  2  12  -1  21  -1
M  END
$$$$
