HTS1710-01263510-01
 OpenBabel03232612363D

 47 49  0  0  1  0  0  0  0  0999 V2000
    4.0235   -8.7247  -32.5227 C   0  0  0  0  0  0  0  0  0  0  0  0
    2.9876  -10.1984  -30.7692 C   0  0  0  0  0  0  0  0  0  0  0  0
    3.0613   -8.7903  -31.3457 C   0  0  2  0  0  0  0  0  0  0  0  0
    5.1818   -7.9680  -32.4434 C   0  0  0  0  0  0  0  0  0  0  0  0
    3.3796  -10.4876  -29.4667 C   0  0  0  0  0  0  0  0  0  0  0  0
    3.2838  -11.8502  -28.9175 C   0  0  0  0  0  0  0  0  0  0  0  0
    6.1311   -7.8944  -33.5655 C   0  0  0  0  0  0  0  0  0  0  0  0
    2.4740  -11.1482  -31.6334 O   0  0  0  0  0  0  0  0  0  0  0  0
    3.6680   -9.4606  -33.6388 O   0  0  0  0  0  0  0  0  0  0  0  0
    2.7325  -12.8064  -29.8735 C   0  0  0  0  0  0  0  0  0  0  0  0
    5.7146   -8.7016  -34.7107 C   0  0  0  0  0  0  0  0  0  0  0  0
    1.6991   -8.1324  -31.6570 C   0  0  0  0  0  0  0  0  0  0  0  0
    4.5425   -9.4286  -34.7021 C   0  0  0  0  0  0  0  0  0  0  0  0
    2.3606  -12.4328  -31.1461 C   0  0  0  0  0  0  0  0  0  0  0  0
    3.6229  -12.1626  -27.7875 O   0  0  0  0  0  0  0  0  0  0  0  0
    7.1609   -7.2394  -33.5554 O   0  0  0  0  0  0  0  0  0  0  0  0
    1.2979   -6.9900  -30.9224 C   0  0  0  0  0  0  0  0  0  0  0  0
    3.8892   -9.5879  -28.5947 O   0  0  0  0  0  0  0  0  0  0  0  0
    5.5509   -7.2467  -31.3596 O   0  0  0  0  0  0  0  0  0  0  0  0
    2.1408   -6.5039  -29.9369 O   0  0  0  0  0  0  0  0  0  0  0  0
    4.1680  -10.2641  -35.8995 C   0  0  0  0  0  0  0  0  0  0  0  0
    1.7879  -13.4598  -32.0881 C   0  0  0  0  0  0  0  0  0  0  0  0
    0.8296   -8.6438  -32.6477 C   0  0  0  0  0  0  0  0  0  0  0  0
    4.0133   -9.4601  -37.0648 O   0  0  0  0  0  0  0  0  0  0  0  0
    0.3846  -13.6044  -31.8942 O   0  0  0  0  0  0  0  0  0  0  0  0
    0.0590   -6.3696  -31.1977 C   0  0  0  0  0  0  0  0  0  0  0  0
    1.8281   -5.3680  -29.1141 C   0  0  0  0  0  0  0  0  0  0  0  0
   -0.3983   -8.0212  -32.9140 C   0  0  0  0  0  0  0  0  0  0  0  0
   -0.7826   -6.8847  -32.1923 C   0  0  0  0  0  0  0  0  0  0  0  0
    3.4563   -8.1870  -30.5551 H   0  0  0  0  0  0  0  0  0  0  0  0
    2.6181  -13.7913  -29.5873 H   0  0  0  0  0  0  0  0  0  0  0  0
    6.3148   -8.7284  -35.5498 H   0  0  0  0  0  0  0  0  0  0  0  0
    4.1411   -9.8602  -27.7343 H   0  0  0  0  0  0  0  0  0  0  0  0
    6.0504   -6.4614  -31.4674 H   0  0  0  0  0  0  0  0  0  0  0  0
    3.2453  -10.7672  -35.6984 H   0  0  0  0  0  0  0  0  0  0  0  0
    4.9531  -10.9689  -36.0777 H   0  0  0  0  0  0  0  0  0  0  0  0
    2.2644  -14.4013  -31.9109 H   0  0  0  0  0  0  0  0  0  0  0  0
    1.9613  -13.1348  -33.0927 H   0  0  0  0  0  0  0  0  0  0  0  0
    1.1017   -9.4845  -33.1807 H   0  0  0  0  0  0  0  0  0  0  0  0
    3.8202  -10.0286  -37.8266 H   0  0  0  0  0  0  0  0  0  0  0  0
    0.2143  -13.9328  -30.9976 H   0  0  0  0  0  0  0  0  0  0  0  0
   -0.2272   -5.5339  -30.6641 H   0  0  0  0  0  0  0  0  0  0  0  0
    2.6327   -5.1897  -28.4315 H   0  0  0  0  0  0  0  0  0  0  0  0
    0.9306   -5.5617  -28.5647 H   0  0  0  0  0  0  0  0  0  0  0  0
    1.6884   -4.5066  -29.7333 H   0  0  0  0  0  0  0  0  0  0  0  0
   -1.0206   -8.4019  -33.6440 H   0  0  0  0  0  0  0  0  0  0  0  0
   -1.6853   -6.4265  -32.3929 H   0  0  0  0  0  0  0  0  0  0  0  0
  1  3  1  0  0  0  0
  1  4  2  0  0  0  0
  1  9  1  0  0  0  0
  2  3  1  0  0  0  0
  2  5  2  0  0  0  0
  2  8  1  0  0  0  0
  3 12  1  0  0  0  0
  3 30  1  1  0  0  0
  4  7  1  0  0  0  0
  4 19  1  0  0  0  0
  5  6  1  0  0  0  0
  5 18  1  0  0  0  0
  6 15  2  0  0  0  0
  6 10  1  0  0  0  0
  7 16  2  0  0  0  0
  7 11  1  0  0  0  0
  8 14  1  0  0  0  0
  9 13  1  0  0  0  0
 10 14  2  0  0  0  0
 10 31  1  0  0  0  0
 11 13  2  0  0  0  0
 11 32  1  0  0  0  0
 12 17  2  0  0  0  0
 12 23  1  0  0  0  0
 13 21  1  0  0  0  0
 14 22  1  0  0  0  0
 17 20  1  0  0  0  0
 17 26  1  0  0  0  0
 18 33  1  0  0  0  0
 19 34  1  0  0  0  0
 20 27  1  0  0  0  0
 21 24  1  0  0  0  0
 21 35  1  0  0  0  0
 21 36  1  0  0  0  0
 22 25  1  0  0  0  0
 22 37  1  0  0  0  0
 22 38  1  0  0  0  0
 23 28  2  0  0  0  0
 23 39  1  0  0  0  0
 24 40  1  0  0  0  0
 25 41  1  0  0  0  0
 26 29  2  0  0  0  0
 26 42  1  0  0  0  0
 27 43  1  0  0  0  0
 27 44  1  0  0  0  0
 27 45  1  0  0  0  0
 28 29  1  0  0  0  0
 28 46  1  0  0  0  0
 29 47  1  0  0  0  0
M  END
$$$$
