HTS1710-00277859-01
 OpenBabel03232612353D

 38 40  0  0  1  0  0  0  0  0999 V2000
    3.3761  -12.1587  -32.2187 C   0  0  0  0  0  0  0  0  0  0  0  0
    3.8254  -11.4630  -30.9144 C   0  0  1  0  0  0  0  0  0  0  0  0
    4.6839  -12.3511  -30.1204 N   0  0  0  0  0  0  0  0  0  0  0  0
    4.2101  -13.1185  -29.0637 C   0  0  0  0  0  0  0  0  0  0  0  0
    3.0284  -13.0638  -28.7615 O   0  0  0  0  0  0  0  0  0  0  0  0
    5.1766  -13.9988  -28.3119 C   0  0  0  0  0  0  0  0  0  0  0  0
    4.8568  -15.3477  -28.0432 C   0  0  0  0  0  0  0  0  0  0  0  0
    5.7737  -16.1413  -27.3372 C   0  0  0  0  0  0  0  0  0  0  0  0
    6.9805  -15.5632  -26.9193 C   0  0  0  0  0  0  0  0  0  0  0  0
    7.2231  -14.2139  -27.2269 C   0  0  0  0  0  0  0  0  0  0  0  0
    6.3453  -13.4487  -27.9056 N   0  0  0  0  0  0  0  0  0  0  0  0
    4.4829  -10.1148  -31.1571 C   0  0  0  0  0  0  0  0  0  0  0  0
    4.5244   -9.3598  -32.3026 C   0  0  0  0  0  0  0  0  0  0  0  0
    3.8508   -9.6069  -33.6188 C   0  0  0  0  0  0  0  0  0  0  0  0
    2.8695   -8.9405  -33.8934 O   0  5  0  0  0  0  0  0  0  0  0  0
    4.2787  -10.4870  -34.3413 O   0  0  0  0  0  0  0  0  0  0  0  0
    5.2807   -8.2115  -31.8637 C   0  0  0  0  0  0  0  0  0  0  0  0
    5.5364   -8.2472  -30.5582 N   0  0  0  0  0  0  0  0  0  0  0  0
    5.0415   -9.4979  -30.0867 O   0  0  0  0  0  0  0  0  0  0  0  0
    5.7891   -7.1813  -32.7905 C   0  0  0  0  0  0  0  0  0  0  0  0
    6.3451   -7.5718  -34.0261 C   0  0  0  0  0  0  0  0  0  0  0  0
    6.7639   -6.5856  -34.9316 C   0  0  0  0  0  0  0  0  0  0  0  0
    6.5832   -5.2357  -34.5940 C   0  0  0  0  0  0  0  0  0  0  0  0
    6.0060   -4.8444  -33.4417 N   0  0  0  0  0  0  0  0  0  0  0  0
    5.6126   -5.7967  -32.5691 C   0  0  0  0  0  0  0  0  0  0  0  0
    2.9228  -13.0989  -31.9835 H   0  0  0  0  0  0  0  0  0  0  0  0
    4.2264  -12.3203  -32.8479 H   0  0  0  0  0  0  0  0  0  0  0  0
    2.6681  -11.5388  -32.7280 H   0  0  0  0  0  0  0  0  0  0  0  0
    2.9399  -11.2584  -30.3498 H   0  0  0  0  0  0  0  0  0  0  0  0
    5.6403  -12.4052  -30.3475 H   0  0  0  0  0  0  0  0  0  0  0  0
    3.9594  -15.7451  -28.3623 H   0  0  0  0  0  0  0  0  0  0  0  0
    5.5640  -17.1303  -27.1298 H   0  0  0  0  0  0  0  0  0  0  0  0
    7.6764  -16.1175  -26.3963 H   0  0  0  0  0  0  0  0  0  0  0  0
    8.1125  -13.7900  -26.9197 H   0  0  0  0  0  0  0  0  0  0  0  0
    6.4429   -8.5718  -34.2616 H   0  0  0  0  0  0  0  0  0  0  0  0
    7.1973   -6.8483  -35.8306 H   0  0  0  0  0  0  0  0  0  0  0  0
    6.9060   -4.5127  -35.2560 H   0  0  0  0  0  0  0  0  0  0  0  0
    5.1581   -5.4970  -31.6924 H   0  0  0  0  0  0  0  0  0  0  0  0
  1  2  1  0  0  0  0
  1 26  1  0  0  0  0
  1 27  1  0  0  0  0
  1 28  1  0  0  0  0
  2  3  1  0  0  0  0
  2 12  1  0  0  0  0
  2 29  1  1  0  0  0
  3  4  1  0  0  0  0
  3 30  1  0  0  0  0
  4  5  2  0  0  0  0
  4  6  1  0  0  0  0
  6  7  2  0  0  0  0
  6 11  1  0  0  0  0
  7  8  1  0  0  0  0
  7 31  1  0  0  0  0
  8  9  2  0  0  0  0
  8 32  1  0  0  0  0
  9 10  1  0  0  0  0
  9 33  1  0  0  0  0
 10 11  2  0  0  0  0
 10 34  1  0  0  0  0
 12 13  2  0  0  0  0
 12 19  1  0  0  0  0
 13 14  1  0  0  0  0
 13 17  1  0  0  0  0
 14 15  1  0  0  0  0
 14 16  2  0  0  0  0
 17 18  2  0  0  0  0
 17 20  1  0  0  0  0
 18 19  1  0  0  0  0
 20 21  2  0  0  0  0
 20 25  1  0  0  0  0
 21 22  1  0  0  0  0
 21 35  1  0  0  0  0
 22 23  2  0  0  0  0
 22 36  1  0  0  0  0
 23 24  1  0  0  0  0
 23 37  1  0  0  0  0
 24 25  2  0  0  0  0
 25 38  1  0  0  0  0
M  CHG  1  15  -1
M  END
$$$$
