HTS1710-00095277-01
 OpenBabel03232612343D

 30 31  0  0  0  0  0  0  0  0999 V2000
   -0.7222   -6.7189  -34.0279 C   0  0  0  0  0  0  0  0  0  0  0  0
    3.2631   -9.8031  -30.9079 C   0  0  0  0  0  0  0  0  0  0  0  0
   -0.5501   -6.8370  -35.4302 C   0  0  0  0  0  0  0  0  0  0  0  0
    3.0626  -11.2050  -30.9702 C   0  0  0  0  0  0  0  0  0  0  0  0
   -0.0144   -7.5830  -33.1682 C   0  0  0  0  0  0  0  0  0  0  0  0
    2.5472   -8.9599  -31.7809 C   0  0  0  0  0  0  0  0  0  0  0  0
   -1.6178   -5.6794  -33.4090 C   0  0  0  0  0  0  0  0  0  0  0  0
    4.2367   -9.1696  -29.9518 C   0  0  0  0  0  0  0  0  0  0  0  0
   -1.3001   -5.9800  -36.4167 C   0  0  0  0  0  0  0  0  0  0  0  0
    3.7577  -12.1681  -30.0435 C   0  0  0  0  0  0  0  0  0  0  0  0
    0.8794   -8.5648  -33.6644 C   0  0  0  0  0  0  0  0  0  0  0  0
    1.6353   -9.4734  -32.7367 C   0  0  0  0  0  0  0  0  0  0  0  0
    0.3383   -7.8038  -35.9325 C   0  0  0  0  0  0  0  0  0  0  0  0
    2.1657  -11.7249  -31.9210 C   0  0  0  0  0  0  0  0  0  0  0  0
    1.0426   -8.6527  -35.0673 C   0  0  0  0  0  0  0  0  0  0  0  0
    1.4651  -10.8773  -32.7893 C   0  0  0  0  0  0  0  0  0  0  0  0
   -2.7962   -5.9604  -33.2751 O   0  5  0  0  0  0  0  0  0  0  0  0
    5.3488   -8.9146  -30.3820 O   0  5  0  0  0  0  0  0  0  0  0  0
   -0.6555   -5.4431  -37.3008 O   0  5  0  0  0  0  0  0  0  0  0  0
    3.5099  -13.3540  -30.1733 O   0  5  0  0  0  0  0  0  0  0  0  0
    3.8563   -8.9800  -28.8089 O   0  0  0  0  0  0  0  0  0  0  0  0
   -1.1035   -4.6150  -33.1094 O   0  0  0  0  0  0  0  0  0  0  0  0
    4.5471  -11.6923  -29.2448 O   0  0  0  0  0  0  0  0  0  0  0  0
   -2.5012   -5.8607  -36.2422 O   0  0  0  0  0  0  0  0  0  0  0  0
   -0.1507   -7.4984  -32.1488 H   0  0  0  0  0  0  0  0  0  0  0  0
    2.6910   -7.9396  -31.7226 H   0  0  0  0  0  0  0  0  0  0  0  0
    0.4737   -7.8899  -36.9520 H   0  0  0  0  0  0  0  0  0  0  0  0
    2.0216  -12.7451  -31.9799 H   0  0  0  0  0  0  0  0  0  0  0  0
    1.6908   -9.3532  -35.4599 H   0  0  0  0  0  0  0  0  0  0  0  0
    0.8140  -11.2837  -33.4790 H   0  0  0  0  0  0  0  0  0  0  0  0
  1  3  2  0  0  0  0
  1  5  1  0  0  0  0
  1  7  1  0  0  0  0
  2  6  2  0  0  0  0
  2  8  1  0  0  0  0
  2  4  1  0  0  0  0
  3  9  1  0  0  0  0
  3 13  1  0  0  0  0
  4 14  2  0  0  0  0
  4 10  1  0  0  0  0
  5 11  2  0  0  0  0
  5 25  1  0  0  0  0
  6 12  1  0  0  0  0
  6 26  1  0  0  0  0
  7 17  1  0  0  0  0
  7 22  2  0  0  0  0
  8 18  1  0  0  0  0
  8 21  2  0  0  0  0
  9 19  1  0  0  0  0
  9 24  2  0  0  0  0
 10 20  1  0  0  0  0
 10 23  2  0  0  0  0
 11 12  1  0  0  0  0
 11 15  1  0  0  0  0
 12 16  2  0  0  0  0
 13 15  2  0  0  0  0
 13 27  1  0  0  0  0
 14 16  1  0  0  0  0
 14 28  1  0  0  0  0
 15 29  1  0  0  0  0
 16 30  1  0  0  0  0
M  CHG  4  17  -1  18  -1  19  -1  20  -1
M  END
$$$$
