HTS1710-01914179-01
 OpenBabel03232612363D

 39 41  0  0  1  0  0  0  0  0999 V2000
    2.6187  -12.4665  -30.3577 C   0  0  0  0  0  0  0  0  0  0  0  0
    4.0152  -10.6826  -31.0323 N   0  0  0  0  0  0  0  0  0  0  0  0
    3.7960  -10.5741  -29.6646 C   0  0  0  0  0  0  0  0  0  0  0  0
    2.9116  -11.6879  -29.3031 C   0  0  0  0  0  0  0  0  0  0  0  0
    3.2736  -11.8461  -31.5937 C   0  0  2  0  0  0  0  0  0  0  0  0
    4.7055   -9.7564  -31.8704 C   0  0  0  0  0  0  0  0  0  0  0  0
    6.0481   -7.8980  -33.5693 C   0  0  0  0  0  0  0  0  0  0  0  0
    5.4882   -7.4816  -32.3274 C   0  0  0  0  0  0  0  0  0  0  0  0
    4.8271   -8.4059  -31.4993 C   0  0  0  0  0  0  0  0  0  0  0  0
    6.7793   -6.9564  -34.5249 C   0  0  0  0  0  0  0  0  0  0  0  0
    1.6551  -13.6038  -30.4644 C   0  0  0  0  0  0  0  0  0  0  0  0
    5.9107   -9.2587  -33.9296 C   0  0  0  0  0  0  0  0  0  0  0  0
    4.2475   -9.7202  -28.9197 O   0  0  0  0  0  0  0  0  0  0  0  0
    5.2485  -10.1732  -33.0954 C   0  0  0  0  0  0  0  0  0  0  0  0
    2.2683  -11.4279  -32.6630 C   0  0  0  0  0  0  0  0  0  0  0  0
    2.4541  -11.8332  -28.0384 O   0  5  0  0  0  0  0  0  0  0  0  0
    6.5434   -7.0798  -35.7153 O   0  5  0  0  0  0  0  0  0  0  0  0
    0.8009  -13.6425  -31.3329 O   0  0  0  0  0  0  0  0  0  0  0  0
    5.5605   -6.1880  -31.8909 O   0  0  0  0  0  0  0  0  0  0  0  0
    7.5537   -6.1360  -34.0653 O   0  0  0  0  0  0  0  0  0  0  0  0
    1.6890  -14.6364  -29.3351 C   0  0  0  0  0  0  0  0  0  0  0  0
    1.5898  -10.2010  -32.5504 C   0  0  0  0  0  0  0  0  0  0  0  0
    1.9954  -12.2717  -33.7576 C   0  0  0  0  0  0  0  0  0  0  0  0
    1.0592  -11.8871  -34.7301 C   0  0  0  0  0  0  0  0  0  0  0  0
    0.6523   -9.8182  -33.5228 C   0  0  0  0  0  0  0  0  0  0  0  0
    0.3872  -10.6601  -34.6141 C   0  0  0  0  0  0  0  0  0  0  0  0
    3.9027  -12.5403  -32.1106 H   0  0  0  0  0  0  0  0  0  0  0  0
    4.4244   -8.0876  -30.6040 H   0  0  0  0  0  0  0  0  0  0  0  0
    6.3059   -9.5863  -34.8249 H   0  0  0  0  0  0  0  0  0  0  0  0
    5.1603  -11.1596  -33.3854 H   0  0  0  0  0  0  0  0  0  0  0  0
    6.2397   -5.6246  -32.2059 H   0  0  0  0  0  0  0  0  0  0  0  0
    2.5110  -14.4253  -28.6834 H   0  0  0  0  0  0  0  0  0  0  0  0
    1.8055  -15.6156  -29.7506 H   0  0  0  0  0  0  0  0  0  0  0  0
    0.7743  -14.5903  -28.7819 H   0  0  0  0  0  0  0  0  0  0  0  0
    1.7819   -9.5794  -31.7494 H   0  0  0  0  0  0  0  0  0  0  0  0
    2.4855  -13.1757  -33.8447 H   0  0  0  0  0  0  0  0  0  0  0  0
    0.8646  -12.5074  -35.5316 H   0  0  0  0  0  0  0  0  0  0  0  0
    0.1574   -8.9168  -33.4351 H   0  0  0  0  0  0  0  0  0  0  0  0
   -0.3003  -10.3776  -35.3299 H   0  0  0  0  0  0  0  0  0  0  0  0
  1  4  2  0  0  0  0
  1  5  1  0  0  0  0
  1 11  1  0  0  0  0
  2  3  1  0  0  0  0
  2  5  1  0  0  0  0
  2  6  1  0  0  0  0
  3  4  1  0  0  0  0
  3 13  2  0  0  0  0
  4 16  1  0  0  0  0
  5 15  1  0  0  0  0
  5 27  1  6  0  0  0
  6  9  2  0  0  0  0
  6 14  1  0  0  0  0
  7  8  2  0  0  0  0
  7 10  1  0  0  0  0
  7 12  1  0  0  0  0
  8  9  1  0  0  0  0
  8 19  1  0  0  0  0
  9 28  1  0  0  0  0
 10 17  1  0  0  0  0
 10 20  2  0  0  0  0
 11 18  2  0  0  0  0
 11 21  1  0  0  0  0
 12 14  2  0  0  0  0
 12 29  1  0  0  0  0
 14 30  1  0  0  0  0
 15 22  2  0  0  0  0
 15 23  1  0  0  0  0
 19 31  1  0  0  0  0
 21 32  1  0  0  0  0
 21 33  1  0  0  0  0
 21 34  1  0  0  0  0
 22 25  1  0  0  0  0
 22 35  1  0  0  0  0
 23 24  2  0  0  0  0
 23 36  1  0  0  0  0
 24 26  1  0  0  0  0
 24 37  1  0  0  0  0
 25 26  2  0  0  0  0
 25 38  1  0  0  0  0
 26 39  1  0  0  0  0
M  CHG  2  16  -1  17  -1
M  END
$$$$
