PubChem-145273972


 28 30  0  0  0  0  0  0  0  0999 V2000
    4.4772   20.0378   69.3777 B   0  0  0  0  0
    3.2768   19.6528   68.3956 C   0  0  0  0  0
    3.7449   19.9179   66.9600 C   0  0  0  0  0
    4.3141   21.3052   66.7760 C   0  0  0  0  0
    5.1065   21.8984   67.7924 C   0  0  0  0  0
    5.6924   23.1668   67.5675 C   0  0  0  0  0
    5.4509   23.8252   66.3514 C   0  0  0  0  0
    4.6500   23.2442   65.3654 C   0  0  0  0  0
    4.0859   21.9838   65.5756 C   0  0  0  0  0
    6.5438   23.8405   68.5766 C   0  0  0  0  0
    1.2052   20.2628   69.7520 C   0  0  0  0  0
    0.1592   21.2839   70.0811 C   0  0  0  0  0
    0.7772   23.2394   68.6509 C   0  0  0  0  0
    0.7947   23.9656   67.5230 C   0  0  0  0  0
    1.7789   25.0589   67.3751 C   0  0  0  0  0
    2.7110   25.4000   68.3578 C   0  0  0  0  0
    2.8333   26.8253   66.2458 C   0  0  0  0  0
    1.8482   25.8449   66.2129 C   0  0  0  0  0
    5.2885   21.2383   69.0201 O   0  0  0  0  0
    6.8078   23.2885   69.6803 O   0  0  0  0  0
    7.0714   25.1000   68.3124 O   0  0  0  0  0
    1.3223   19.2438   70.4854 O   0  0  0  0  0
    4.6069   19.4171   70.6972 O   0  0  0  0  0
    2.1225   20.4940   68.6786 N   0  0  0  0  0
   -0.1163   22.1402   68.9292 N   0  0  0  0  0
   -0.0991   23.6836   66.4397 N   0  0  0  0  0
   -1.1999   21.8185   68.0833 N   0  0  0  0  0
    3.5960   26.6852   67.7371 S   0  0  0  0  0
  1 23  1  0  0  0
  1 19  1  0  0  0
  2  1  1  0  0  0
  2  3  1  0  0  0
  2 24  1  0  0  0
  3  4  1  0  0  0
  5 19  1  0  0  0
  5  6  1  0  0  0
  6 10  1  0  0  0
  7  8  1  0  0  0
  9  4  1  0  0  0
 10 21  1  0  0  0
 12 11  1  0  0  0
 12 25  1  0  0  0
 14 15  1  0  0  0
 14 26  1  0  0  0
 16 28  1  0  0  0
 17 28  1  0  0  0
 18 15  1  0  0  0
 24 11  1  0  0  0
 25 13  1  0  0  0
 25 27  1  0  0  0
  4  5  2  0  0  0
  6  7  2  0  0  0
  8  9  2  0  0  0
 10 20  2  0  0  0
 11 22  2  0  0  0
 13 14  2  0  0  0
 15 16  2  0  0  0
 17 18  2  0  0  0
M  END
> <rmsd>
0.708594203

$$$$
PubChem-136272398 PubChem-136984005 CHEMBL4111327


 30 33  0  0  0  0  0  0  0  0999 V2000
    5.4843   23.2918   66.4108 C   0  0  0  0  0
    5.8762   22.0722   67.1635 C   0  0  0  0  0
    7.1085   21.4656   66.9170 C   0  0  0  0  0
    7.4572   20.3196   67.6315 C   0  0  0  0  0
    6.5758   19.7957   68.5781 C   0  0  0  0  0
    5.3447   20.4280   68.8053 C   0  0  0  0  0
    4.3812   19.8867   69.8016 C   0  0  0  0  0
    2.9912   19.9304   69.5661 C   0  0  0  0  0
    1.0544   20.5876   68.0590 C   0  0  0  0  0
    0.8542   20.8336   66.5729 C   0  0  0  0  0
    0.0713   22.1281   66.4205 C   0  0  0  0  0
    1.0022   23.2215   65.9218 C   0  0  0  0  0
   -0.4579   22.4754   67.7998 C   0  0  0  0  0
    0.4998   21.8055   68.7732 C   0  0  0  0  0
    2.5742   18.9009   71.6637 C   0  0  0  0  0
    4.8152   19.3253   71.0213 C   0  0  0  0  0
    0.2007   18.5371   72.4083 C   0  0  0  0  0
   -0.5139   17.2348   72.7570 C   0  0  0  0  0
   -0.1316   16.7886   74.1654 C   0  0  0  0  0
    1.3786   16.5910   74.2613 C   0  0  0  0  0
    2.0999   17.8909   73.9174 C   0  0  0  0  0
    5.0318   21.5467   68.0909 N   0  0  0  0  0
    2.4765   20.4527   68.3364 N   0  0  0  0  0
    2.1323   19.4356   70.4964 N   0  0  0  0  0
    3.9085   18.8492   71.9121 N   0  0  0  0  0
    1.6389   18.3864   72.6219 N   0  0  0  0  0
    0.2682   24.3654   65.6069 O   0  0  0  0  0
   -1.7478   21.9533   67.9336 O   0  0  0  0  0
   -0.1420   21.4347   69.9571 O   0  0  0  0  0
    6.0400   19.2732   71.3119 O   0  0  0  0  0
  1  2  1  0  0  0
  2 22  1  0  0  0
  3  4  1  0  0  0
  5  6  1  0  0  0
  6  7  1  0  0  0
  8 23  1  0  0  0
  8 24  1  0  0  0
  9 23  1  0  0  0
  9 10  1  0  0  0
 10 11  1  0  0  0
 11 12  1  0  0  0
 11 13  1  0  0  0
 12 27  1  0  0  0
 13 28  1  0  0  0
 13 14  1  0  0  0
 14 29  1  0  0  0
 14  9  1  0  0  0
 15 25  1  0  0  0
 15 26  1  0  0  0
 16  7  1  0  0  0
 17 26  1  0  0  0
 17 18  1  0  0  0
 18 19  1  0  0  0
 19 20  1  0  0  0
 20 21  1  0  0  0
 21 26  1  0  0  0
 25 16  1  0  0  0
  2  3  2  0  0  0
  4  5  2  0  0  0
  6 22  2  0  0  0
  7  8  2  0  0  0
 15 24  2  0  0  0
 16 30  2  0  0  0
M  END
> <rmsd>
0.724168837

$$$$
PubChem-135700816


 27 28  0  0  0  0  0  0  0  0999 V2000
   11.6432   21.1609   67.8771 C   0  0  0  0  0
   10.1746   21.1729   68.1033 C   0  0  0  0  0
    9.4370   22.3308   67.8429 C   0  0  0  0  0
    8.0553   22.3421   68.0558 C   0  0  0  0  0
    7.4014   21.1954   68.5310 C   0  0  0  0  0
    8.1496   20.0374   68.7892 C   0  0  0  0  0
    9.5312   20.0262   68.5763 C   0  0  0  0  0
    5.9452   21.2056   68.7542 C   0  0  0  0  0
    3.8737   19.8120   69.2899 C   0  0  0  0  0
    3.3004   19.1419   70.3786 C   0  0  0  0  0
    1.1595   19.3217   69.3936 C   0  0  0  0  0
    3.0290   20.1802   68.2258 C   0  0  0  0  0
   -0.9472   20.5958   70.3461 C   0  0  0  0  0
   -0.7374   21.7676   69.4487 C   0  0  0  0  0
   -1.2670   22.9529   67.2792 C   0  0  0  0  0
    0.0091   22.6557   66.5137 C   0  0  0  0  0
    1.5013   23.3676   65.0567 C   0  0  0  0  0
    5.2840   22.2583   68.5400 O   0  0  0  0  0
    3.4929   20.7090   67.1816 O   0  0  0  0  0
    0.1317   22.6290   69.7487 O   0  0  0  0  0
    0.2572   23.6806   65.6026 O   0  0  0  0  0
    5.2922   20.0348   69.2629 N   0  0  0  0  0
    1.9609   18.9205   70.4128 N   0  0  0  0  0
    1.6963   19.9345   68.3075 N   0  0  0  0  0
   -1.5137   21.9031   68.2558 N   0  0  0  0  0
    4.1099   18.7089   71.4676 N   0  0  0  0  0
   -0.6046   19.0325   69.4721 S   0  0  0  0  0
  1  2  1  0  0  0
  3  4  1  0  0  0
  5  6  1  0  0  0
  5  8  1  0  0  0
  7  2  1  0  0  0
  8 22  1  0  0  0
 10 23  1  0  0  0
 10 26  1  0  0  0
 11 24  1  0  0  0
 11 27  1  0  0  0
 12  9  1  0  0  0
 13 27  1  0  0  0
 13 14  1  0  0  0
 14 25  1  0  0  0
 15 25  1  0  0  0
 15 16  1  0  0  0
 16 21  1  0  0  0
 17 21  1  0  0  0
 22  9  1  0  0  0
 24 12  1  0  0  0
  2  3  2  0  0  0
  4  5  2  0  0  0
  6  7  2  0  0  0
  8 18  2  0  0  0
  9 10  2  0  0  0
 11 23  2  0  0  0
 12 19  2  0  0  0
 14 20  2  0  0  0
M  END
> <rmsd>
0.69474566

$$$$
PubChem-67320596


 29 29  0  0  0  0  0  0  0  0999 V2000
    2.7623   22.4919   72.9105 C   0  0  0  0  0
    3.9717   21.6326   73.2247 C   0  0  0  0  0
    3.7010   20.7926   74.4631 C   0  0  0  0  0
    4.3504   20.7779   72.0137 C   0  0  0  0  0
    5.7187   20.1374   72.1847 C   0  0  0  0  0
    7.7371   20.4180   71.3197 C   0  0  0  0  0
    8.1658   21.1938   70.0812 C   0  0  0  0  0
    7.2700   20.8734   68.8938 C   0  0  0  0  0
    5.9270   21.5747   69.0282 C   0  0  0  0  0
    4.3314   20.0568   68.6943 C   0  0  0  0  0
    3.0628   20.5782   69.3512 C   0  0  0  0  0
    2.6773   19.6673   70.4829 C   0  0  0  0  0
    0.8024   21.4377   68.6039 C   0  0  0  0  0
   -1.4414   22.2425   67.7514 C   0  0  0  0  0
   -2.4570   21.7768   66.7159 C   0  0  0  0  0
   -3.8656   22.2350   67.0749 C   0  0  0  0  0
   -4.4136   21.4606   68.2636 C   0  0  0  0  0
   -4.7836   20.0489   67.8511 C   0  0  0  0  0
   -1.1698   23.7081   67.6097 C   0  0  0  0  0
    6.7123   21.0971   71.9818 O   0  0  0  0  0
    5.0267   21.0983   68.0678 O   0  0  0  0  0
    1.7903   18.7878   70.3182 O   0  0  0  0  0
    0.6412   22.0478   69.6963 O   0  0  0  0  0
   -0.6667   24.1673   66.5502 O   0  0  0  0  0
   -1.4718   24.5668   68.6578 O   0  0  0  0  0
    3.3462   19.7559   71.7432 N   0  0  0  0  0
    1.9976   20.6937   68.3625 N   0  0  0  0  0
   -0.2085   21.4832   67.5955 N   0  0  0  0  0
   -5.2881   19.3252   69.0024 N   0  0  0  0  0
  1  2  1  0  0  0
  2  3  1  0  0  0
  4  2  1  0  0  0
  4  5  1  0  0  0
  4 26  1  0  0  0
  5 20  1  0  0  0
  6 20  1  0  0  0
  6  7  1  0  0  0
  7  8  1  0  0  0
  8  9  1  0  0  0
  9 21  1  0  0  0
 10 21  1  0  0  0
 10 11  1  0  0  0
 11 12  1  0  0  0
 11 27  1  0  0  0
 12 26  1  0  0  0
 13 28  1  0  0  0
 14 28  1  0  0  0
 14 15  1  0  0  0
 14 19  1  0  0  0
 15 16  1  0  0  0
 16 17  1  0  0  0
 17 18  1  0  0  0
 18 29  1  0  0  0
 19 25  1  0  0  0
 27 13  1  0  0  0
 12 22  2  0  0  0
 13 23  2  0  0  0
 19 24  2  0  0  0
M  END
> <rmsd>
0.750321686

$$$$
PubChem-138730338


 31 33  0  0  0  0  0  0  0  0999 V2000
   -1.8081   19.0682   68.7117 C   0  0  0  0  0
   -1.9302   20.5688   68.5198 C   0  0  0  0  0
   -2.4218   21.2245   69.8008 C   0  0  0  0  0
   -0.6193   21.1720   68.0004 C   0  0  0  0  0
    0.5386   21.0249   68.9421 C   0  0  0  0  0
    2.7841   19.9735   69.4367 C   0  0  0  0  0
    3.9796   19.5003   68.6236 C   0  0  0  0  0
    5.1643   20.3749   68.8820 C   0  0  0  0  0
    6.5220   21.9894   68.8291 C   0  0  0  0  0
    6.2964   18.9195   70.5908 C   0  0  0  0  0
    5.7712   19.2678   71.9803 C   0  0  0  0  0
    3.3484   18.7148   71.6098 C   0  0  0  0  0
    2.4399   18.9415   70.4780 C   0  0  0  0  0
    1.2142   22.2074   65.6385 C   0  0  0  0  0
    2.2844   23.0452   65.9702 C   0  0  0  0  0
    3.5982   22.6260   65.7441 C   0  0  0  0  0
    3.8457   21.3658   65.1915 C   0  0  0  0  0
    2.7782   20.5246   64.8649 C   0  0  0  0  0
    1.4641   20.9448   65.0882 C   0  0  0  0  0
    0.5324   21.6083   70.0598 O   0  0  0  0  0
    3.2465   17.6702   72.3071 O   0  0  0  0  0
    1.4097   18.2248   70.3517 O   0  0  0  0  0
   -1.3920   21.8914   65.1434 O   0  0  0  0  0
   -0.5875   24.1642   65.5387 O   0  0  0  0  0
    1.6577   20.2298   68.5489 N   0  0  0  0  0
    5.3435   21.5775   68.3064 N   0  0  0  0  0
    7.0330   21.0803   69.6860 N   0  0  0  0  0
    6.1828   20.0716   69.7037 N   0  0  0  0  0
    4.3749   19.6638   71.8943 N   0  0  0  0  0
   -0.8034   22.5694   67.6342 N   0  0  0  0  0
   -0.4351   22.7265   65.9488 S   0  0  0  0  0
  1  2  1  0  0  0
  2  3  1  0  0  0
  2  4  1  0  0  0
  4  5  1  0  0  0
  4 30  1  0  0  0
  5 25  1  0  0  0
  6 25  1  0  0  0
  6  7  1  0  0  0
  6 13  1  0  0  0
  7  8  1  0  0  0
  9 26  1  0  0  0
 10 28  1  0  0  0
 10 11  1  0  0  0
 11 29  1  0  0  0
 12 13  1  0  0  0
 15 16  1  0  0  0
 17 18  1  0  0  0
 19 14  1  0  0  0
 28 27  1  0  0  0
 28  8  1  0  0  0
 29 12  1  0  0  0
 31 30  1  0  0  0
 31 14  1  0  0  0
  5 20  2  0  0  0
  8 26  2  0  0  0
  9 27  2  0  0  0
 12 21  2  0  0  0
 13 22  2  0  0  0
 14 15  2  0  0  0
 16 17  2  0  0  0
 18 19  2  0  0  0
 31 23  2  0  0  0
 31 24  2  0  0  0
M  END
> <rmsd>
0.648374796

$$$$
PubChem-10025182


 30 32  0  0  0  0  0  0  0  0999 V2000
    0.4595   23.8464   68.9721 C   0  0  0  0  0
    0.4760   22.6853   67.9921 C   0  0  0  0  0
    0.6272   21.3947   68.7247 C   0  0  0  0  0
    2.0262   19.3319   69.1770 C   0  0  0  0  0
    3.1953   18.6178   68.5149 C   0  0  0  0  0
    4.3840   18.7304   69.4577 C   0  0  0  0  0
    3.9640   19.6588   70.5789 C   0  0  0  0  0
    2.4448   19.6104   70.6115 C   0  0  0  0  0
    6.7515   18.6212   68.6233 C   0  0  0  0  0
    6.9706   20.4829   67.6248 C   0  0  0  0  0
    5.7192   20.4175   68.1258 C   0  0  0  0  0
    5.2064   22.5314   67.2837 C   0  0  0  0  0
    7.3765   21.6079   66.9213 C   0  0  0  0  0
   -1.0295   23.6319   66.1875 C   0  0  0  0  0
   -2.6487   24.4572   64.4611 C   0  0  0  0  0
   -4.0229   24.0508   63.9728 C   0  0  0  0  0
   -1.6837   24.3901   63.2900 C   0  0  0  0  0
   -2.7266   25.8817   64.9828 C   0  0  0  0  0
   -0.2544   21.0210   69.5462 O   0  0  0  0  0
    1.9986   18.5644   71.4243 O   0  0  0  0  0
    4.5232   19.2503   71.7917 O   0  0  0  0  0
   -0.1850   24.5286   65.9135 O   0  0  0  0  0
   -2.2479   23.5595   65.4991 O   0  0  0  0  0
    1.7788   20.5861   68.4797 N   0  0  0  0  0
    5.5567   19.2494   68.7612 N   0  0  0  0  0
    7.6551   19.3622   67.9202 N   0  0  0  0  0
    4.8168   21.4178   67.9758 N   0  0  0  0  0
    6.4735   22.6209   66.7638 N   0  0  0  0  0
    8.6881   21.7122   66.3787 N   0  0  0  0  0
   -0.7500   22.6693   67.2057 N   0  0  0  0  0
  2  1  1  0  0  0
  2  3  1  0  0  0
  2 30  1  0  0  0
  3 24  1  0  0  0
  4 24  1  0  0  0
  4  5  1  0  0  0
  5  6  1  0  0  0
  6  7  1  0  0  0
  6 25  1  0  0  0
  7  8  1  0  0  0
  7 21  1  0  0  0
  8 20  1  0  0  0
  8  4  1  0  0  0
 10 26  1  0  0  0
 11 27  1  0  0  0
 11 25  1  0  0  0
 12 28  1  0  0  0
 13 29  1  0  0  0
 13 10  1  0  0  0
 14 23  1  0  0  0
 15 23  1  0  0  0
 15 16  1  0  0  0
 15 17  1  0  0  0
 15 18  1  0  0  0
 25  9  1  0  0  0
 30 14  1  0  0  0
  3 19  2  0  0  0
  9 26  2  0  0  0
 10 11  2  0  0  0
 12 27  2  0  0  0
 13 28  2  0  0  0
 14 22  2  0  0  0
M  END
> <rmsd>
0.754858196

$$$$
PubChem-156408587


 18 19  0  0  0  0  0  0  0  0999 V2000
    5.1969   19.0983   72.9456 C   0  0  0  0  0
    4.8641   20.0171   70.6203 C   0  0  0  0  0
    4.1273   20.3382   69.4837 C   0  0  0  0  0
    6.1666   21.0804   68.8202 C   0  0  0  0  0
    2.6852   20.0865   69.3181 C   0  0  0  0  0
    0.6106   20.2995   67.8739 C   0  0  0  0  0
    0.3086   20.3473   66.3752 C   0  0  0  0  0
    0.5861   21.7277   65.7747 C   0  0  0  0  0
   -0.1097   22.8053   66.5505 C   0  0  0  0  0
   -0.1560   21.3752   68.5868 C   0  0  0  0  0
    4.3525   19.3974   71.8022 N   0  0  0  0  0
    4.8603   20.9251   68.4977 N   0  0  0  0  0
    2.0415   20.4637   68.0980 N   0  0  0  0  0
   -0.4657   22.6015   67.9205 N   0  0  0  0  0
    6.4586   20.4832   70.3685 S   0  0  0  0  0
    2.0210   19.5382   70.2391 O   0  0  0  0  0
   -0.3641   23.9057   65.9965 O   0  0  0  0  0
   -0.5180   21.2032   69.7796 O   0  0  0  0  0
  1 11  1  0  0  0
  2 15  1  0  0  0
  3 12  1  0  0  0
  3  5  1  0  0  0
  4 15  1  0  0  0
  5 13  1  0  0  0
  6 13  1  0  0  0
  6  7  1  0  0  0
  6 10  1  0  0  0
  7  8  1  0  0  0
  8  9  1  0  0  0
  9 14  1  0  0  0
 11  2  1  0  0  0
 14 10  1  0  0  0
  2  3  2  0  0  0
  4 12  2  0  0  0
  5 16  2  0  0  0
  9 17  2  0  0  0
 10 18  2  0  0  0
M  END
> <rmsd>
0.802886128

$$$$
PubChem-65956855


 20 21  0  0  0  0  0  0  0  0999 V2000
    7.0437   22.3807   72.5064 C   0  0  0  0  0
    7.9053   21.7082   71.4539 C   0  0  0  0  0
    7.3524   20.3337   71.1126 C   0  0  0  0  0
    6.1337   20.4432   70.2560 C   0  0  0  0  0
    4.8682   20.0219   70.5793 C   0  0  0  0  0
    4.0927   20.3223   69.4817 C   0  0  0  0  0
    2.6535   20.0800   69.3112 C   0  0  0  0  0
    0.5831   20.3042   67.8637 C   0  0  0  0  0
    0.2840   20.3551   66.3646 C   0  0  0  0  0
    0.5678   21.7352   65.7664 C   0  0  0  0  0
   -0.1253   22.8144   66.5424 C   0  0  0  0  0
   -0.1800   21.3820   68.5769 C   0  0  0  0  0
    4.8764   20.8965   68.5454 N   0  0  0  0  0
    6.1166   20.9686   69.0148 N   0  0  0  0  0
    2.0144   20.4617   68.0905 N   0  0  0  0  0
   -0.4841   22.6103   67.9115 N   0  0  0  0  0
    4.4527   19.4094   71.7966 N   0  0  0  0  0
    1.9883   19.5341   70.2325 O   0  0  0  0  0
   -0.3750   23.9162   65.9893 O   0  0  0  0  0
   -0.5443   21.2101   69.7689 O   0  0  0  0  0
  1  2  1  0  0  0
  2  3  1  0  0  0
  3  4  1  0  0  0
  5  6  1  0  0  0
  5 17  1  0  0  0
  6  7  1  0  0  0
  7 15  1  0  0  0
  8 15  1  0  0  0
  8  9  1  0  0  0
  8 12  1  0  0  0
  9 10  1  0  0  0
 10 11  1  0  0  0
 11 16  1  0  0  0
 14 13  1  0  0  0
 14  4  1  0  0  0
 16 12  1  0  0  0
  4  5  2  0  0  0
  6 13  2  0  0  0
  7 18  2  0  0  0
 11 19  2  0  0  0
 12 20  2  0  0  0
M  END
> <rmsd>
0.809225261

$$$$
PubChem-81234734


 21 22  0  0  0  0  0  0  0  0999 V2000
    4.6766   17.5476   73.2108 C   0  0  0  0  0
    4.8290   19.0301   72.9431 C   0  0  0  0  0
    4.7322   19.9556   70.5785 C   0  0  0  0  0
    6.1110   20.2080   70.5886 C   0  0  0  0  0
    6.7238   20.7672   69.4692 C   0  0  0  0  0
    4.6484   20.8356   68.3266 C   0  0  0  0  0
    3.9789   20.2740   69.4237 C   0  0  0  0  0
    2.5173   20.0442   69.3177 C   0  0  0  0  0
    0.3889   20.2586   67.9499 C   0  0  0  0  0
    0.0284   20.2702   66.4635 C   0  0  0  0  0
    0.3100   21.6265   65.8122 C   0  0  0  0  0
   -0.3307   22.7411   66.5834 C   0  0  0  0  0
   -0.3273   21.3700   68.6604 C   0  0  0  0  0
    8.1854   21.0351   69.4792 C   0  0  0  0  0
    4.1045   19.3810   71.7314 N   0  0  0  0  0
    5.9864   21.0675   68.3699 N   0  0  0  0  0
    1.8305   20.3996   68.1127 N   0  0  0  0  0
   -0.6371   22.5837   67.9714 N   0  0  0  0  0
    1.8723   19.5338   70.2733 O   0  0  0  0  0
   -0.5824   23.8312   66.0084 O   0  0  0  0  0
   -0.6464   21.2392   69.8704 O   0  0  0  0  0
  1  2  1  0  0  0
  2 15  1  0  0  0
  4  5  1  0  0  0
  6 16  1  0  0  0
  7  8  1  0  0  0
  7  3  1  0  0  0
  8 17  1  0  0  0
  9 17  1  0  0  0
  9 10  1  0  0  0
  9 13  1  0  0  0
 10 11  1  0  0  0
 11 12  1  0  0  0
 12 18  1  0  0  0
 14  5  1  0  0  0
 15  3  1  0  0  0
 18 13  1  0  0  0
  3  4  2  0  0  0
  5 16  2  0  0  0
  6  7  2  0  0  0
  8 19  2  0  0  0
 12 20  2  0  0  0
 13 21  2  0  0  0
M  END
> <rmsd>
0.768867552

$$$$
PubChem-163027015


 33 35  0  0  0  0  0  0  0  0999 V2000
    1.0542   25.2303   66.0988 C   0  0  0  0  0
    1.0055   22.9045   65.1723 C   0  0  0  0  0
    0.2146   21.7990   64.7478 C   0  0  0  0  0
   -1.1964   21.8327   64.7061 C   0  0  0  0  0
   -1.9001   20.7048   64.2905 C   0  0  0  0  0
   -1.1980   19.5607   63.9179 C   0  0  0  0  0
   -1.9415   18.3523   63.4757 C   0  0  0  0  0
    0.8513   20.5882   64.3412 C   0  0  0  0  0
    2.2463   20.4841   64.3433 C   0  0  0  0  0
    2.9911   21.5816   64.7506 C   0  0  0  0  0
    2.4082   22.7500   65.1536 C   0  0  0  0  0
    3.4785   23.7207   65.5218 C   0  0  0  0  0
    4.7843   22.9160   65.3048 C   0  0  0  0  0
    5.5733   22.7473   66.6105 C   0  0  0  0  0
    6.0180   24.1198   67.1068 C   0  0  0  0  0
    6.8149   21.9106   66.3159 C   0  0  0  0  0
    5.2642   20.5870   68.9958 C   0  0  0  0  0
    4.0874   20.4181   69.9478 C   0  0  0  0  0
    2.7632   20.6641   69.2231 C   0  0  0  0  0
    1.6121   20.8465   70.2110 C   0  0  0  0  0
    0.4458   21.6153   69.5911 C   0  0  0  0  0
   -0.3220   20.7790   68.5748 C   0  0  0  0  0
    0.3772   24.0909   65.5883 O   0  0  0  0  0
   -1.8440   22.8617   65.0361 O   0  0  0  0  0
    0.1294   19.5418   63.9531 O   0  0  0  0  0
    4.3643   21.6432   64.8129 O   0  0  0  0  0
    4.7425   22.1117   67.5610 O   0  0  0  0  0
    5.4411   21.9366   68.6707 O   0  0  0  0  0
    4.1152   19.1349   70.4977 O   0  0  0  0  0
    2.4930   19.6406   68.3084 O   0  0  0  0  0
    1.1920   19.6210   70.7394 O   0  0  0  0  0
   -0.4186   22.0447   70.5996 O   0  0  0  0  0
   -1.2740   21.5699   67.9334 O   0  0  0  0  0
  1 23  1  0  0  0
  2 23  1  0  0  0
  3  4  1  0  0  0
  4  5  1  0  0  0
  6 25  1  0  0  0
  7  6  1  0  0  0
  8 25  1  0  0  0
  8  3  1  0  0  0
  9 10  1  0  0  0
 10 26  1  0  0  0
 11  2  1  0  0  0
 12 11  1  0  0  0
 12 13  1  0  0  0
 13 26  1  0  0  0
 13 14  1  0  0  0
 14 15  1  0  0  0
 14 16  1  0  0  0
 14 27  1  0  0  0
 17 28  1  0  0  0
 17 18  1  0  0  0
 18 29  1  0  0  0
 18 19  1  0  0  0
 19 30  1  0  0  0
 19 20  1  0  0  0
 20 31  1  0  0  0
 20 21  1  0  0  0
 21 32  1  0  0  0
 21 22  1  0  0  0
 22 33  1  0  0  0
 27 28  1  0  0  0
  2  3  2  0  0  0
  4 24  2  0  0  0
  5  6  2  0  0  0
  8  9  2  0  0  0
 10 11  2  0  0  0
M  END
> <rmsd>
0.827846766

$$$$
PubChem-20478556


 22 24  0  0  0  0  0  0  0  0999 V2000
    3.7574   24.6928   67.9590 C   0  0  0  0  0
    4.3829   23.4758   68.2141 C   0  0  0  0  0
    3.6674   22.4106   68.7746 C   0  0  0  0  0
    2.2939   22.5636   69.0854 C   0  0  0  0  0
    1.6644   23.8071   68.8088 C   0  0  0  0  0
    2.4066   24.8545   68.2548 C   0  0  0  0  0
   -0.5400   23.5051   67.4702 C   0  0  0  0  0
   -0.9711   23.4523   65.3924 C   0  0  0  0  0
   -1.1147   22.1812   65.9134 C   0  0  0  0  0
    1.5692   21.3944   69.6610 C   0  0  0  0  0
    2.1731   20.0163   69.5411 C   0  0  0  0  0
    3.6813   20.0639   69.8617 C   0  0  0  0  0
    4.3620   21.1318   69.0442 C   0  0  0  0  0
   -0.0841   24.1167   69.0883 S   0  0  0  0  0
   -0.6074   24.2895   66.3808 N   0  0  0  0  0
   -0.8415   22.2174   67.2301 N   0  0  0  0  0
    0.4548   21.5339   70.2335 O   0  0  0  0  0
    5.5339   20.9450   68.6148 O   0  0  0  0  0
    4.2564   18.8179   69.5916 O   0  0  0  0  0
    3.8649   20.3578   71.2159 O   0  0  0  0  0
    1.5379   19.1354   70.4231 O   0  0  0  0  0
    1.9804   19.5574   68.2349 O   0  0  0  0  0
  2  3  1  0  0  0
  4  5  1  0  0  0
  4 10  1  0  0  0
  5 14  1  0  0  0
  6  1  1  0  0  0
  7 14  1  0  0  0
  8 15  1  0  0  0
  9 16  1  0  0  0
 11 10  1  0  0  0
 11 12  1  0  0  0
 11 21  1  0  0  0
 11 22  1  0  0  0
 12 13  1  0  0  0
 12 19  1  0  0  0
 12 20  1  0  0  0
 13  3  1  0  0  0
 16  7  1  0  0  0
  1  2  2  0  0  0
  3  4  2  0  0  0
  5  6  2  0  0  0
  7 15  2  0  0  0
  8  9  2  0  0  0
 10 17  2  0  0  0
 13 18  2  0  0  0
M  END
> <rmsd>
0.754113257

$$$$
PubChem-135990098


 19 19  0  0  0  0  0  0  0  0999 V2000
   -2.0286   23.4304   62.8798 C   0  0  0  0  0
   -1.3452   23.8408   64.1668 C   0  0  0  0  0
   -0.8815   22.8610   66.4411 C   0  0  0  0  0
   -0.5039   21.7175   68.6822 C   0  0  0  0  0
   -0.6808   20.4897   69.5142 C   0  0  0  0  0
   -2.1547   20.2238   69.7494 C   0  0  0  0  0
    1.7322   19.5013   69.2328 C   0  0  0  0  0
    3.4580   19.4100   70.8445 C   0  0  0  0  0
    4.2678   20.2076   70.0369 C   0  0  0  0  0
    3.7615   20.6369   68.8108 C   0  0  0  0  0
   -1.4397   22.7584   65.1317 N   0  0  0  0  0
   -1.0095   21.7554   67.3409 N   0  0  0  0  0
    2.2091   19.0711   70.4306 N   0  0  0  0  0
    2.5080   20.2772   68.4304 N   0  0  0  0  0
    3.9392   18.9515   72.1017 N   0  0  0  0  0
   -0.2830   23.9137   66.7941 O   0  0  0  0  0
    0.0942   22.7101   69.1761 O   0  0  0  0  0
    4.4652   21.3573   68.0570 O   0  0  0  0  0
    0.0836   19.0454   68.7112 S   0  0  0  0  0
  1  2  1  0  0  0
  2 11  1  0  0  0
  3 12  1  0  0  0
  5  4  1  0  0  0
  5  6  1  0  0  0
  5 19  1  0  0  0
  7 19  1  0  0  0
  8 13  1  0  0  0
  8 15  1  0  0  0
  9 10  1  0  0  0
 10 14  1  0  0  0
 11  3  1  0  0  0
 12  4  1  0  0  0
 14  7  1  0  0  0
  3 16  2  0  0  0
  4 17  2  0  0  0
  7 13  2  0  0  0
  8  9  2  0  0  0
 10 18  2  0  0  0
M  END
> <rmsd>
0.785231709

$$$$
PubChem-27056892 16313287 CSC028167564 MCULE-7349711609 MolPort-009-899-206 ZINC000016313287 ZINC16313287


 26 28  0  0  0  0  0  0  0  0999 V2000
   -1.1579   26.0168   65.6872 C   0  0  0  0  0
    0.3225   24.0316   65.6988 C   0  0  0  0  0
    1.2700   24.6630   64.8751 C   0  0  0  0  0
    2.4353   23.9940   64.4939 C   0  0  0  0  0
    2.6637   22.6881   64.9305 C   0  0  0  0  0
    3.9033   21.9745   64.5279 C   0  0  0  0  0
    1.7271   22.0524   65.7478 C   0  0  0  0  0
    0.5555   22.7184   66.1399 C   0  0  0  0  0
   -0.2277   20.7441   67.5524 C   0  0  0  0  0
    0.7049   20.8054   68.7128 C   0  0  0  0  0
    2.8653   19.6581   70.7455 C   0  0  0  0  0
    5.1717   19.8174   70.4990 C   0  0  0  0  0
    5.9960   20.8603   71.2716 C   0  0  0  0  0
    7.1840   20.2140   71.9792 C   0  0  0  0  0
    8.1430   19.5545   70.9783 C   0  0  0  0  0
    7.4552   19.0618   69.6980 C   0  0  0  0  0
    6.0114   18.6432   69.9666 C   0  0  0  0  0
    4.4245   20.4802   69.3794 C   0  0  0  0  0
   -0.8496   24.6891   66.0894 O   0  0  0  0  0
    0.2740   21.1680   69.8391 O   0  0  0  0  0
    1.7531   19.2693   71.1882 O   0  0  0  0  0
    4.9658   21.0094   68.3716 O   0  0  0  0  0
   -0.4090   22.0725   66.9805 N   0  0  0  0  0
    2.0933   20.5292   68.5153 N   0  0  0  0  0
    3.0199   20.4320   69.5663 N   0  0  0  0  0
    4.1017   19.3000   71.3517 N   0  0  0  0  0
  1 19  1  0  0  0
  2 19  1  0  0  0
  3  4  1  0  0  0
  5  7  1  0  0  0
  6  5  1  0  0  0
  8 23  1  0  0  0
  8  2  1  0  0  0
  9 23  1  0  0  0
  9 10  1  0  0  0
 10 24  1  0  0  0
 11 26  1  0  0  0
 12 26  1  0  0  0
 12 13  1  0  0  0
 12 18  1  0  0  0
 13 14  1  0  0  0
 14 15  1  0  0  0
 15 16  1  0  0  0
 16 17  1  0  0  0
 17 12  1  0  0  0
 18 25  1  0  0  0
 24 25  1  0  0  0
 25 11  1  0  0  0
  2  3  2  0  0  0
  4  5  2  0  0  0
  7  8  2  0  0  0
 10 20  2  0  0  0
 11 21  2  0  0  0
 18 22  2  0  0  0
M  END
> <rmsd>
0.774530828

$$$$
PubChem-136380215


 32 34  0  0  0  0  0  0  0  0999 V2000
    8.3352   20.3299   70.9465 C   0  0  0  0  0
    7.5413   21.1623   69.9623 C   0  0  0  0  0
    5.2306   21.3027   69.1211 C   0  0  0  0  0
    3.8355   20.8157   69.1244 C   0  0  0  0  0
    3.4062   19.7617   69.9520 C   0  0  0  0  0
    2.0694   19.3591   69.8798 C   0  0  0  0  0
    1.6322   21.0197   68.2496 C   0  0  0  0  0
    0.6749   21.6627   67.2764 C   0  0  0  0  0
    0.7254   20.8703   65.9654 C   0  0  0  0  0
    0.0165   21.6129   64.8340 C   0  0  0  0  0
    0.5200   23.0567   64.7949 C   0  0  0  0  0
    1.0850   23.1198   66.9791 C   0  0  0  0  0
   -0.1555   23.8120   63.6655 C   0  0  0  0  0
   -1.1263   22.2871   68.9968 C   0  0  0  0  0
   -2.9927   22.8815   70.5055 C   0  0  0  0  0
   -3.2190   24.3196   70.1819 C   0  0  0  0  0
   -4.3044   24.6965   69.3829 C   0  0  0  0  0
   -4.5054   26.0434   69.0655 C   0  0  0  0  0
   -3.6199   27.0143   69.5438 C   0  0  0  0  0
   -2.5324   26.6384   70.3386 C   0  0  0  0  0
   -2.3311   25.2916   70.6562 C   0  0  0  0  0
    6.1943   20.7149   69.9438 O   0  0  0  0  0
    5.5486   22.2607   68.3636 O   0  0  0  0  0
    1.6500   18.4131   70.5974 O   0  0  0  0  0
    0.2313   23.6902   66.0161 O   0  0  0  0  0
    0.3118   23.3487   62.4353 O   0  0  0  0  0
   -0.3055   22.9392   69.6996 O   0  0  0  0  0
   -2.4674   22.1948   69.3750 O   0  0  0  0  0
    4.2774   19.1185   70.8263 O   0  0  0  0  0
    1.2167   19.9866   69.0310 N   0  0  0  0  0
    2.9363   21.4080   68.2923 N   0  0  0  0  0
   -0.6932   21.6277   67.8018 N   0  0  0  0  0
  1  2  1  0  0  0
  2 22  1  0  0  0
  3 22  1  0  0  0
  3  4  1  0  0  0
  4 31  1  0  0  0
  5  6  1  0  0  0
  5 29  1  0  0  0
  6 30  1  0  0  0
  8  7  1  0  0  0
  8  9  1  0  0  0
  8 32  1  0  0  0
  9 10  1  0  0  0
 10 11  1  0  0  0
 11 25  1  0  0  0
 11 13  1  0  0  0
 12 25  1  0  0  0
 12  8  1  0  0  0
 13 26  1  0  0  0
 14 28  1  0  0  0
 15 28  1  0  0  0
 15 16  1  0  0  0
 17 18  1  0  0  0
 19 20  1  0  0  0
 21 16  1  0  0  0
 30  7  1  0  0  0
 32 14  1  0  0  0
  3 23  2  0  0  0
  4  5  2  0  0  0
  6 24  2  0  0  0
  7 31  2  0  0  0
 14 27  2  0  0  0
 16 17  2  0  0  0
 18 19  2  0  0  0
 20 21  2  0  0  0
M  END
> <rmsd>
0.656335413

$$$$
PubChem-81249901


 19 20  0  0  0  0  0  0  0  0999 V2000
    0.0221   20.2690   66.4564 C   0  0  0  0  0
    0.3078   21.6271   65.8105 C   0  0  0  0  0
   -0.3260   22.7415   66.5878 C   0  0  0  0  0
   -0.3327   21.3587   68.6571 C   0  0  0  0  0
    0.3828   20.2495   67.9426 C   0  0  0  0  0
    2.5113   20.0445   69.3136 C   0  0  0  0  0
    3.9724   20.2768   69.4186 C   0  0  0  0  0
    4.7260   19.9660   70.5751 C   0  0  0  0  0
    6.1035   20.2202   70.5864 C   0  0  0  0  0
    6.7167   20.7745   69.4645 C   0  0  0  0  0
    4.6422   20.8333   68.3190 C   0  0  0  0  0
   -0.5695   23.8366   66.0191 O   0  0  0  0  0
   -0.6442   21.2275   69.8691 O   0  0  0  0  0
    1.8665   19.5412   70.2731 O   0  0  0  0  0
   -0.6338   22.5784   67.9748 N   0  0  0  0  0
    1.8248   20.3889   68.1050 N   0  0  0  0  0
    5.9799   21.0675   68.3627 N   0  0  0  0  0
    4.1032   19.3974   71.7316 N   0  0  0  0  0
    4.8338   19.0838   72.8855 N   0  0  0  0  0
  1  2  1  0  0  0
  2  3  1  0  0  0
  3 15  1  0  0  0
  5  4  1  0  0  0
  5 16  1  0  0  0
  5  1  1  0  0  0
  6  7  1  0  0  0
  8  9  1  0  0  0
  8 18  1  0  0  0
 10 17  1  0  0  0
 11  7  1  0  0  0
 15  4  1  0  0  0
 16  6  1  0  0  0
 18 19  1  0  0  0
  3 12  2  0  0  0
  4 13  2  0  0  0
  6 14  2  0  0  0
  7  8  2  0  0  0
  9 10  2  0  0  0
 11 17  2  0  0  0
M  END
> <rmsd>
0.768322825

$$$$
PubChem-46663591


 29 30  0  0  0  0  0  0  0  0999 V2000
    6.6907   20.6269   72.1590 C   0  0  0  0  0
    5.9314   21.1590   70.9528 C   0  0  0  0  0
    5.0984   20.0752   70.2687 C   0  0  0  0  0
    4.2471   20.6764   69.1907 C   0  0  0  0  0
    2.8258   19.7849   70.6620 C   0  0  0  0  0
    0.4770   20.7654   68.7659 C   0  0  0  0  0
   -0.5244   20.6087   67.6786 C   0  0  0  0  0
   -1.5094   22.0274   65.8143 C   0  0  0  0  0
   -2.3072   20.9595   65.3834 C   0  0  0  0  0
   -3.1737   21.0853   64.2879 C   0  0  0  0  0
   -3.2414   22.3207   63.6037 C   0  0  0  0  0
   -2.4442   23.3832   64.0374 C   0  0  0  0  0
   -1.5774   23.2621   65.1306 C   0  0  0  0  0
   -0.7734   24.4472   65.5140 C   0  0  0  0  0
   -0.1600   26.7969   65.0963 C   0  0  0  0  0
   -4.9447   21.5976   61.9179 C   0  0  0  0  0
   -3.9308   18.7373   64.5377 C   0  0  0  0  0
    5.9761   18.9727   69.6957 C   0  0  0  0  0
    4.6929   21.2206   68.1447 O   0  0  0  0  0
    1.7680   19.3379   71.1770 O   0  0  0  0  0
    0.0995   21.1285   69.9110 O   0  0  0  0  0
    0.0207   24.4022   66.4937 O   0  0  0  0  0
   -0.9007   25.6284   64.7776 O   0  0  0  0  0
   -4.0717   22.5565   62.4975 O   0  0  0  0  0
   -3.9583   19.9991   63.8834 O   0  0  0  0  0
    2.8619   20.5489   69.4661 N   0  0  0  0  0
    4.1161   19.5079   71.1942 N   0  0  0  0  0
    1.8651   20.5831   68.4765 N   0  0  0  0  0
   -0.6362   21.8554   66.9366 N   0  0  0  0  0
  1  2  1  0  0  0
  3  2  1  0  0  0
  3  4  1  0  0  0
  3 18  1  0  0  0
  3 27  1  0  0  0
  4 26  1  0  0  0
  5 27  1  0  0  0
  7  6  1  0  0  0
  7 29  1  0  0  0
  9 10  1  0  0  0
 10 25  1  0  0  0
 11 12  1  0  0  0
 11 24  1  0  0  0
 13 14  1  0  0  0
 13  8  1  0  0  0
 14 23  1  0  0  0
 15 23  1  0  0  0
 16 24  1  0  0  0
 17 25  1  0  0  0
 26  5  1  0  0  0
 26 28  1  0  0  0
 28  6  1  0  0  0
 29  8  1  0  0  0
  4 19  2  0  0  0
  5 20  2  0  0  0
  6 21  2  0  0  0
  8  9  2  0  0  0
 10 11  2  0  0  0
 12 13  2  0  0  0
 14 22  2  0  0  0
M  END
> <rmsd>
0.687941194

$$$$
PubChem-121352658


 30 33  0  0  0  0  0  0  0  0999 V2000
    6.3831   22.2939   67.9394 C   0  0  0  0  0
    5.1077   21.2275   69.3948 C   0  0  0  0  0
    4.6759   19.8327   69.8191 C   0  0  0  0  0
    3.3674   19.4266   69.1502 C   0  0  0  0  0
    1.1245   19.8077   70.2502 C   0  0  0  0  0
    0.0808   20.7587   70.7377 C   0  0  0  0  0
    0.5626   21.4391   71.9966 C   0  0  0  0  0
    1.0375   22.6883   71.9814 C   0  0  0  0  0
    1.0363   23.4749   70.7373 C   0  0  0  0  0
    0.3962   23.0180   69.6418 C   0  0  0  0  0
    0.8958   25.2445   68.5568 C   0  0  0  0  0
    0.0059   26.1048   69.4568 C   0  0  0  0  0
    0.5363   25.8409   70.8714 C   0  0  0  0  0
    2.1395   25.1466   69.4156 C   0  0  0  0  0
   -0.2943   23.4699   67.2330 C   0  0  0  0  0
   -1.1910   21.5453   65.8131 C   0  0  0  0  0
   -1.4692   20.1763   65.7582 C   0  0  0  0  0
   -2.0333   19.6376   64.6009 C   0  0  0  0  0
   -2.3186   20.4672   63.5146 C   0  0  0  0  0
   -2.0299   21.8307   63.6048 C   0  0  0  0  0
    5.4920   21.2240   68.0531 O   0  0  0  0  0
    0.9894   18.5743   70.4699 O   0  0  0  0  0
   -0.5300   24.3286   66.3405 O   0  0  0  0  0
    4.5391   19.7855   71.2063 O   0  0  0  0  0
    2.2827   20.3003   69.5731 N   0  0  0  0  0
   -0.2375   21.7320   69.6884 N   0  0  0  0  0
    0.3150   23.8833   68.4699 N   0  0  0  0  0
    1.5512   24.8145   70.6966 N   0  0  0  0  0
   -0.6113   22.0901   67.0034 N   0  0  0  0  0
   -1.4775   22.3364   64.7405 N   0  0  0  0  0
  1 21  1  0  0  0
  2 21  1  0  0  0
  2  3  1  0  0  0
  3  4  1  0  0  0
  3 24  1  0  0  0
  4 25  1  0  0  0
  6  5  1  0  0  0
  6  7  1  0  0  0
  6 26  1  0  0  0
  8  9  1  0  0  0
 10 26  1  0  0  0
 10 27  1  0  0  0
 11 27  1  0  0  0
 11 12  1  0  0  0
 12 13  1  0  0  0
 13 28  1  0  0  0
 14 28  1  0  0  0
 14 11  1  0  0  0
 15 29  1  0  0  0
 16 30  1  0  0  0
 17 18  1  0  0  0
 19 20  1  0  0  0
 25  5  1  0  0  0
 27 15  1  0  0  0
 28  9  1  0  0  0
 29 16  1  0  0  0
  5 22  2  0  0  0
  7  8  2  0  0  0
  9 10  2  0  0  0
 15 23  2  0  0  0
 16 17  2  0  0  0
 18 19  2  0  0  0
 20 30  2  0  0  0
M  END
> <rmsd>
0.647488475

$$$$
PubChem-133076431 MCULE-9224847969


 38 40  0  0  0  0  0  0  0  0999 V2000
    4.2091   16.2185   73.7509 C   0  0  0  0  0
    4.4394   17.7026   73.5252 C   0  0  0  0  0
    5.8745   18.0252   73.9011 C   0  0  0  0  0
    4.1599   18.0809   72.0698 C   0  0  0  0  0
    2.6990   17.8199   71.7280 C   0  0  0  0  0
    2.0592   17.3884   69.3690 C   0  0  0  0  0
    2.1264   15.9976   69.5566 C   0  0  0  0  0
    1.8009   15.1224   68.5211 C   0  0  0  0  0
    1.4051   15.6262   67.2837 C   0  0  0  0  0
    1.3284   17.0049   67.0852 C   0  0  0  0  0
    1.6475   17.9023   68.1168 C   0  0  0  0  0
    1.5167   19.3563   67.8537 C   0  0  0  0  0
    1.4159   21.7471   68.8027 C   0  0  0  0  0
    2.2851   22.3685   67.7170 C   0  0  0  0  0
    3.5265   23.0228   68.3053 C   0  0  0  0  0
    4.4793   22.0233   68.8733 C   0  0  0  0  0
    5.9181   21.3529   70.8957 C   0  0  0  0  0
    7.2387   21.5589   70.1214 C   0  0  0  0  0
    8.4408   20.9600   70.8518 C   0  0  0  0  0
    8.5634   21.5642   72.2443 C   0  0  0  0  0
    7.2926   21.2926   73.0389 C   0  0  0  0  0
    6.0879   21.9018   72.3227 C   0  0  0  0  0
    5.5070   19.8962   70.9521 C   0  0  0  0  0
   -0.0325   22.0597   68.6104 C   0  0  0  0  0
   -2.0417   22.2258   67.0710 C   0  0  0  0  0
   -2.2412   23.7378   67.1044 C   0  0  0  0  0
   -1.5848   24.4119   65.9093 C   0  0  0  0  0
    0.2899   24.9886   64.9000 C   0  0  0  0  0
    2.4143   18.2574   70.4054 O   0  0  0  0  0
    1.2794   19.7558   66.6806 O   0  0  0  0  0
    4.9615   21.1216   68.1366 O   0  0  0  0  0
    6.0803   19.0378   70.2247 O   0  0  0  0  0
   -0.7019   22.4888   69.5874 O   0  0  0  0  0
   -0.2063   24.4939   66.1050 O   0  0  0  0  0
    1.6413   20.3089   68.9192 N   0  0  0  0  0
    4.8644   22.1322   70.2485 N   0  0  0  0  0
    4.4700   19.4880   71.8489 N   0  0  0  0  0
   -0.6519   21.8769   67.3346 N   0  0  0  0  0
  1  2  1  0  0  0
  2  3  1  0  0  0
  4  2  1  0  0  0
  4  5  1  0  0  0
  4 37  1  0  0  0
  5 29  1  0  0  0
  6 29  1  0  0  0
  7  8  1  0  0  0
  9 10  1  0  0  0
 11 12  1  0  0  0
 11  6  1  0  0  0
 12 35  1  0  0  0
 13 35  1  0  0  0
 13 14  1  0  0  0
 13 24  1  0  0  0
 14 15  1  0  0  0
 15 16  1  0  0  0
 16 36  1  0  0  0
 17 36  1  0  0  0
 17 18  1  0  0  0
 17 23  1  0  0  0
 18 19  1  0  0  0
 19 20  1  0  0  0
 20 21  1  0  0  0
 21 22  1  0  0  0
 22 17  1  0  0  0
 23 37  1  0  0  0
 24 38  1  0  0  0
 25 38  1  0  0  0
 25 26  1  0  0  0
 26 27  1  0  0  0
 27 34  1  0  0  0
 28 34  1  0  0  0
  6  7  2  0  0  0
  8  9  2  0  0  0
 10 11  2  0  0  0
 12 30  2  0  0  0
 16 31  2  0  0  0
 23 32  2  0  0  0
 24 33  2  0  0  0
M  END
> <rmsd>
0.603693366

$$$$
PubChem-81245315


 19 20  0  0  0  0  0  0  0  0999 V2000
    4.8314   19.0280   72.9417 C   0  0  0  0  0
    4.7332   19.9539   70.5775 C   0  0  0  0  0
    3.9789   20.2743   69.4236 C   0  0  0  0  0
    4.6476   20.8383   68.3271 C   0  0  0  0  0
    6.7237   20.7692   69.4683 C   0  0  0  0  0
    6.1119   20.2074   70.5871 C   0  0  0  0  0
    2.5173   20.0447   69.3180 C   0  0  0  0  0
    0.3885   20.2589   67.9505 C   0  0  0  0  0
    0.0279   20.2693   66.4641 C   0  0  0  0  0
    0.3095   21.6250   65.8117 C   0  0  0  0  0
   -0.3313   22.7401   66.5818 C   0  0  0  0  0
   -0.3273   21.3710   68.6600 C   0  0  0  0  0
    4.1066   19.3767   71.7296 N   0  0  0  0  0
    5.9855   21.0710   68.3702 N   0  0  0  0  0
    1.8303   20.3997   68.1129 N   0  0  0  0  0
   -0.6372   22.5840   67.9700 N   0  0  0  0  0
    1.8723   19.5349   70.2740 O   0  0  0  0  0
   -0.5831   23.8297   66.0059 O   0  0  0  0  0
   -0.6460   21.2414   69.8704 O   0  0  0  0  0
  1 13  1  0  0  0
  3  4  1  0  0  0
  3  7  1  0  0  0
  5 14  1  0  0  0
  6  2  1  0  0  0
  7 15  1  0  0  0
  8 15  1  0  0  0
  8  9  1  0  0  0
  8 12  1  0  0  0
  9 10  1  0  0  0
 10 11  1  0  0  0
 11 16  1  0  0  0
 13  2  1  0  0  0
 16 12  1  0  0  0
  2  3  2  0  0  0
  4 14  2  0  0  0
  5  6  2  0  0  0
  7 17  2  0  0  0
 11 18  2  0  0  0
 12 19  2  0  0  0
M  END
> <rmsd>
0.768292129

$$$$
PubChem-65954434


 19 20  0  0  0  0  0  0  0  0999 V2000
    7.5387   20.7207   67.0883 C   0  0  0  0  0
    7.2347   21.5280   68.3361 C   0  0  0  0  0
    6.1555   20.4335   70.2854 C   0  0  0  0  0
    4.8742   20.0218   70.5780 C   0  0  0  0  0
    4.0933   20.3209   69.4800 C   0  0  0  0  0
    2.6540   20.0787   69.3114 C   0  0  0  0  0
    0.5823   20.3028   67.8656 C   0  0  0  0  0
    0.2819   20.3527   66.3667 C   0  0  0  0  0
    0.5663   21.7321   65.7672 C   0  0  0  0  0
   -0.1251   22.8125   66.5429 C   0  0  0  0  0
   -0.1800   21.3816   68.5784 C   0  0  0  0  0
    6.1025   20.9512   69.0414 N   0  0  0  0  0
    4.8735   20.8962   68.5467 N   0  0  0  0  0
    2.0137   20.4601   68.0911 N   0  0  0  0  0
   -0.4833   22.6096   67.9124 N   0  0  0  0  0
    4.4491   19.4123   71.7923 N   0  0  0  0  0
    1.9896   19.5332   70.2336 O   0  0  0  0  0
   -0.3738   23.9143   65.9892 O   0  0  0  0  0
   -0.5439   21.2106   69.7707 O   0  0  0  0  0
  1  2  1  0  0  0
  2 12  1  0  0  0
  4  5  1  0  0  0
  4 16  1  0  0  0
  5  6  1  0  0  0
  6 14  1  0  0  0
  7 14  1  0  0  0
  7  8  1  0  0  0
  7 11  1  0  0  0
  8  9  1  0  0  0
  9 10  1  0  0  0
 10 15  1  0  0  0
 12  3  1  0  0  0
 12 13  1  0  0  0
 15 11  1  0  0  0
  3  4  2  0  0  0
  5 13  2  0  0  0
  6 17  2  0  0  0
 10 18  2  0  0  0
 11 19  2  0  0  0
M  END
> <rmsd>
0.808972061

$$$$
PubChem-90057205


 38 40  0  0  0  0  0  0  0  0999 V2000
   -2.3871   24.8402   70.5968 C   0  0  0  0  0
   -1.5884   24.9266   69.3021 C   0  0  0  0  0
   -0.1825   25.4629   69.6046 C   0  0  0  0  0
    0.6667   24.3744   70.2566 C   0  0  0  0  0
    0.4159   22.0349   69.3719 C   0  0  0  0  0
    0.7359   21.0018   68.3348 C   0  0  0  0  0
    0.3161   21.4658   66.9358 C   0  0  0  0  0
   -1.3242   23.3489   66.5741 C   0  0  0  0  0
   -2.7277   23.8971   66.6512 C   0  0  0  0  0
   -2.3297   25.7764   68.3080 C   0  0  0  0  0
   -3.8219   23.0085   67.2677 C   0  0  0  0  0
   -4.1482   21.8426   66.3517 C   0  0  0  0  0
   -3.4845   22.4969   68.6580 C   0  0  0  0  0
    0.3854   20.3051   65.9597 C   0  0  0  0  0
    2.8429   20.1538   69.4723 C   0  0  0  0  0
    4.3190   20.2128   69.5412 C   0  0  0  0  0
    5.0520   19.6539   70.6133 C   0  0  0  0  0
    6.4388   19.8108   70.6465 C   0  0  0  0  0
    7.0894   20.5092   69.6275 C   0  0  0  0  0
    6.3404   21.0328   68.5744 C   0  0  0  0  0
    1.9295   24.9708   70.8872 C   0  0  0  0  0
    2.8049   23.9469   71.5428 C   0  0  0  0  0
    4.1974   24.0919   71.4591 C   0  0  0  0  0
    5.0405   23.1990   72.1240 C   0  0  0  0  0
    4.4924   22.1562   72.8732 C   0  0  0  0  0
    3.1029   22.0079   72.9668 C   0  0  0  0  0
    2.2610   22.9102   72.3156 C   0  0  0  0  0
    1.0026   23.3371   69.2871 N   0  0  0  0  0
   -1.0407   21.9967   66.9491 N   0  0  0  0  0
    2.1692   20.7284   68.3490 N   0  0  0  0  0
    4.9912   20.8700   68.5510 N   0  0  0  0  0
   -0.3908   21.7560   70.3041 O   0  0  0  0  0
   -0.4018   24.0837   66.1248 O   0  0  0  0  0
   -2.7970   25.2639   67.0866 O   0  0  0  0  0
   -2.5104   27.0023   68.5576 O   0  0  0  0  0
    2.1721   19.6438   70.4109 O   0  0  0  0  0
    4.4271   18.9582   71.6445 O   0  0  0  0  0
    0.4449   25.9476   68.4505 O   0  0  0  0  0
  2  1  1  0  0  0
  2  3  1  0  0  0
  2 10  1  0  0  0
  3  4  1  0  0  0
  3 38  1  0  0  0
  4 28  1  0  0  0
  4 21  1  0  0  0
  6  5  1  0  0  0
  6  7  1  0  0  0
  6 30  1  0  0  0
  7 29  1  0  0  0
  7 14  1  0  0  0
  9  8  1  0  0  0
  9 34  1  0  0  0
  9 11  1  0  0  0
 10 34  1  0  0  0
 11 12  1  0  0  0
 11 13  1  0  0  0
 15 16  1  0  0  0
 16 31  1  0  0  0
 17 18  1  0  0  0
 17 37  1  0  0  0
 19 20  1  0  0  0
 21 22  1  0  0  0
 23 24  1  0  0  0
 25 26  1  0  0  0
 27 22  1  0  0  0
 28  5  1  0  0  0
 29  8  1  0  0  0
 30 15  1  0  0  0
  5 32  2  0  0  0
  8 33  2  0  0  0
 10 35  2  0  0  0
 15 36  2  0  0  0
 16 17  2  0  0  0
 18 19  2  0  0  0
 20 31  2  0  0  0
 22 23  2  0  0  0
 24 25  2  0  0  0
 26 27  2  0  0  0
M  END
> <rmsd>
0.765428305

$$$$
PubChem-133079009 643568816 MCULE-5187827477


 38 40  0  0  0  0  0  0  0  0999 V2000
   -0.2726   26.2892   69.7356 C   0  0  0  0  0
   -0.1127   25.6897   68.3520 C   0  0  0  0  0
   -0.2350   24.1651   68.4151 C   0  0  0  0  0
   -0.4386   23.5249   67.0728 C   0  0  0  0  0
   -0.7637   21.3732   65.7861 C   0  0  0  0  0
   -1.0316   19.9105   66.0930 C   0  0  0  0  0
   -0.1291   18.1591   67.6060 C   0  0  0  0  0
   -0.9325   17.1644   67.0235 C   0  0  0  0  0
   -0.9687   15.8759   67.5582 C   0  0  0  0  0
   -0.2072   15.5683   68.6849 C   0  0  0  0  0
    0.5948   16.5476   69.2737 C   0  0  0  0  0
    0.6533   17.8450   68.7415 C   0  0  0  0  0
    1.5090   18.8496   69.4129 C   0  0  0  0  0
    2.7467   21.1081   69.2709 C   0  0  0  0  0
    2.0418   21.7750   70.4490 C   0  0  0  0  0
    0.8150   22.4836   69.9842 C   0  0  0  0  0
    4.1434   20.6877   69.6010 C   0  0  0  0  0
    5.7592   19.5102   71.1568 C   0  0  0  0  0
    6.3846   20.5914   72.0235 C   0  0  0  0  0
    7.8996   22.2930   71.0566 C   0  0  0  0  0
    8.0415   23.4500   70.2837 C   0  0  0  0  0
    9.3072   24.0023   70.0644 C   0  0  0  0  0
   10.4449   23.4037   70.6150 C   0  0  0  0  0
   10.3051   22.2420   71.3917 C   0  0  0  0  0
    9.0400   21.6900   71.6110 C   0  0  0  0  0
   12.9022   23.4406   70.8977 C   0  0  0  0  0
   -0.2764   24.1794   66.0064 O   0  0  0  0  0
   -0.1176   19.4565   67.0842 O   0  0  0  0  0
    1.8443   18.6745   70.6159 O   0  0  0  0  0
   -0.3150   22.1032   70.3911 O   0  0  0  0  0
    5.0829   21.0360   68.8371 O   0  0  0  0  0
    6.6217   21.7638   71.2539 O   0  0  0  0  0
   11.6955   23.9802   70.3753 O   0  0  0  0  0
    1.1199   26.0698   67.8149 O   0  0  0  0  0
   -0.7838   22.1415   67.0206 N   0  0  0  0  0
    1.9623   20.0111   68.7035 N   0  0  0  0  0
    0.9283   23.5734   69.0670 N   0  0  0  0  0
    4.4116   19.8922   70.7596 N   0  0  0  0  0
  2  1  1  0  0  0
  2  3  1  0  0  0
  2 34  1  0  0  0
  3  4  1  0  0  0
  3 37  1  0  0  0
  4 35  1  0  0  0
  5 35  1  0  0  0
  5  6  1  0  0  0
  6 28  1  0  0  0
  7 28  1  0  0  0
  8  9  1  0  0  0
 10 11  1  0  0  0
 12 13  1  0  0  0
 12  7  1  0  0  0
 13 36  1  0  0  0
 14 36  1  0  0  0
 14 15  1  0  0  0
 14 17  1  0  0  0
 15 16  1  0  0  0
 16 37  1  0  0  0
 17 38  1  0  0  0
 18 38  1  0  0  0
 18 19  1  0  0  0
 19 32  1  0  0  0
 20 32  1  0  0  0
 21 22  1  0  0  0
 23 24  1  0  0  0
 23 33  1  0  0  0
 25 20  1  0  0  0
 26 33  1  0  0  0
  4 27  2  0  0  0
  7  8  2  0  0  0
  9 10  2  0  0  0
 11 12  2  0  0  0
 13 29  2  0  0  0
 16 30  2  0  0  0
 17 31  2  0  0  0
 20 21  2  0  0  0
 22 23  2  0  0  0
 24 25  2  0  0  0
M  END
> <rmsd>
0.633282006

$$$$
PubChem-133066166 643559843 MCULE-7729637858


 32 34  0  0  0  0  0  0  0  0999 V2000
    1.1965   27.5902   67.2686 C   0  0  0  0  0
    1.2705   26.1454   67.7248 C   0  0  0  0  0
   -0.0601   25.7088   68.3308 C   0  0  0  0  0
   -0.2308   26.3017   69.7193 C   0  0  0  0  0
   -0.1947   24.1824   68.3951 C   0  0  0  0  0
   -0.4347   23.5332   67.0618 C   0  0  0  0  0
   -0.7632   21.3722   65.7907 C   0  0  0  0  0
   -1.0362   19.9118   66.1044 C   0  0  0  0  0
   -0.1305   18.1572   67.6108 C   0  0  0  0  0
   -0.9389   17.1647   67.0318 C   0  0  0  0  0
   -0.9809   15.8780   67.5703 C   0  0  0  0  0
   -0.2200   15.5701   68.6977 C   0  0  0  0  0
    0.5868   16.5474   69.2829 C   0  0  0  0  0
    0.6512   17.8430   68.7468 C   0  0  0  0  0
    1.5093   18.8467   69.4162 C   0  0  0  0  0
    2.7595   21.0979   69.2665 C   0  0  0  0  0
    2.0542   21.7727   70.4396 C   0  0  0  0  0
    0.8353   22.4905   69.9684 C   0  0  0  0  0
    4.1521   20.6709   69.6053 C   0  0  0  0  0
    5.7480   19.4415   71.1353 C   0  0  0  0  0
    5.6802   18.6201   72.4061 C   0  0  0  0  0
    6.3787   19.7299   73.1652 C   0  0  0  0  0
    6.4501   20.5510   71.8943 C   0  0  0  0  0
   -0.3461   24.1922   65.9897 O   0  0  0  0  0
   -0.1138   19.4532   67.0856 O   0  0  0  0  0
    1.8380   18.6770   70.6217 O   0  0  0  0  0
   -0.2989   22.1263   70.3781 O   0  0  0  0  0
    5.1008   21.0278   68.8572 O   0  0  0  0  0
   -0.7451   22.1410   67.0249 N   0  0  0  0  0
    1.9712   20.0021   68.7022 N   0  0  0  0  0
    0.9614   23.5722   69.0433 N   0  0  0  0  0
    4.4077   19.8682   70.7606 N   0  0  0  0  0
  1  2  1  0  0  0
  3  2  1  0  0  0
  3  4  1  0  0  0
  3  5  1  0  0  0
  5  6  1  0  0  0
  5 31  1  0  0  0
  6 29  1  0  0  0
  7 29  1  0  0  0
  7  8  1  0  0  0
  8 25  1  0  0  0
  9 25  1  0  0  0
 10 11  1  0  0  0
 12 13  1  0  0  0
 14 15  1  0  0  0
 14  9  1  0  0  0
 15 30  1  0  0  0
 16 30  1  0  0  0
 16 17  1  0  0  0
 16 19  1  0  0  0
 17 18  1  0  0  0
 18 31  1  0  0  0
 19 32  1  0  0  0
 20 32  1  0  0  0
 20 21  1  0  0  0
 21 22  1  0  0  0
 22 23  1  0  0  0
 23 20  1  0  0  0
  6 24  2  0  0  0
  9 10  2  0  0  0
 11 12  2  0  0  0
 13 14  2  0  0  0
 15 26  2  0  0  0
 18 27  2  0  0  0
 19 28  2  0  0  0
M  END
> <rmsd>
0.638508976

$$$$
PubChem-138730064


 31 33  0  0  0  0  0  0  0  0999 V2000
   -1.6561   18.9796   68.6222 C   0  0  0  0  0
   -1.8512   20.4746   68.4493 C   0  0  0  0  0
   -2.3915   21.0871   69.7322 C   0  0  0  0  0
   -0.5671   21.1537   67.9559 C   0  0  0  0  0
    0.5873   21.0385   68.9069 C   0  0  0  0  0
    2.8278   19.9902   69.4427 C   0  0  0  0  0
    4.0267   19.4757   68.6597 C   0  0  0  0  0
    5.2374   20.3094   68.9375 C   0  0  0  0  0
    6.6538   21.9031   68.8388 C   0  0  0  0  0
    7.1235   20.9636   69.7411 C   0  0  0  0  0
    6.2743   18.8129   70.6762 C   0  0  0  0  0
    5.7349   19.1876   72.0537 C   0  0  0  0  0
    3.3033   18.7211   71.6333 C   0  0  0  0  0
    2.4300   18.9712   70.4792 C   0  0  0  0  0
    1.2863   22.4724   65.7005 C   0  0  0  0  0
    2.2371   23.2839   66.3303 C   0  0  0  0  0
    3.6009   23.0317   66.1517 C   0  0  0  0  0
    4.0171   21.9654   65.3457 C   0  0  0  0  0
    3.0687   21.1510   64.7183 C   0  0  0  0  0
    1.7044   21.4039   64.8958 C   0  0  0  0  0
    0.5522   21.6145   70.0282 O   0  0  0  0  0
    3.1560   17.6786   72.3262 O   0  0  0  0  0
    1.3830   18.2830   70.3304 O   0  0  0  0  0
   -1.2454   21.8403   65.1098 O   0  0  0  0  0
   -0.7424   24.1929   65.5569 O   0  0  0  0  0
    1.7289   20.2694   68.5259 N   0  0  0  0  0
    5.4694   21.4895   68.3369 N   0  0  0  0  0
    6.2264   19.9647   69.7828 N   0  0  0  0  0
    4.3565   19.6350   71.9363 N   0  0  0  0  0
   -0.8202   22.5495   67.6250 N   0  0  0  0  0
   -0.4250   22.7779   65.9543 S   0  0  0  0  0
  1  2  1  0  0  0
  2  3  1  0  0  0
  2  4  1  0  0  0
  4  5  1  0  0  0
  4 30  1  0  0  0
  5 26  1  0  0  0
  6 26  1  0  0  0
  6  7  1  0  0  0
  6 14  1  0  0  0
  7  8  1  0  0  0
  9 27  1  0  0  0
 10 28  1  0  0  0
 11 28  1  0  0  0
 11 12  1  0  0  0
 12 29  1  0  0  0
 13 14  1  0  0  0
 16 17  1  0  0  0
 18 19  1  0  0  0
 20 15  1  0  0  0
 28  8  1  0  0  0
 29 13  1  0  0  0
 31 30  1  0  0  0
 31 15  1  0  0  0
  5 21  2  0  0  0
  8 27  2  0  0  0
  9 10  2  0  0  0
 13 22  2  0  0  0
 14 23  2  0  0  0
 15 16  2  0  0  0
 17 18  2  0  0  0
 19 20  2  0  0  0
 31 24  2  0  0  0
 31 25  2  0  0  0
M  END
> <rmsd>
0.665516913

$$$$
PubChem-133079919 MCULE-2691269522


 37 39  0  0  0  0  0  0  0  0999 V2000
   -0.0070   25.6361   68.0108 C   0  0  0  0  0
   -0.2164   24.1834   68.3968 C   0  0  0  0  0
   -0.5230   23.3443   67.1978 C   0  0  0  0  0
   -1.9376   21.4425   66.2162 C   0  0  0  0  0
   -0.7499   20.5775   65.7997 C   0  0  0  0  0
   -0.0832   18.6705   67.2442 C   0  0  0  0  0
   -0.8464   17.7635   66.4902 C   0  0  0  0  0
   -0.8784   16.4095   66.8281 C   0  0  0  0  0
   -0.1516   15.9479   67.9257 C   0  0  0  0  0
    0.6186   16.8378   68.6767 C   0  0  0  0  0
    0.6739   18.1983   68.3397 C   0  0  0  0  0
    1.5289   19.0974   69.1411 C   0  0  0  0  0
    2.9012   21.2811   69.2310 C   0  0  0  0  0
    2.1543   21.8872   70.4161 C   0  0  0  0  0
    0.9000   22.5491   69.9580 C   0  0  0  0  0
    4.2543   20.7752   69.6156 C   0  0  0  0  0
    5.6999   19.3737   71.1549 C   0  0  0  0  0
    6.3746   20.4677   71.9744 C   0  0  0  0  0
    5.7297   20.6294   73.3119 C   0  0  0  0  0
    5.8483   20.4095   75.6679 C   0  0  0  0  0
    4.5712   20.9610   75.7849 C   0  0  0  0  0
    4.4540   21.1908   73.4314 C   0  0  0  0  0
   -2.5184   22.1891   65.0225 C   0  0  0  0  0
   -3.4525   21.2994   64.2174 C   0  0  0  0  0
   -2.6650   20.4668   63.2244 C   0  0  0  0  0
   -4.4365   22.1663   63.4614 C   0  0  0  0  0
    0.1784   23.4432   66.1536 O   0  0  0  0  0
   -0.0996   20.0371   66.9437 O   0  0  0  0  0
    1.7622   18.8230   70.3494 O   0  0  0  0  0
   -0.2128   22.1009   70.3426 O   0  0  0  0  0
    5.2668   21.2065   69.0025 O   0  0  0  0  0
   -1.5779   22.3804   67.2778 N   0  0  0  0  0
    2.1103   20.2625   68.5396 N   0  0  0  0  0
    0.9654   23.6693   69.0719 N   0  0  0  0  0
    4.4012   19.8194   70.6692 N   0  0  0  0  0
    6.4005   20.2587   74.4349 N   0  0  0  0  0
    3.9025   21.3409   74.6643 N   0  0  0  0  0
  2  1  1  0  0  0
  2  3  1  0  0  0
  2 34  1  0  0  0
  3 32  1  0  0  0
  4 32  1  0  0  0
  4  5  1  0  0  0
  4 23  1  0  0  0
  5 28  1  0  0  0
  6 28  1  0  0  0
  7  8  1  0  0  0
  9 10  1  0  0  0
 11 12  1  0  0  0
 11  6  1  0  0  0
 12 33  1  0  0  0
 13 33  1  0  0  0
 13 14  1  0  0  0
 13 16  1  0  0  0
 14 15  1  0  0  0
 15 34  1  0  0  0
 16 35  1  0  0  0
 17 35  1  0  0  0
 17 18  1  0  0  0
 18 19  1  0  0  0
 20 36  1  0  0  0
 21 37  1  0  0  0
 22 19  1  0  0  0
 23 24  1  0  0  0
 24 25  1  0  0  0
 24 26  1  0  0  0
  3 27  2  0  0  0
  6  7  2  0  0  0
  8  9  2  0  0  0
 10 11  2  0  0  0
 12 29  2  0  0  0
 15 30  2  0  0  0
 16 31  2  0  0  0
 19 36  2  0  0  0
 20 21  2  0  0  0
 22 37  2  0  0  0
M  END
> <rmsd>
0.733038247

$$$$
PubChem-8241697


 29 31  0  0  0  0  0  0  0  0999 V2000
    6.0070   20.7855   71.2567 C   0  0  0  0  0
    5.1667   19.7958   70.4721 C   0  0  0  0  0
    4.4207   20.4968   69.3737 C   0  0  0  0  0
    2.8633   19.6474   70.7307 C   0  0  0  0  0
    0.6925   20.8189   68.7388 C   0  0  0  0  0
   -0.2537   20.7288   67.5956 C   0  0  0  0  0
   -1.3253   22.2955   65.9129 C   0  0  0  0  0
   -2.0274   21.2423   65.3056 C   0  0  0  0  0
   -2.8864   21.4914   64.2325 C   0  0  0  0  0
   -3.0499   22.7946   63.7574 C   0  0  0  0  0
   -2.3538   23.8484   64.3549 C   0  0  0  0  0
   -1.4872   23.6075   65.4346 C   0  0  0  0  0
   -0.8847   26.0042   65.6121 C   0  0  0  0  0
    6.0575   18.6693   69.9442 C   0  0  0  0  0
    5.2719   17.6008   69.1906 C   0  0  0  0  0
    6.1888   16.5574   68.6516 C   0  0  0  0  0
    6.8801   15.6989   69.5167 C   0  0  0  0  0
    7.7241   14.7122   68.9974 C   0  0  0  0  0
    7.8751   14.5792   67.6139 C   0  0  0  0  0
    7.1817   15.4315   66.7487 C   0  0  0  0  0
    6.3376   16.4180   67.2676 C   0  0  0  0  0
    4.9611   21.0521   68.3793 O   0  0  0  0  0
    1.7508   19.2600   71.1730 O   0  0  0  0  0
    0.2695   21.1786   69.8691 O   0  0  0  0  0
   -0.7863   24.6534   66.0460 O   0  0  0  0  0
    3.0167   20.4475   69.5663 N   0  0  0  0  0
    4.1007   19.2664   71.3239 N   0  0  0  0  0
    2.0840   20.5733   68.5227 N   0  0  0  0  0
   -0.4515   22.0500   67.0197 N   0  0  0  0  0
  2  1  1  0  0  0
  2  3  1  0  0  0
  2 14  1  0  0  0
  2 27  1  0  0  0
  3 26  1  0  0  0
  4 27  1  0  0  0
  6  5  1  0  0  0
  6 29  1  0  0  0
  8  9  1  0  0  0
 10 11  1  0  0  0
 12 25  1  0  0  0
 12  7  1  0  0  0
 13 25  1  0  0  0
 14 15  1  0  0  0
 15 16  1  0  0  0
 17 18  1  0  0  0
 19 20  1  0  0  0
 21 16  1  0  0  0
 26  4  1  0  0  0
 26 28  1  0  0  0
 28  5  1  0  0  0
 29  7  1  0  0  0
  3 22  2  0  0  0
  4 23  2  0  0  0
  5 24  2  0  0  0
  7  8  2  0  0  0
  9 10  2  0  0  0
 11 12  2  0  0  0
 16 17  2  0  0  0
 18 19  2  0  0  0
 20 21  2  0  0  0
M  END
> <rmsd>
0.749903023

$$$$
PubChem-8241697


 29 31  0  0  0  0  0  0  0  0999 V2000
    6.0092   20.8301   71.2521 C   0  0  0  0  0
    5.1702   19.8131   70.4940 C   0  0  0  0  0
    4.4251   20.4812   69.3777 C   0  0  0  0  0
    2.8645   19.6567   70.7428 C   0  0  0  0  0
    0.7041   20.8094   68.7171 C   0  0  0  0  0
   -0.2337   20.7397   67.5616 C   0  0  0  0  0
    0.5308   22.6890   66.1062 C   0  0  0  0  0
    1.6768   22.0007   65.6782 C   0  0  0  0  0
    2.5937   22.6149   64.8226 C   0  0  0  0  0
    2.3716   23.9217   64.3853 C   0  0  0  0  0
    1.2321   24.6129   64.8030 C   0  0  0  0  0
    0.3040   24.0030   65.6640 C   0  0  0  0  0
   -1.1433   26.0123   65.6894 C   0  0  0  0  0
    6.0272   18.6710   69.9502 C   0  0  0  0  0
    6.6762   17.8572   71.0642 C   0  0  0  0  0
    7.4906   16.7471   70.4938 C   0  0  0  0  0
    6.8745   15.6904   69.8105 C   0  0  0  0  0
    7.6467   14.6458   69.2933 C   0  0  0  0  0
    9.0346   14.6527   69.4619 C   0  0  0  0  0
    9.6505   15.7030   70.1496 C   0  0  0  0  0
    8.8787   16.7480   70.6671 C   0  0  0  0  0
    4.9667   21.0137   68.3716 O   0  0  0  0  0
    1.7518   19.2680   71.1841 O   0  0  0  0  0
    0.2768   21.1752   69.8437 O   0  0  0  0  0
   -0.8428   24.6824   66.0904 O   0  0  0  0  0
    3.0204   20.4331   69.5648 N   0  0  0  0  0
    4.1003   19.2965   71.3494 N   0  0  0  0  0
    2.0926   20.5367   68.5152 N   0  0  0  0  0
   -0.4163   22.0640   66.9815 N   0  0  0  0  0
  2  1  1  0  0  0
  2  3  1  0  0  0
  2 14  1  0  0  0
  2 27  1  0  0  0
  3 26  1  0  0  0
  4 27  1  0  0  0
  6  5  1  0  0  0
  6 29  1  0  0  0
  8  9  1  0  0  0
 10 11  1  0  0  0
 12 25  1  0  0  0
 12  7  1  0  0  0
 13 25  1  0  0  0
 14 15  1  0  0  0
 15 16  1  0  0  0
 17 18  1  0  0  0
 19 20  1  0  0  0
 21 16  1  0  0  0
 26  4  1  0  0  0
 26 28  1  0  0  0
 28  5  1  0  0  0
 29  7  1  0  0  0
  3 22  2  0  0  0
  4 23  2  0  0  0
  5 24  2  0  0  0
  7  8  2  0  0  0
  9 10  2  0  0  0
 11 12  2  0  0  0
 16 17  2  0  0  0
 18 19  2  0  0  0
 20 21  2  0  0  0
M  END
> <rmsd>
0.770653963

$$$$
PubChem-155435589


 30 32  0  0  0  0  0  0  0  0999 V2000
    5.7197   18.8451   71.7299 C   0  0  0  0  0
    3.2189   19.1122   71.8815 C   0  0  0  0  0
    1.9902   19.8505   71.4821 C   0  0  0  0  0
    0.6467   21.2656   69.0424 C   0  0  0  0  0
    0.8979   22.3957   68.1119 C   0  0  0  0  0
   -0.1263   22.9228   67.2979 C   0  0  0  0  0
    1.3827   24.4903   66.3577 C   0  0  0  0  0
    2.1759   22.9809   68.0096 C   0  0  0  0  0
    4.5443   23.0609   68.7291 C   0  0  0  0  0
    5.3418   22.5821   69.9045 C   0  0  0  0  0
    6.4170   21.7140   69.2936 C   0  0  0  0  0
    5.2651   22.4585   67.5427 C   0  0  0  0  0
    1.6449   25.5971   65.4188 C   0  0  0  0  0
    0.6155   26.1045   64.6116 C   0  0  0  0  0
    0.8665   27.1510   63.7194 C   0  0  0  0  0
    2.1490   27.6984   63.6272 C   0  0  0  0  0
    3.1806   27.2000   64.4272 C   0  0  0  0  0
    2.9293   26.1535   65.3192 C   0  0  0  0  0
    4.4983   27.7616   64.3331 C   0  0  0  0  0
    4.4896   19.5412   71.3922 N   0  0  0  0  0
    1.7008   20.3597   69.3791 N   0  0  0  0  0
    0.1417   23.9455   66.4464 N   0  0  0  0  0
    2.3823   24.0050   67.1383 N   0  0  0  0  0
    5.5608   28.2143   64.2572 N   0  0  0  0  0
   -1.4420   22.3756   67.3193 N   0  0  0  0  0
    3.1236   18.0945   72.6180 O   0  0  0  0  0
    1.5144   19.3526   70.2667 O   0  0  0  0  0
   -0.4989   21.0915   69.5392 O   0  0  0  0  0
    3.2279   22.5296   68.8146 O   0  0  0  0  0
    6.0230   21.3692   67.9933 O   0  0  0  0  0
  1 20  1  0  0  0
  3  2  1  0  0  0
  3 27  1  0  0  0
  4  5  1  0  0  0
  6 22  1  0  0  0
  6 25  1  0  0  0
  7 23  1  0  0  0
  7 13  1  0  0  0
  8 29  1  0  0  0
  8  5  1  0  0  0
  9 29  1  0  0  0
  9 10  1  0  0  0
 10 11  1  0  0  0
 11 30  1  0  0  0
 12 30  1  0  0  0
 12  9  1  0  0  0
 14 15  1  0  0  0
 16 17  1  0  0  0
 17 19  1  0  0  0
 18 13  1  0  0  0
 20  2  1  0  0  0
 21 27  1  0  0  0
 21  4  1  0  0  0
  2 26  2  0  0  0
  4 28  2  0  0  0
  5  6  2  0  0  0
  7 22  2  0  0  0
  8 23  2  0  0  0
 13 14  2  0  0  0
 15 16  2  0  0  0
 17 18  2  0  0  0
 19 24  3  0  0  0
M  END
> <rmsd>
0.674587548

$$$$
PubChem-46682417


 29 31  0  0  0  0  0  0  0  0999 V2000
   -1.3474   20.1769   67.6223 C   0  0  0  0  0
   -0.3240   21.2959   67.6349 C   0  0  0  0  0
    0.6092   21.1459   68.7892 C   0  0  0  0  0
    4.3413   20.8220   69.3854 C   0  0  0  0  0
    5.1112   19.9147   70.3009 C   0  0  0  0  0
    2.8166   19.5972   70.4634 C   0  0  0  0  0
    5.8828   20.7273   71.3234 C   0  0  0  0  0
    6.0700   18.9972   69.5406 C   0  0  0  0  0
    5.3536   18.0949   68.5406 C   0  0  0  0  0
    6.3319   17.2335   67.8191 C   0  0  0  0  0
    6.5188   17.4023   66.4431 C   0  0  0  0  0
    7.4240   16.5894   65.7534 C   0  0  0  0  0
    8.1398   15.6025   66.4384 C   0  0  0  0  0
    7.9499   15.4272   67.8126 C   0  0  0  0  0
    7.0452   16.2401   68.5025 C   0  0  0  0  0
   -0.7398   23.6224   66.7545 C   0  0  0  0  0
   -1.4480   24.9024   66.8632 C   0  0  0  0  0
   -2.3892   25.2270   67.8276 C   0  0  0  0  0
   -2.8950   26.5265   67.6764 C   0  0  0  0  0
   -2.3607   27.2319   66.6002 C   0  0  0  0  0
    0.1699   21.1924   69.9701 O   0  0  0  0  0
    4.8617   21.6176   68.5580 O   0  0  0  0  0
    1.7216   19.0558   70.7668 O   0  0  0  0  0
    0.0972   23.4442   65.8288 O   0  0  0  0  0
    2.0089   21.0030   68.5386 N   0  0  0  0  0
    2.9398   20.6659   69.5354 N   0  0  0  0  0
    4.0658   19.1409   70.9723 N   0  0  0  0  0
   -0.9991   22.5825   67.6999 N   0  0  0  0  0
   -1.2532   26.2180   65.8418 S   0  0  0  0  0
  2  1  1  0  0  0
  2  3  1  0  0  0
  2 28  1  0  0  0
  3 25  1  0  0  0
  5  4  1  0  0  0
  5 27  1  0  0  0
  5  7  1  0  0  0
  5  8  1  0  0  0
  6 26  1  0  0  0
  8  9  1  0  0  0
  9 10  1  0  0  0
 11 12  1  0  0  0
 13 14  1  0  0  0
 15 10  1  0  0  0
 16 17  1  0  0  0
 17 29  1  0  0  0
 18 19  1  0  0  0
 20 29  1  0  0  0
 25 26  1  0  0  0
 26  4  1  0  0  0
 27  6  1  0  0  0
 28 16  1  0  0  0
  3 21  2  0  0  0
  4 22  2  0  0  0
  6 23  2  0  0  0
 10 11  2  0  0  0
 12 13  2  0  0  0
 14 15  2  0  0  0
 16 24  2  0  0  0
 17 18  2  0  0  0
 19 20  2  0  0  0
M  END
> <rmsd>
0.754004478

$$$$
PubChem-30644936


 28 30  0  0  0  0  0  0  0  0999 V2000
    7.7274   19.0819   71.7563 C   0  0  0  0  0
    6.8480   20.1762   72.3518 C   0  0  0  0  0
    6.0195   20.8436   71.2551 C   0  0  0  0  0
    5.1699   19.8175   70.4971 C   0  0  0  0  0
    6.0316   18.6688   69.9603 C   0  0  0  0  0
    6.8602   18.0297   71.0737 C   0  0  0  0  0
    4.4251   20.4806   69.3777 C   0  0  0  0  0
    2.8636   19.6582   70.7432 C   0  0  0  0  0
    0.7047   20.8080   68.7144 C   0  0  0  0  0
   -0.2324   20.7386   67.5583 C   0  0  0  0  0
    0.5329   22.6896   66.1058 C   0  0  0  0  0
    1.6791   22.0017   65.6777 C   0  0  0  0  0
    2.5971   22.6171   64.8244 C   0  0  0  0  0
    2.3757   23.9245   64.3893 C   0  0  0  0  0
    1.2361   24.6150   64.8072 C   0  0  0  0  0
    0.3063   24.0045   65.6661 C   0  0  0  0  0
   -1.1786   26.0153   65.7194 C   0  0  0  0  0
    4.9674   21.0104   68.3708 O   0  0  0  0  0
    1.7506   19.2698   71.1843 O   0  0  0  0  0
    0.2768   21.1745   69.8406 O   0  0  0  0  0
   -0.8446   24.6813   66.0964 O   0  0  0  0  0
    3.0204   20.4321   69.5638 N   0  0  0  0  0
    4.0989   19.2996   71.3518 N   0  0  0  0  0
    2.0931   20.5343   68.5136 N   0  0  0  0  0
   -0.4151   22.0633   66.9789 N   0  0  0  0  0
   -0.1900   26.8883   66.1369 F   0  0  0  0  0
   -2.3717   26.3682   66.3195 F   0  0  0  0  0
   -1.3244   26.0982   64.3462 F   0  0  0  0  0
  1  2  1  0  0  0
  2  3  1  0  0  0
  3  4  1  0  0  0
  4  5  1  0  0  0
  4  7  1  0  0  0
  4 23  1  0  0  0
  5  6  1  0  0  0
  6  1  1  0  0  0
  7 22  1  0  0  0
  8 23  1  0  0  0
 10  9  1  0  0  0
 10 25  1  0  0  0
 12 13  1  0  0  0
 14 15  1  0  0  0
 16 21  1  0  0  0
 16 11  1  0  0  0
 17 21  1  0  0  0
 17 26  1  0  0  0
 17 27  1  0  0  0
 17 28  1  0  0  0
 22  8  1  0  0  0
 22 24  1  0  0  0
 24  9  1  0  0  0
 25 11  1  0  0  0
  7 18  2  0  0  0
  8 19  2  0  0  0
  9 20  2  0  0  0
 11 12  2  0  0  0
 13 14  2  0  0  0
 15 16  2  0  0  0
M  END
> <rmsd>
0.771439373

$$$$
PubChem-65954033


 18 19  0  0  0  0  0  0  0  0999 V2000
    7.2336   21.5112   68.3281 C   0  0  0  0  0
    6.1568   20.4320   70.2866 C   0  0  0  0  0
    4.8745   20.0234   70.5796 C   0  0  0  0  0
    4.0942   20.3232   69.4812 C   0  0  0  0  0
    2.6550   20.0805   69.3116 C   0  0  0  0  0
    0.5840   20.3038   67.8646 C   0  0  0  0  0
    0.2844   20.3538   66.3656 C   0  0  0  0  0
    0.5679   21.7336   65.7665 C   0  0  0  0  0
   -0.1252   22.8130   66.5421 C   0  0  0  0  0
   -0.1794   21.3817   68.5773 C   0  0  0  0  0
    6.1024   20.9536   69.0447 N   0  0  0  0  0
    4.8755   20.8968   68.5477 N   0  0  0  0  0
    2.0152   20.4618   68.0910 N   0  0  0  0  0
   -0.4838   22.6096   67.9115 N   0  0  0  0  0
    4.4494   19.4098   71.7919 N   0  0  0  0  0
    1.9902   19.5348   70.2333 O   0  0  0  0  0
   -0.3751   23.9146   65.9884 O   0  0  0  0  0
   -0.5435   21.2103   69.7695 O   0  0  0  0  0
  1 11  1  0  0  0
  3  4  1  0  0  0
  3 15  1  0  0  0
  4  5  1  0  0  0
  5 13  1  0  0  0
  6 13  1  0  0  0
  6  7  1  0  0  0
  6 10  1  0  0  0
  7  8  1  0  0  0
  8  9  1  0  0  0
  9 14  1  0  0  0
 11  2  1  0  0  0
 11 12  1  0  0  0
 14 10  1  0  0  0
  2  3  2  0  0  0
  4 12  2  0  0  0
  5 16  2  0  0  0
  9 17  2  0  0  0
 10 18  2  0  0  0
M  END
> <rmsd>
0.809157133

$$$$
PubChem-53672370


 27 29  0  0  0  0  0  0  0  0999 V2000
   -3.0065   26.2674   65.8951 C   0  0  0  0  0
   -1.6443   25.5440   65.9386 C   0  0  0  0  0
   -3.2915   24.1769   66.8218 C   0  0  0  0  0
   -0.9244   23.2326   66.7715 C   0  0  0  0  0
   -0.3361   20.9294   67.6569 C   0  0  0  0  0
   -1.0343   19.6281   67.9001 C   0  0  0  0  0
   -0.6089   18.4869   67.2112 C   0  0  0  0  0
   -1.2275   17.2545   67.4423 C   0  0  0  0  0
   -2.2716   17.1583   68.3670 C   0  0  0  0  0
   -2.6969   18.2939   69.0623 C   0  0  0  0  0
   -2.0788   19.5263   68.8322 C   0  0  0  0  0
    0.5264   21.2931   68.8255 C   0  0  0  0  0
    2.7871   21.1459   69.9523 C   0  0  0  0  0
    2.7719   20.0351   70.8876 C   0  0  0  0  0
    4.1856   20.7568   69.5914 C   0  0  0  0  0
   -1.9112   24.2437   66.5321 N   0  0  0  0  0
   -3.9874   25.3491   66.4647 N   0  0  0  0  0
   -1.2994   21.9841   67.3607 N   0  0  0  0  0
    1.9132   20.9535   68.7978 N   0  0  0  0  0
    4.1193   19.6334   70.5490 N   0  0  0  0  0
    1.8321   18.9777   70.5272 N   0  0  0  0  0
    1.7226   17.9747   71.2314 N   0  0  0  0  0
    1.6125   16.9717   71.9347 N   0  0  0  0  0
   -3.8539   23.1801   67.3470 O   0  0  0  0  0
    0.2782   23.4459   66.4577 O   0  0  0  0  0
    0.0230   21.8420   69.8439 O   0  0  0  0  0
    5.0567   21.1993   68.7981 O   0  0  0  0  0
  1  2  1  0  0  0
  1 17  1  0  0  0
  2 16  1  0  0  0
  3 17  1  0  0  0
  4 18  1  0  0  0
  5 18  1  0  0  0
  5  6  1  0  0  0
  5 12  1  0  0  0
  7  8  1  0  0  0
  9 10  1  0  0  0
 11  6  1  0  0  0
 12 19  1  0  0  0
 13 19  1  0  0  0
 13 14  1  0  0  0
 13 15  1  0  0  0
 14 20  1  0  0  0
 14 21  1  0  0  0
 16  3  1  0  0  0
 16  4  1  0  0  0
 20 15  1  0  0  0
  3 24  2  0  0  0
  4 25  2  0  0  0
  6  7  2  0  0  0
  8  9  2  0  0  0
 10 11  2  0  0  0
 12 26  2  0  0  0
 15 27  2  0  0  0
 21 22  2  0  0  0
 22 23  2  0  0  0
M  CHG  2  22   1  23  -1
M  END
> <rmsd>
0.697614789

$$$$
PubChem-138730654


 31 33  0  0  0  0  0  0  0  0999 V2000
   -1.8306   19.0790   68.7136 C   0  0  0  0  0
   -1.9434   20.5811   68.5286 C   0  0  0  0  0
   -2.4284   21.2349   69.8131 C   0  0  0  0  0
   -0.6290   21.1767   68.0098 C   0  0  0  0  0
    0.5290   21.0256   68.9505 C   0  0  0  0  0
    2.7760   19.9742   69.4373 C   0  0  0  0  0
    3.9717   19.5162   68.6153 C   0  0  0  0  0
    5.1518   20.3955   68.8772 C   0  0  0  0  0
    6.9890   21.1617   69.6238 C   0  0  0  0  0
    6.3123   18.9522   70.5938 C   0  0  0  0  0
    5.7771   19.2944   71.9816 C   0  0  0  0  0
    3.3671   18.6991   71.5921 C   0  0  0  0  0
    2.4453   18.9321   70.4728 C   0  0  0  0  0
    1.2029   22.1681   65.6384 C   0  0  0  0  0
    2.2852   23.0174   65.8909 C   0  0  0  0  0
    3.5914   22.5753   65.6620 C   0  0  0  0  0
    3.8185   21.2805   65.1865 C   0  0  0  0  0
    2.7389   20.4278   64.9396 C   0  0  0  0  0
    1.4327   20.8709   65.1654 C   0  0  0  0  0
    0.5280   21.6125   70.0669 O   0  0  0  0  0
    3.3015   17.6307   72.2570 O   0  0  0  0  0
    1.4165   18.2122   70.3510 O   0  0  0  0  0
   -1.4083   21.8966   65.1486 O   0  0  0  0  0
   -0.5645   24.1557   65.5345 O   0  0  0  0  0
    1.6438   20.2252   68.5557 N   0  0  0  0  0
    5.3338   21.5943   68.2986 N   0  0  0  0  0
    6.4807   22.0700   68.7643 N   0  0  0  0  0
    6.1740   20.0951   69.6985 N   0  0  0  0  0
    4.3739   19.6643   71.8912 N   0  0  0  0  0
   -0.8041   22.5730   67.6368 N   0  0  0  0  0
   -0.4363   22.7175   65.9500 S   0  0  0  0  0
  1  2  1  0  0  0
  2  3  1  0  0  0
  2  4  1  0  0  0
  4  5  1  0  0  0
  4 30  1  0  0  0
  5 25  1  0  0  0
  6 25  1  0  0  0
  6  7  1  0  0  0
  6 13  1  0  0  0
  7  8  1  0  0  0
  9 28  1  0  0  0
 10 28  1  0  0  0
 10 11  1  0  0  0
 11 29  1  0  0  0
 12 13  1  0  0  0
 15 16  1  0  0  0
 17 18  1  0  0  0
 19 14  1  0  0  0
 26 27  1  0  0  0
 28  8  1  0  0  0
 29 12  1  0  0  0
 31 30  1  0  0  0
 31 14  1  0  0  0
  5 20  2  0  0  0
  8 26  2  0  0  0
  9 27  2  0  0  0
 12 21  2  0  0  0
 13 22  2  0  0  0
 14 15  2  0  0  0
 16 17  2  0  0  0
 18 19  2  0  0  0
 31 23  2  0  0  0
 31 24  2  0  0  0
M  END
> <rmsd>
0.647502303

$$$$
PubChem-81245096


 20 21  0  0  0  0  0  0  0  0999 V2000
    5.1207   20.3513   73.7148 C   0  0  0  0  0
    4.8009   19.0668   72.9736 C   0  0  0  0  0
    4.7334   19.9543   70.5782 C   0  0  0  0  0
    3.9783   20.2763   69.4255 C   0  0  0  0  0
    4.6454   20.8444   68.3302 C   0  0  0  0  0
    6.7228   20.7720   69.4686 C   0  0  0  0  0
    6.1125   20.2060   70.5859 C   0  0  0  0  0
    2.5166   20.0462   69.3206 C   0  0  0  0  0
    0.3874   20.2582   67.9535 C   0  0  0  0  0
    0.0261   20.2657   66.4673 C   0  0  0  0  0
    0.3081   21.6200   65.8121 C   0  0  0  0  0
   -0.3316   22.7370   66.5803 C   0  0  0  0  0
   -0.3275   21.3719   68.6612 C   0  0  0  0  0
    4.1080   19.3646   71.7268 N   0  0  0  0  0
    5.9831   21.0777   68.3724 N   0  0  0  0  0
    1.8292   20.3986   68.1150 N   0  0  0  0  0
   -0.6371   22.5838   67.9689 N   0  0  0  0  0
    1.8717   19.5391   70.2781 O   0  0  0  0  0
   -0.5830   23.8256   66.0023 O   0  0  0  0  0
   -0.6459   21.2449   69.8719 O   0  0  0  0  0
  1  2  1  0  0  0
  2 14  1  0  0  0
  4  5  1  0  0  0
  4  8  1  0  0  0
  6 15  1  0  0  0
  7  3  1  0  0  0
  8 16  1  0  0  0
  9 16  1  0  0  0
  9 10  1  0  0  0
  9 13  1  0  0  0
 10 11  1  0  0  0
 11 12  1  0  0  0
 12 17  1  0  0  0
 14  3  1  0  0  0
 17 13  1  0  0  0
  3  4  2  0  0  0
  5 15  2  0  0  0
  6  7  2  0  0  0
  8 18  2  0  0  0
 12 19  2  0  0  0
 13 20  2  0  0  0
M  END
> <rmsd>
0.767371953

$$$$
PubChem-157792221


 24 25  0  0  0  0  0  0  0  0999 V2000
    3.2344   16.0386   69.1967 C   0  0  0  0  0
    3.7393   15.8951   70.6167 C   0  0  0  0  0
    5.0583   16.6305   70.7581 C   0  0  0  0  0
    5.5534   16.5810   72.1969 C   0  0  0  0  0
    4.6882   17.4208   73.1319 C   0  0  0  0  0
    4.9472   18.9091   72.9525 C   0  0  0  0  0
    4.8906   20.0163   70.6655 C   0  0  0  0  0
    4.1739   20.3587   69.4945 C   0  0  0  0  0
    6.1719   21.2075   68.5032 C   0  0  0  0  0
    6.9107   20.8802   69.6373 C   0  0  0  0  0
    6.2653   20.2831   70.7174 C   0  0  0  0  0
    2.7251   20.0989   69.3337 C   0  0  0  0  0
    0.6500   20.2969   67.8865 C   0  0  0  0  0
    0.3504   20.3430   66.3874 C   0  0  0  0  0
    0.6178   21.7260   65.7882 C   0  0  0  0  0
   -0.0874   22.7977   66.5635 C   0  0  0  0  0
   -0.1268   21.3656   68.5986 C   0  0  0  0  0
    4.2363   19.4004   71.7810 N   0  0  0  0  0
    4.8401   20.9423   68.4579 N   0  0  0  0  0
    2.0790   20.4731   68.1132 N   0  0  0  0  0
   -0.4447   22.5900   67.9326 N   0  0  0  0  0
    2.0577   19.5452   70.2491 O   0  0  0  0  0
   -0.3488   23.8967   66.0101 O   0  0  0  0  0
   -0.4903   21.1896   69.7903 O   0  0  0  0  0
  1  2  1  0  0  0
  2  3  1  0  0  0
  3  4  1  0  0  0
  4  5  1  0  0  0
  5  6  1  0  0  0
  6 18  1  0  0  0
  8 19  1  0  0  0
  8 12  1  0  0  0
  9 10  1  0  0  0
 11  7  1  0  0  0
 12 20  1  0  0  0
 13 20  1  0  0  0
 13 14  1  0  0  0
 13 17  1  0  0  0
 14 15  1  0  0  0
 15 16  1  0  0  0
 16 21  1  0  0  0
 18  7  1  0  0  0
 21 17  1  0  0  0
  7  8  2  0  0  0
  9 19  2  0  0  0
 10 11  2  0  0  0
 12 22  2  0  0  0
 16 23  2  0  0  0
 17 24  2  0  0  0
M  END
> <rmsd>
0.800875902

$$$$
PubChem-157792221


 24 25  0  0  0  0  0  0  0  0999 V2000
    7.8237   21.7693   76.1125 C   0  0  0  0  0
    6.3604   21.4760   75.8590 C   0  0  0  0  0
    6.0658   21.6199   74.3780 C   0  0  0  0  0
    4.6017   21.3185   74.0954 C   0  0  0  0  0
    4.3117   19.8247   74.1868 C   0  0  0  0  0
    4.9268   19.0694   73.0186 C   0  0  0  0  0
    4.8858   20.0267   70.6660 C   0  0  0  0  0
    4.1696   20.3554   69.4906 C   0  0  0  0  0
    6.1593   21.2334   68.5071 C   0  0  0  0  0
    6.8963   20.9248   69.6474 C   0  0  0  0  0
    6.2547   20.3211   70.7259 C   0  0  0  0  0
    2.7218   20.0905   69.3298 C   0  0  0  0  0
    0.6437   20.2930   67.8868 C   0  0  0  0  0
    0.3402   20.3396   66.3885 C   0  0  0  0  0
    0.6121   21.7208   65.7874 C   0  0  0  0  0
   -0.0861   22.7962   66.5642 C   0  0  0  0  0
   -0.1265   21.3657   68.6002 C   0  0  0  0  0
    4.2347   19.4104   71.7837 N   0  0  0  0  0
    4.8321   20.9461   68.4555 N   0  0  0  0  0
    2.0741   20.4632   68.1095 N   0  0  0  0  0
   -0.4407   22.5911   67.9342 N   0  0  0  0  0
    2.0555   19.5383   70.2469 O   0  0  0  0  0
   -0.3437   23.8961   66.0107 O   0  0  0  0  0
   -0.4876   21.1922   69.7930 O   0  0  0  0  0
  1  2  1  0  0  0
  2  3  1  0  0  0
  3  4  1  0  0  0
  4  5  1  0  0  0
  5  6  1  0  0  0
  6 18  1  0  0  0
  8 19  1  0  0  0
  8 12  1  0  0  0
  9 10  1  0  0  0
 11  7  1  0  0  0
 12 20  1  0  0  0
 13 20  1  0  0  0
 13 14  1  0  0  0
 13 17  1  0  0  0
 14 15  1  0  0  0
 15 16  1  0  0  0
 16 21  1  0  0  0
 18  7  1  0  0  0
 21 17  1  0  0  0
  7  8  2  0  0  0
  9 19  2  0  0  0
 10 11  2  0  0  0
 12 22  2  0  0  0
 16 23  2  0  0  0
 17 24  2  0  0  0
M  END
> <rmsd>
0.799564481

$$$$
PubChem-145684673


 27 27  0  0  0  0  0  0  0  0999 V2000
    6.0204   18.8660   72.1458 C   0  0  0  0  0
    5.1206   19.4218   71.0623 C   0  0  0  0  0
    5.6596   19.0383   69.7227 C   0  0  0  0  0
    5.9665   19.9014   68.7497 C   0  0  0  0  0
    5.8584   21.3695   68.8133 C   0  0  0  0  0
    5.2944   23.4632   70.1160 C   0  0  0  0  0
    3.8268   23.6549   69.7607 C   0  0  0  0  0
    2.9515   23.2625   70.9131 C   0  0  0  0  0
    2.4524   22.0302   71.0678 C   0  0  0  0  0
    2.7183   20.9132   70.1001 C   0  0  0  0  0
    2.6063   19.5683   70.7561 C   0  0  0  0  0
    0.4700   21.1292   68.8714 C   0  0  0  0  0
   -0.2318   21.1880   67.5533 C   0  0  0  0  0
   -0.9147   19.8631   67.2046 C   0  0  0  0  0
   -2.1498   19.6024   68.0532 C   0  0  0  0  0
   -1.2872   19.8316   65.7351 C   0  0  0  0  0
   -0.9020   23.4815   66.7414 C   0  0  0  0  0
   -1.6454   25.7640   65.9780 C   0  0  0  0  0
    5.9707   22.0286   67.7458 O   0  0  0  0  0
    1.4769   19.0432   70.9410 O   0  0  0  0  0
   -0.1906   21.1702   69.9449 O   0  0  0  0  0
    0.1615   23.5774   66.0697 O   0  0  0  0  0
    5.6442   22.0512   70.0530 N   0  0  0  0  0
    3.7747   18.8909   71.2272 N   0  0  0  0  0
    1.8973   21.0168   68.8940 N   0  0  0  0  0
   -1.1645   22.3089   67.5115 N   0  0  0  0  0
   -1.8543   24.5445   66.7399 N   0  0  0  0  0
  2  1  1  0  0  0
  2  3  1  0  0  0
  2 24  1  0  0  0
  4  5  1  0  0  0
  5 23  1  0  0  0
  6 23  1  0  0  0
  6  7  1  0  0  0
  7  8  1  0  0  0
 10  9  1  0  0  0
 10 11  1  0  0  0
 10 25  1  0  0  0
 11 24  1  0  0  0
 13 12  1  0  0  0
 13 14  1  0  0  0
 13 26  1  0  0  0
 14 15  1  0  0  0
 14 16  1  0  0  0
 17 27  1  0  0  0
 18 27  1  0  0  0
 25 12  1  0  0  0
 26 17  1  0  0  0
  3  4  2  0  0  0
  5 19  2  0  0  0
  8  9  2  0  0  0
 11 20  2  0  0  0
 12 21  2  0  0  0
 17 22  2  0  0  0
M  END
> <rmsd>
0.732030153

$$$$
PubChem-133080165 643569133 MCULE-6271222603


 33 34  0  0  0  0  0  0  0  0999 V2000
   -0.2204   26.2992   69.7288 C   0  0  0  0  0
   -0.0842   25.6970   68.3438 C   0  0  0  0  0
   -0.2193   24.1738   68.4095 C   0  0  0  0  0
   -0.4440   23.5336   67.0700 C   0  0  0  0  0
   -0.7520   21.3785   65.7825 C   0  0  0  0  0
   -1.0203   19.9154   66.0868 C   0  0  0  0  0
   -0.1205   18.1612   67.5981 C   0  0  0  0  0
   -0.9232   17.1673   67.0135 C   0  0  0  0  0
   -0.9654   15.8802   67.5510 C   0  0  0  0  0
   -0.2099   15.5731   68.6823 C   0  0  0  0  0
    0.5917   16.5519   69.2730 C   0  0  0  0  0
    0.6567   17.8476   68.7374 C   0  0  0  0  0
    1.5107   18.8527   69.4105 C   0  0  0  0  0
    2.7635   21.1024   69.2630 C   0  0  0  0  0
    2.0569   21.7761   70.4362 C   0  0  0  0  0
    0.8308   22.4840   69.9689 C   0  0  0  0  0
    4.1542   20.6721   69.6048 C   0  0  0  0  0
    5.7466   19.4609   71.1416 C   0  0  0  0  0
    5.7018   18.6827   72.4472 C   0  0  0  0  0
    5.3311   19.5876   73.6141 C   0  0  0  0  0
    5.8266   21.8448   73.9203 C   0  0  0  0  0
    6.8662   20.2372   75.2453 C   0  0  0  0  0
   -0.3435   24.2002   66.0030 O   0  0  0  0  0
   -0.1040   19.4578   67.0744 O   0  0  0  0  0
    1.8349   18.6842   70.6174 O   0  0  0  0  0
   -0.2993   22.1053   70.3768 O   0  0  0  0  0
    5.1039   21.0115   68.8494 O   0  0  0  0  0
    1.1436   26.0656   67.7895 O   0  0  0  0  0
   -0.7516   22.1412   67.0207 N   0  0  0  0  0
    1.9756   20.0070   68.6970 N   0  0  0  0  0
    0.9447   23.5732   69.0510 N   0  0  0  0  0
    4.4064   19.8869   70.7712 N   0  0  0  0  0
    6.4129   20.5168   73.8945 N   0  0  0  0  0
  2  1  1  0  0  0
  2  3  1  0  0  0
  2 28  1  0  0  0
  3  4  1  0  0  0
  3 31  1  0  0  0
  4 29  1  0  0  0
  5 29  1  0  0  0
  5  6  1  0  0  0
  6 24  1  0  0  0
  7 24  1  0  0  0
  8  9  1  0  0  0
 10 11  1  0  0  0
 12 13  1  0  0  0
 12  7  1  0  0  0
 13 30  1  0  0  0
 14 30  1  0  0  0
 14 15  1  0  0  0
 14 17  1  0  0  0
 15 16  1  0  0  0
 16 31  1  0  0  0
 17 32  1  0  0  0
 18 32  1  0  0  0
 18 19  1  0  0  0
 19 20  1  0  0  0
 20 33  1  0  0  0
 21 33  1  0  0  0
 22 33  1  0  0  0
  4 23  2  0  0  0
  7  8  2  0  0  0
  9 10  2  0  0  0
 11 12  2  0  0  0
 13 25  2  0  0  0
 16 26  2  0  0  0
 17 27  2  0  0  0
M  END
> <rmsd>
0.637990654

$$$$
PubChem-138730305


 31 33  0  0  0  0  0  0  0  0999 V2000
   -2.4128   21.2681   69.8007 C   0  0  0  0  0
   -1.9218   20.6020   68.5249 C   0  0  0  0  0
   -1.8189   19.1008   68.7222 C   0  0  0  0  0
   -0.6004   21.1870   68.0117 C   0  0  0  0  0
    0.5512   21.0307   68.9596 C   0  0  0  0  0
    2.7879   19.9652   69.4617 C   0  0  0  0  0
    3.9916   19.5151   68.6468 C   0  0  0  0  0
    5.1522   20.4259   68.8834 C   0  0  0  0  0
    6.2144   20.1217   69.7304 C   0  0  0  0  0
    6.3224   18.9417   70.6454 C   0  0  0  0  0
    5.7679   19.2757   72.0283 C   0  0  0  0  0
    3.3640   18.6676   71.6064 C   0  0  0  0  0
    2.4493   18.9125   70.4836 C   0  0  0  0  0
    6.3682   22.3137   68.5982 C   0  0  0  0  0
    1.2313   22.1758   65.6232 C   0  0  0  0  0
    1.4684   20.8643   65.1953 C   0  0  0  0  0
    2.7755   20.4292   64.9583 C   0  0  0  0  0
    3.8484   21.3044   65.1494 C   0  0  0  0  0
    3.6143   22.6138   65.5798 C   0  0  0  0  0
    2.3074   23.0482   65.8195 C   0  0  0  0  0
    0.5458   21.6169   70.0762 O   0  0  0  0  0
    3.3006   17.5883   72.2536 O   0  0  0  0  0
    1.4211   18.1943   70.3474 O   0  0  0  0  0
   -1.3813   21.8844   65.1545 O   0  0  0  0  0
   -0.5498   24.1514   65.5189 O   0  0  0  0  0
    1.6639   20.2242   68.5720 N   0  0  0  0  0
    4.3618   19.6351   71.9283 N   0  0  0  0  0
    5.2497   21.6306   68.2599 N   0  0  0  0  0
   -0.7640   22.5835   67.6338 N   0  0  0  0  0
    7.2742   21.4212   69.7029 S   0  0  0  0  0
   -0.4090   22.7168   65.9437 S   0  0  0  0  0
  1  2  1  0  0  0
  2  3  1  0  0  0
  2  4  1  0  0  0
  4  5  1  0  0  0
  4 29  1  0  0  0
  5 26  1  0  0  0
  6 26  1  0  0  0
  6  7  1  0  0  0
  6 13  1  0  0  0
  7  8  1  0  0  0
  8 28  1  0  0  0
  9 30  1  0  0  0
 10  9  1  0  0  0
 10 11  1  0  0  0
 11 27  1  0  0  0
 12 13  1  0  0  0
 14 30  1  0  0  0
 16 17  1  0  0  0
 18 19  1  0  0  0
 20 15  1  0  0  0
 27 12  1  0  0  0
 31 29  1  0  0  0
 31 15  1  0  0  0
  5 21  2  0  0  0
  8  9  2  0  0  0
 12 22  2  0  0  0
 13 23  2  0  0  0
 14 28  2  0  0  0
 15 16  2  0  0  0
 17 18  2  0  0  0
 19 20  2  0  0  0
 31 24  2  0  0  0
 31 25  2  0  0  0
M  END
> <rmsd>
0.658834457

$$$$
PubChem-53646423


 28 30  0  0  0  0  0  0  0  0999 V2000
    0.1999   19.3517   66.8941 C   0  0  0  0  0
    0.0788   20.1319   68.1884 C   0  0  0  0  0
    1.3277   19.9760   68.9929 C   0  0  0  0  0
    3.8635   20.4786   69.1897 C   0  0  0  0  0
    4.2426   19.1706   69.6353 C   0  0  0  0  0
    3.8060   20.9138   70.6229 C   0  0  0  0  0
    4.5627   22.4243   68.2201 C   0  0  0  0  0
   -0.5331   22.4965   68.8787 C   0  0  0  0  0
   -1.0391   24.8763   69.3699 C   0  0  0  0  0
   -1.0563   26.0700   68.6560 C   0  0  0  0  0
   -0.4769   24.4663   67.3347 C   0  0  0  0  0
   -0.2561   26.4406   65.1481 C   0  0  0  0  0
   -0.1672   27.4722   64.1162 C   0  0  0  0  0
    0.1908   27.2437   62.8071 C   0  0  0  0  0
    0.1394   28.4904   62.2071 C   0  0  0  0  0
   -0.2449   29.3882   63.1891 C   0  0  0  0  0
    1.2699   19.4001   70.1116 O   0  0  0  0  0
    3.5308   21.9836   71.2265 O   0  0  0  0  0
    4.9004   21.0803   68.4460 O   0  0  0  0  0
   -0.7430   22.1244   70.0657 O   0  0  0  0  0
   -0.1212   23.8476   66.2950 O   0  0  0  0  0
   -0.4184   28.7408   64.3159 O   0  0  0  0  0
    2.5701   20.4929   68.4930 N   0  0  0  0  0
    4.2083   19.5531   71.0335 N   0  0  0  0  0
   -0.1551   21.5374   67.8857 N   0  0  0  0  0
   -0.6757   23.8811   68.5304 N   0  0  0  0  0
   -0.7024   25.7927   67.3871 N   0  0  0  0  0
   -0.6019   26.7468   66.3578 N   0  0  0  0  0
  2  1  1  0  0  0
  2  3  1  0  0  0
  2 25  1  0  0  0
  3 23  1  0  0  0
  4 23  1  0  0  0
  4  5  1  0  0  0
  4 19  1  0  0  0
  4  6  1  0  0  0
  5 24  1  0  0  0
  7 19  1  0  0  0
  8 26  1  0  0  0
 10 27  1  0  0  0
 11 26  1  0  0  0
 12 13  1  0  0  0
 13 22  1  0  0  0
 14 15  1  0  0  0
 16 22  1  0  0  0
 24  6  1  0  0  0
 25  8  1  0  0  0
 26  9  1  0  0  0
 27 11  1  0  0  0
 27 28  1  0  0  0
  3 17  2  0  0  0
  6 18  2  0  0  0
  8 20  2  0  0  0
  9 10  2  0  0  0
 11 21  2  0  0  0
 12 28  2  0  0  0
 13 14  2  0  0  0
 15 16  2  0  0  0
M  END
> <rmsd>
0.753215969

$$$$
PubChem-136164338


 18 18  0  0  0  0  0  0  0  0999 V2000
   -2.1489   20.2255   69.7508 C   0  0  0  0  0
   -0.6759   20.4940   69.5124 C   0  0  0  0  0
   -0.5023   21.7204   68.6775 C   0  0  0  0  0
   -0.9188   22.8724   66.4476 C   0  0  0  0  0
   -1.4250   23.8621   64.1865 C   0  0  0  0  0
    1.7360   19.5031   69.2343 C   0  0  0  0  0
    3.4579   19.4063   70.8499 C   0  0  0  0  0
    4.2709   20.2040   70.0456 C   0  0  0  0  0
    3.7681   20.6362   68.8191 C   0  0  0  0  0
    0.1258   22.7021   69.1557 O   0  0  0  0  0
   -0.2970   23.9160   66.7869 O   0  0  0  0  0
    4.4747   21.3568   68.0682 O   0  0  0  0  0
   -1.0404   21.7674   67.3492 N   0  0  0  0  0
   -1.5107   22.7797   65.1522 N   0  0  0  0  0
    2.2095   19.0701   70.4324 N   0  0  0  0  0
    2.5150   20.2791   68.4350 N   0  0  0  0  0
    3.9355   18.9449   72.1075 N   0  0  0  0  0
    0.0880   19.0504   68.7080 S   0  0  0  0  0
  1  2  1  0  0  0
  2  3  1  0  0  0
  2 18  1  0  0  0
  3 13  1  0  0  0
  4 14  1  0  0  0
  5 14  1  0  0  0
  6 18  1  0  0  0
  7 15  1  0  0  0
  7 17  1  0  0  0
  8  9  1  0  0  0
  9 16  1  0  0  0
 13  4  1  0  0  0
 16  6  1  0  0  0
  3 10  2  0  0  0
  4 11  2  0  0  0
  6 15  2  0  0  0
  7  8  2  0  0  0
  9 12  2  0  0  0
M  END
> <rmsd>
0.787067354

$$$$
PubChem-24562297 22017820 CSC027232821 MCULE-8407393265 MolPort-003-317-776 ZINC000022017820 ZINC22017820


 26 28  0  0  0  0  0  0  0  0999 V2000
   -0.8566   25.7268   64.7619 C   0  0  0  0  0
   -0.7568   24.4438   65.5178 C   0  0  0  0  0
   -1.5906   23.2711   65.1423 C   0  0  0  0  0
   -1.5306   22.0344   65.8341 C   0  0  0  0  0
   -0.5379   20.6135   67.6931 C   0  0  0  0  0
    0.4677   20.7691   68.7768 C   0  0  0  0  0
    2.8252   19.7817   70.6576 C   0  0  0  0  0
    5.0967   20.0782   70.2596 C   0  0  0  0  0
    5.9671   18.9576   69.6668 C   0  0  0  0  0
    7.2282   18.7367   70.4980 C   0  0  0  0  0
    8.1041   19.9965   70.5349 C   0  0  0  0  0
    7.3114   21.3033   70.3971 C   0  0  0  0  0
    5.9074   21.1678   70.9821 C   0  0  0  0  0
    4.2392   20.6855   69.1885 C   0  0  0  0  0
   -2.3486   20.9703   65.4206 C   0  0  0  0  0
   -3.2179   21.1159   64.3397 C   0  0  0  0  0
   -3.2805   22.3290   63.6573 C   0  0  0  0  0
   -2.4737   23.3953   64.0564 C   0  0  0  0  0
    0.0530   24.3854   66.4803 O   0  0  0  0  0
    0.0937   21.1270   69.9246 O   0  0  0  0  0
    1.7703   19.3298   71.1741 O   0  0  0  0  0
    4.6807   21.2381   68.1454 O   0  0  0  0  0
   -0.6469   21.8584   66.9477 N   0  0  0  0  0
    1.8550   20.5922   68.4812 N   0  0  0  0  0
    2.8551   20.5539   69.4673 N   0  0  0  0  0
    4.1182   19.5043   71.1830 N   0  0  0  0  0
  1  2  1  0  0  0
  2  3  1  0  0  0
  4 23  1  0  0  0
  4 15  1  0  0  0
  5 23  1  0  0  0
  5  6  1  0  0  0
  6 24  1  0  0  0
  7 26  1  0  0  0
  8 26  1  0  0  0
  8  9  1  0  0  0
  8 14  1  0  0  0
  9 10  1  0  0  0
 10 11  1  0  0  0
 11 12  1  0  0  0
 12 13  1  0  0  0
 13  8  1  0  0  0
 14 25  1  0  0  0
 16 17  1  0  0  0
 18  3  1  0  0  0
 24 25  1  0  0  0
 25  7  1  0  0  0
  2 19  2  0  0  0
  3  4  2  0  0  0
  6 20  2  0  0  0
  7 21  2  0  0  0
 14 22  2  0  0  0
 15 16  2  0  0  0
 17 18  2  0  0  0
M  END
> <rmsd>
0.685205758

$$$$
PubChem-136722919


 30 32  0  0  0  0  0  0  0  0999 V2000
    6.7797   20.7350   65.6302 C   0  0  0  0  0
    5.9597   20.2035   66.7896 C   0  0  0  0  0
    6.6596   21.0835   68.8354 C   0  0  0  0  0
    6.9875   22.4225   69.4682 C   0  0  0  0  0
    4.3862   21.0347   68.2985 C   0  0  0  0  0
    3.3737   21.9556   67.6885 C   0  0  0  0  0
    2.0225   22.0152   67.9781 C   0  0  0  0  0
    0.1635   23.4552   67.0919 C   0  0  0  0  0
   -0.9538   22.6829   66.9082 C   0  0  0  0  0
    1.3024   21.2431   69.0130 C   0  0  0  0  0
    1.7318   18.1996   71.0075 C   0  0  0  0  0
    0.9216   17.3988   71.9664 C   0  0  0  0  0
    3.0759   17.7191   70.6231 C   0  0  0  0  0
    3.2135   16.4263   70.0994 C   0  0  0  0  0
    4.4698   15.9449   69.7221 C   0  0  0  0  0
    5.6007   16.7504   69.8728 C   0  0  0  0  0
    5.4774   18.0338   70.4103 C   0  0  0  0  0
    4.2235   18.5197   70.7934 C   0  0  0  0  0
    5.7129   21.2694   67.7470 N   0  0  0  0  0
    1.5204   23.0137   67.2181 N   0  0  0  0  0
    2.5146   23.5405   66.5204 N   0  0  0  0  0
    3.6535   22.9169   66.7849 N   0  0  0  0  0
   -0.2017   24.7380   66.9339 N   0  0  0  0  0
   -1.9882   23.4998   66.6591 N   0  0  0  0  0
   -1.0069   21.2648   66.7951 N   0  0  0  0  0
    1.8743   20.0432   69.5315 N   0  0  0  0  0
    1.2128   19.2777   70.5023 N   0  0  0  0  0
   -1.4862   24.7050   66.6980 O   0  0  0  0  0
    0.2004   21.6545   69.4640 O   0  0  0  0  0
    4.1328   19.7865   71.3592 O   0  0  0  0  0
  1  2  1  0  0  0
  2 19  1  0  0  0
  3 19  1  0  0  0
  3  4  1  0  0  0
  5 19  1  0  0  0
  5  6  1  0  0  0
  6 22  1  0  0  0
  7 20  1  0  0  0
  7 10  1  0  0  0
  9 25  1  0  0  0
  9  8  1  0  0  0
 10 26  1  0  0  0
 11 13  1  0  0  0
 12 11  1  0  0  0
 14 15  1  0  0  0
 16 17  1  0  0  0
 18 30  1  0  0  0
 18 13  1  0  0  0
 20 21  1  0  0  0
 20  8  1  0  0  0
 23 28  1  0  0  0
 26 27  1  0  0  0
 28 24  1  0  0  0
  6  7  2  0  0  0
  8 23  2  0  0  0
  9 24  2  0  0  0
 10 29  2  0  0  0
 11 27  2  0  0  0
 13 14  2  0  0  0
 15 16  2  0  0  0
 17 18  2  0  0  0
 21 22  2  0  0  0
M  END
> <rmsd>
0.729613364

$$$$
PubChem-65954234


 20 21  0  0  0  0  0  0  0  0999 V2000
    7.2158   21.1480   72.3744 C   0  0  0  0  0
    7.3768   20.3535   71.0924 C   0  0  0  0  0
    7.7090   18.9089   71.4146 C   0  0  0  0  0
    6.1407   20.4407   70.2537 C   0  0  0  0  0
    4.8692   20.0213   70.5789 C   0  0  0  0  0
    4.0935   20.3214   69.4817 C   0  0  0  0  0
    2.6543   20.0793   69.3116 C   0  0  0  0  0
    0.5836   20.3034   67.8644 C   0  0  0  0  0
    0.2842   20.3540   66.3653 C   0  0  0  0  0
    0.5679   21.7340   65.7669 C   0  0  0  0  0
   -0.1253   22.8132   66.5426 C   0  0  0  0  0
   -0.1795   21.3813   68.5775 C   0  0  0  0  0
    4.8765   20.8956   68.5455 N   0  0  0  0  0
    6.1170   20.9676   69.0135 N   0  0  0  0  0
    2.0149   20.4610   68.0910 N   0  0  0  0  0
   -0.4838   22.6095   67.9120 N   0  0  0  0  0
    4.4498   19.4086   71.7952 N   0  0  0  0  0
    1.9891   19.5337   70.2332 O   0  0  0  0  0
   -0.3753   23.9148   65.9892 O   0  0  0  0  0
   -0.5434   21.2097   69.7697 O   0  0  0  0  0
  1  2  1  0  0  0
  2  3  1  0  0  0
  2  4  1  0  0  0
  5  6  1  0  0  0
  5 17  1  0  0  0
  6  7  1  0  0  0
  7 15  1  0  0  0
  8 15  1  0  0  0
  8  9  1  0  0  0
  8 12  1  0  0  0
  9 10  1  0  0  0
 10 11  1  0  0  0
 11 16  1  0  0  0
 14 13  1  0  0  0
 14  4  1  0  0  0
 16 12  1  0  0  0
  4  5  2  0  0  0
  6 13  2  0  0  0
  7 18  2  0  0  0
 11 19  2  0  0  0
 12 20  2  0  0  0
M  END
> <rmsd>
0.809136212

$$$$
PubChem-17494757 CSC026797452 MCULE-6287220445 MolPort-005-623-675


 25 27  0  0  0  0  0  0  0  0999 V2000
   -1.3364   20.2012   67.6152 C   0  0  0  0  0
   -0.3089   21.3166   67.6374 C   0  0  0  0  0
   -0.7517   23.6344   66.7487 C   0  0  0  0  0
   -1.4545   24.9148   66.8766 C   0  0  0  0  0
   -1.3269   25.9890   66.0212 C   0  0  0  0  0
   -2.1712   26.9555   66.5396 C   0  0  0  0  0
   -2.7532   26.4076   67.6701 C   0  0  0  0  0
    0.6208   21.1541   68.7930 C   0  0  0  0  0
    2.8176   19.5863   70.4625 C   0  0  0  0  0
    5.1193   19.8905   70.3107 C   0  0  0  0  0
    6.0247   18.9298   69.5273 C   0  0  0  0  0
    7.2550   19.6377   68.9600 C   0  0  0  0  0
    8.0303   20.3255   70.0772 C   0  0  0  0  0
    7.1422   21.3538   70.7672 C   0  0  0  0  0
    5.9125   20.6723   71.3665 C   0  0  0  0  0
    4.3500   20.8082   69.3966 C   0  0  0  0  0
   -0.9800   22.6047   67.7121 N   0  0  0  0  0
    2.0205   21.0067   68.5448 N   0  0  0  0  0
    2.9476   20.6573   69.5409 N   0  0  0  0  0
    4.0636   19.1232   70.9697 N   0  0  0  0  0
    0.0500   23.4460   65.7937 O   0  0  0  0  0
   -2.2997   25.1889   67.8372 O   0  0  0  0  0
    0.1785   21.1936   69.9732 O   0  0  0  0  0
    1.7197   19.0494   70.7632 O   0  0  0  0  0
    4.8715   21.6130   68.5786 O   0  0  0  0  0
  2  1  1  0  0  0
  2 17  1  0  0  0
  2  8  1  0  0  0
  3  4  1  0  0  0
  4 22  1  0  0  0
  5  6  1  0  0  0
  7 22  1  0  0  0
  8 18  1  0  0  0
  9 20  1  0  0  0
 10 20  1  0  0  0
 10 11  1  0  0  0
 10 16  1  0  0  0
 11 12  1  0  0  0
 12 13  1  0  0  0
 13 14  1  0  0  0
 14 15  1  0  0  0
 15 10  1  0  0  0
 16 19  1  0  0  0
 17  3  1  0  0  0
 18 19  1  0  0  0
 19  9  1  0  0  0
  3 21  2  0  0  0
  4  5  2  0  0  0
  6  7  2  0  0  0
  8 23  2  0  0  0
  9 24  2  0  0  0
 16 25  2  0  0  0
M  END
> <rmsd>
0.761628926

$$$$
PubChem-73741639


 34 35  0  0  0  0  0  0  0  0999 V2000
    5.2326   18.4718   68.2910 C   0  0  0  0  0
    4.3756   19.7148   68.0868 C   0  0  0  0  0
    3.0081   19.6469   68.7474 C   0  0  0  0  0
    3.1029   19.1996   70.1637 C   0  0  0  0  0
    5.0026   20.8104   70.9371 C   0  0  0  0  0
    5.4709   21.3339   69.6957 C   0  0  0  0  0
    6.4064   22.3757   69.7122 C   0  0  0  0  0
    6.9171   22.8867   70.9084 C   0  0  0  0  0
    6.4639   22.3613   72.1191 C   0  0  0  0  0
    5.5223   21.3343   72.1269 C   0  0  0  0  0
    7.8924   24.0275   70.8814 C   0  0  0  0  0
    0.9245   21.0864   68.8833 C   0  0  0  0  0
    0.3210   22.4534   68.8243 C   0  0  0  0  0
   -0.2815   22.7052   67.4811 C   0  0  0  0  0
   -1.9859   22.0782   65.7150 C   0  0  0  0  0
   -1.2550   21.1877   64.7112 C   0  0  0  0  0
   -1.9016   21.3053   63.3312 C   0  0  0  0  0
   -0.1369   23.6092   70.6583 C   0  0  0  0  0
    2.3477   18.2710   70.5515 O   0  0  0  0  0
    5.0792   20.9027   68.4209 O   0  0  0  0  0
    0.1961   20.0783   69.0937 O   0  0  0  0  0
    0.2124   23.5959   66.7397 O   0  0  0  0  0
   -0.6426   22.6108   69.8247 O   0  0  0  0  0
    4.0175   19.7783   71.0956 N   0  0  0  0  0
    2.3259   20.9326   68.6543 N   0  0  0  0  0
   -1.4115   21.9429   67.0469 N   0  0  0  0  0
    8.5453   24.1464   72.0966 F   0  0  0  0  0
    7.2139   25.2033   70.6188 F   0  0  0  0  0
    8.8364   23.8188   69.8913 F   0  0  0  0  0
   -1.2301   20.4957   62.4327 F   0  0  0  0  0
   -3.2258   20.9069   63.3889 F   0  0  0  0  0
   -1.8405   22.6145   62.8861 F   0  0  0  0  0
    0.0732   21.5691   64.6263 F   0  0  0  0  0
   -1.3185   19.8715   65.1359 F   0  0  0  0  0
  2  1  1  0  0  0
  2  3  1  0  0  0
  2 20  1  0  0  0
  3  4  1  0  0  0
  3 25  1  0  0  0
  4 24  1  0  0  0
  6 20  1  0  0  0
  6  7  1  0  0  0
  8  9  1  0  0  0
 10  5  1  0  0  0
 11  8  1  0  0  0
 11 27  1  0  0  0
 11 28  1  0  0  0
 11 29  1  0  0  0
 13 12  1  0  0  0
 13 14  1  0  0  0
 13 23  1  0  0  0
 14 26  1  0  0  0
 15 26  1  0  0  0
 15 16  1  0  0  0
 16 17  1  0  0  0
 16 33  1  0  0  0
 16 34  1  0  0  0
 17 30  1  0  0  0
 17 31  1  0  0  0
 17 32  1  0  0  0
 18 23  1  0  0  0
 24  5  1  0  0  0
 25 12  1  0  0  0
  4 19  2  0  0  0
  5  6  2  0  0  0
  7  8  2  0  0  0
  9 10  2  0  0  0
 12 21  2  0  0  0
 14 22  2  0  0  0
M  END
> <rmsd>
0.809899628

$$$$
PubChem-81234733


 21 22  0  0  0  0  0  0  0  0999 V2000
    5.0130   19.4698   75.3723 C   0  0  0  0  0
    4.2551   19.8194   74.1093 C   0  0  0  0  0
    4.8280   19.0388   72.9453 C   0  0  0  0  0
    4.7323   19.9550   70.5773 C   0  0  0  0  0
    3.9785   20.2736   69.4229 C   0  0  0  0  0
    4.6477   20.8364   68.3260 C   0  0  0  0  0
    6.7230   20.7699   69.4687 C   0  0  0  0  0
    6.1107   20.2095   70.5878 C   0  0  0  0  0
    2.5169   20.0440   69.3175 C   0  0  0  0  0
    0.3879   20.2583   67.9504 C   0  0  0  0  0
    0.0268   20.2692   66.4642 C   0  0  0  0  0
    0.3087   21.6249   65.8120 C   0  0  0  0  0
   -0.3312   22.7403   66.5827 C   0  0  0  0  0
   -0.3272   21.3705   68.6606 C   0  0  0  0  0
    4.1049   19.3800   71.7301 N   0  0  0  0  0
    5.9854   21.0697   68.3695 N   0  0  0  0  0
    1.8298   20.3985   68.1123 N   0  0  0  0  0
   -0.6367   22.5840   67.9710 N   0  0  0  0  0
    1.8719   19.5349   70.2739 O   0  0  0  0  0
   -0.5827   23.8302   66.0071 O   0  0  0  0  0
   -0.6456   21.2407   69.8710 O   0  0  0  0  0
  1  2  1  0  0  0
  2  3  1  0  0  0
  3 15  1  0  0  0
  5  6  1  0  0  0
  5  9  1  0  0  0
  7 16  1  0  0  0
  8  4  1  0  0  0
  9 17  1  0  0  0
 10 17  1  0  0  0
 10 11  1  0  0  0
 10 14  1  0  0  0
 11 12  1  0  0  0
 12 13  1  0  0  0
 13 18  1  0  0  0
 15  4  1  0  0  0
 18 14  1  0  0  0
  4  5  2  0  0  0
  6 16  2  0  0  0
  7  8  2  0  0  0
  9 19  2  0  0  0
 13 20  2  0  0  0
 14 21  2  0  0  0
M  END
> <rmsd>
0.768552721

$$$$
PubChem-118573985


 25 26  0  0  0  0  0  0  0  0999 V2000
   -1.6841   20.1865   68.5838 C   0  0  0  0  0
   -0.5675   20.8941   67.8405 C   0  0  0  0  0
    0.6104   21.0796   68.7420 C   0  0  0  0  0
    3.0414   20.5797   69.2393 C   0  0  0  0  0
    4.2540   20.2174   68.4284 C   0  0  0  0  0
    5.9357   20.8800   70.1711 C   0  0  0  0  0
    5.3727   20.1892   71.2860 C   0  0  0  0  0
    6.0926   20.1470   72.4864 C   0  0  0  0  0
    7.3345   20.7756   72.6205 C   0  0  0  0  0
    7.8524   21.4939   71.5415 C   0  0  0  0  0
    7.1618   21.5359   70.3318 C   0  0  0  0  0
    8.0528   20.7622   73.9385 C   0  0  0  0  0
    2.9943   19.6430   70.3997 C   0  0  0  0  0
   -0.3240   22.9658   66.4011 C   0  0  0  0  0
    0.5097   21.7835   69.7841 O   0  0  0  0  0
    5.3690   20.9576   68.8915 O   0  0  0  0  0
    1.9698   18.9384   70.6054 O   0  0  0  0  0
    0.7630   22.5510   65.9183 O   0  0  0  0  0
   -0.8287   24.1953   66.0014 O   0  0  0  0  0
    1.8525   20.4596   68.4040 N   0  0  0  0  0
    4.1005   19.5212   71.2962 N   0  0  0  0  0
   -1.0459   22.1808   67.3525 N   0  0  0  0  0
    7.7788   19.5922   74.6257 F   0  0  0  0  0
    7.6354   21.8397   74.6973 F   0  0  0  0  0
    9.4205   20.8490   73.7440 F   0  0  0  0  0
  1  2  1  0  0  0
  2  3  1  0  0  0
  2 22  1  0  0  0
  3 20  1  0  0  0
  4 20  1  0  0  0
  4  5  1  0  0  0
  4 13  1  0  0  0
  5 16  1  0  0  0
  6 16  1  0  0  0
  7  8  1  0  0  0
  7 21  1  0  0  0
  9 10  1  0  0  0
 11  6  1  0  0  0
 12  9  1  0  0  0
 12 23  1  0  0  0
 12 24  1  0  0  0
 12 25  1  0  0  0
 14 19  1  0  0  0
 21 13  1  0  0  0
 22 14  1  0  0  0
  3 15  2  0  0  0
  6  7  2  0  0  0
  8  9  2  0  0  0
 10 11  2  0  0  0
 13 17  2  0  0  0
 14 18  2  0  0  0
M  END
> <rmsd>
0.628373802

$$$$
PubChem-45913708 CSC026002548 MCULE-7056881142 MolPort-009-338-408


 27 29  0  0  0  0  0  0  0  0999 V2000
   -1.3304   20.1991   67.6083 C   0  0  0  0  0
   -0.3055   21.3169   67.6354 C   0  0  0  0  0
   -0.7517   23.6364   66.7508 C   0  0  0  0  0
   -1.4551   24.9187   66.8754 C   0  0  0  0  0
   -1.3298   25.9951   66.0256 C   0  0  0  0  0
   -2.7404   26.5460   67.5589 C   0  0  0  0  0
   -2.3557   25.2536   67.8652 C   0  0  0  0  0
    0.6214   21.1542   68.7930 C   0  0  0  0  0
    2.8181   19.5890   70.4649 C   0  0  0  0  0
    5.1201   19.9163   70.3312 C   0  0  0  0  0
    6.0220   18.9823   69.5384 C   0  0  0  0  0
    4.3499   20.8185   69.4063 C   0  0  0  0  0
    5.9188   20.7138   71.3411 C   0  0  0  0  0
    5.6276   20.6479   72.7146 C   0  0  0  0  0
    6.3706   21.3915   73.6357 C   0  0  0  0  0
    7.4132   22.2097   73.1944 C   0  0  0  0  0
    7.7132   22.2846   71.8323 C   0  0  0  0  0
    6.9705   21.5412   70.9108 C   0  0  0  0  0
   -0.9801   22.6032   67.7114 N   0  0  0  0  0
    2.0222   21.0106   68.5482 N   0  0  0  0  0
    2.9474   20.6631   69.5466 N   0  0  0  0  0
    4.0639   19.1300   70.9763 N   0  0  0  0  0
    0.0528   23.4503   65.7977 O   0  0  0  0  0
   -2.1161   26.9448   66.4726 O   0  0  0  0  0
    0.1761   21.1901   69.9721 O   0  0  0  0  0
    1.7214   19.0456   70.7582 O   0  0  0  0  0
    4.8725   21.6066   68.5725 O   0  0  0  0  0
  2  1  1  0  0  0
  2 19  1  0  0  0
  2  8  1  0  0  0
  3  4  1  0  0  0
  5 24  1  0  0  0
  6 24  1  0  0  0
  7  4  1  0  0  0
  8 20  1  0  0  0
  9 22  1  0  0  0
 10 22  1  0  0  0
 10 11  1  0  0  0
 10 12  1  0  0  0
 10 13  1  0  0  0
 12 21  1  0  0  0
 14 15  1  0  0  0
 16 17  1  0  0  0
 18 13  1  0  0  0
 19  3  1  0  0  0
 20 21  1  0  0  0
 21  9  1  0  0  0
  3 23  2  0  0  0
  4  5  2  0  0  0
  6  7  2  0  0  0
  8 25  2  0  0  0
  9 26  2  0  0  0
 12 27  2  0  0  0
 13 14  2  0  0  0
 15 16  2  0  0  0
 17 18  2  0  0  0
M  END
> <rmsd>
0.759481013

$$$$
PubChem-65954643


 18 19  0  0  0  0  0  0  0  0999 V2000
    7.3500   20.3404   71.1063 C   0  0  0  0  0
    6.1345   20.4388   70.2537 C   0  0  0  0  0
    4.8689   20.0204   70.5793 C   0  0  0  0  0
    4.0930   20.3212   69.4817 C   0  0  0  0  0
    2.6538   20.0794   69.3115 C   0  0  0  0  0
    0.5834   20.3035   67.8640 C   0  0  0  0  0
    0.2843   20.3541   66.3649 C   0  0  0  0  0
    0.5677   21.7342   65.7665 C   0  0  0  0  0
   -0.1262   22.8132   66.5420 C   0  0  0  0  0
   -0.1801   21.3813   68.5769 C   0  0  0  0  0
    4.8768   20.8960   68.5456 N   0  0  0  0  0
    6.1173   20.9672   69.0149 N   0  0  0  0  0
    2.0146   20.4613   68.0909 N   0  0  0  0  0
   -0.4848   22.6093   67.9113 N   0  0  0  0  0
    4.4537   19.4076   71.7965 N   0  0  0  0  0
    1.9885   19.5335   70.2329 O   0  0  0  0  0
   -0.3767   23.9146   65.9885 O   0  0  0  0  0
   -0.5441   21.2095   69.7691 O   0  0  0  0  0
  1  2  1  0  0  0
  3  4  1  0  0  0
  3 15  1  0  0  0
  4  5  1  0  0  0
  5 13  1  0  0  0
  6 13  1  0  0  0
  6  7  1  0  0  0
  6 10  1  0  0  0
  7  8  1  0  0  0
  8  9  1  0  0  0
  9 14  1  0  0  0
 12 11  1  0  0  0
 12  2  1  0  0  0
 14 10  1  0  0  0
  2  3  2  0  0  0
  4 11  2  0  0  0
  5 16  2  0  0  0
  9 17  2  0  0  0
 10 18  2  0  0  0
M  END
> <rmsd>
0.809471667

$$$$
PubChem-154392302


 30 32  0  0  0  0  0  0  0  0999 V2000
   -4.0474   28.5685   65.4929 C   0  0  0  0  0
   -4.2589   27.8302   66.8015 C   0  0  0  0  0
   -2.0049   26.7004   66.9019 C   0  0  0  0  0
   -1.3702   25.5925   66.0638 C   0  0  0  0  0
   -3.2607   24.1199   66.7435 C   0  0  0  0  0
   -4.0971   25.3226   66.8689 C   0  0  0  0  0
   -0.8914   23.2357   66.7627 C   0  0  0  0  0
   -0.3661   20.9287   67.6813 C   0  0  0  0  0
   -1.1010   19.6510   67.9411 C   0  0  0  0  0
   -2.1512   19.5925   68.8706 C   0  0  0  0  0
   -2.8052   18.3817   69.1157 C   0  0  0  0  0
   -2.4103   17.2246   68.4380 C   0  0  0  0  0
   -1.3608   17.2776   67.5161 C   0  0  0  0  0
   -0.7060   18.4883   67.2703 C   0  0  0  0  0
    0.5036   21.2858   68.8463 C   0  0  0  0  0
    2.7698   21.1395   69.9582 C   0  0  0  0  0
    2.7595   20.0156   70.8760 C   0  0  0  0  0
    4.1684   20.7613   69.5894 C   0  0  0  0  0
    1.0681   18.8030   71.6366 C   0  0  0  0  0
   -3.4634   26.6104   66.8272 N   0  0  0  0  0
   -1.8464   24.2844   66.5197 N   0  0  0  0  0
   -1.2994   22.0055   67.3700 N   0  0  0  0  0
    1.8910   20.9497   68.8078 N   0  0  0  0  0
    4.1062   19.6221   70.5280 N   0  0  0  0  0
   -3.7813   22.9745   66.8239 O   0  0  0  0  0
   -5.3478   25.2225   66.9958 O   0  0  0  0  0
    0.3193   23.4046   66.4493 O   0  0  0  0  0
    0.0065   21.8311   69.8696 O   0  0  0  0  0
    5.0374   21.2199   68.8031 O   0  0  0  0  0
    1.8635   19.0028   70.5079 O   0  0  0  0  0
  1  2  1  0  0  0
  2 20  1  0  0  0
  3 20  1  0  0  0
  3  4  1  0  0  0
  4 21  1  0  0  0
  5  6  1  0  0  0
  6 20  1  0  0  0
  7 22  1  0  0  0
  8 22  1  0  0  0
  8  9  1  0  0  0
  8 15  1  0  0  0
 10 11  1  0  0  0
 12 13  1  0  0  0
 14  9  1  0  0  0
 15 23  1  0  0  0
 16 23  1  0  0  0
 16 17  1  0  0  0
 16 18  1  0  0  0
 17 24  1  0  0  0
 17 30  1  0  0  0
 19 30  1  0  0  0
 21  5  1  0  0  0
 21  7  1  0  0  0
 24 18  1  0  0  0
  5 25  2  0  0  0
  6 26  2  0  0  0
  7 27  2  0  0  0
  9 10  2  0  0  0
 11 12  2  0  0  0
 13 14  2  0  0  0
 15 28  2  0  0  0
 18 29  2  0  0  0
M  END
> <rmsd>
0.712662339

$$$$
PubChem-91603688


 39 43  0  0  0  0  0  0  0  0999 V2000
   -1.4868   24.9347   68.1947 C   0  0  0  0  0
   -0.1730   24.3273   68.6626 C   0  0  0  0  0
    0.6727   23.6080   67.5870 C   0  0  0  0  0
   -0.0880   22.8143   68.6276 C   0  0  0  0  0
    2.0542   22.1773   68.9840 C   0  0  0  0  0
    2.1098   23.1389   67.7672 C   0  0  0  0  0
    3.0266   24.3465   67.9253 C   0  0  0  0  0
    3.8764   24.6534   69.1117 C   0  0  0  0  0
    3.6815   24.0478   70.3623 C   0  0  0  0  0
    4.4946   24.3705   71.4519 C   0  0  0  0  0
    5.5159   25.3109   71.3055 C   0  0  0  0  0
    5.7199   25.9293   70.0707 C   0  0  0  0  0
    4.9033   25.6038   68.9840 C   0  0  0  0  0
    2.5752   20.7234   68.7957 C   0  0  0  0  0
    4.0440   20.6738   68.3953 C   0  0  0  0  0
    4.6939   19.4199   67.9379 C   0  0  0  0  0
    6.0313   19.4426   67.5126 C   0  0  0  0  0
    6.6615   18.2712   67.0830 C   0  0  0  0  0
    5.9610   17.0629   67.0763 C   0  0  0  0  0
    4.6306   17.0264   67.4989 C   0  0  0  0  0
    4.0014   18.1988   67.9273 C   0  0  0  0  0
    2.4158   19.9746   70.1042 C   0  0  0  0  0
    3.0880   20.4805   71.3522 C   0  0  0  0  0
    2.0938   20.9020   72.3898 C   0  0  0  0  0
    1.2913   19.9594   73.0506 C   0  0  0  0  0
    0.3638   20.3759   74.0102 C   0  0  0  0  0
    0.2327   21.7347   74.3111 C   0  0  0  0  0
    1.0285   22.6774   73.6533 C   0  0  0  0  0
    1.9573   22.2611   72.6952 C   0  0  0  0  0
    0.5582   25.0158   69.8031 C   0  0  0  0  0
    0.7581   22.1727   69.5449 O   0  0  0  0  0
    3.0893   25.1406   66.9453 O   0  0  0  0  0
    2.5082   22.4497   66.6144 O   0  0  0  0  0
    4.7502   21.7157   68.4878 O   0  0  0  0  0
    1.7483   18.9503   70.1509 O   0  0  0  0  0
    3.9590   19.5170   71.8652 O   0  0  0  0  0
    1.8034   20.1042   67.8041 O   0  0  0  0  0
   -1.1929   22.0920   68.1650 O   0  0  0  0  0
    0.0996   23.4797   66.3149 O   0  0  0  0  0
  1  2  1  0  0  0
  2  3  1  0  0  0
  2 30  1  0  0  0
  3  4  1  0  0  0
  3 39  1  0  0  0
  4 31  1  0  0  0
  4 38  1  0  0  0
  4  2  1  0  0  0
  5 31  1  0  0  0
  5  6  1  0  0  0
  5 14  1  0  0  0
  6  7  1  0  0  0
  6 33  1  0  0  0
  6  3  1  0  0  0
  7  8  1  0  0  0
  9 10  1  0  0  0
 11 12  1  0  0  0
 13  8  1  0  0  0
 14 15  1  0  0  0
 14 22  1  0  0  0
 14 37  1  0  0  0
 15 16  1  0  0  0
 17 18  1  0  0  0
 19 20  1  0  0  0
 21 16  1  0  0  0
 23 22  1  0  0  0
 23 24  1  0  0  0
 23 36  1  0  0  0
 25 26  1  0  0  0
 27 28  1  0  0  0
 29 24  1  0  0  0
  7 32  2  0  0  0
  8  9  2  0  0  0
 10 11  2  0  0  0
 12 13  2  0  0  0
 15 34  2  0  0  0
 16 17  2  0  0  0
 18 19  2  0  0  0
 20 21  2  0  0  0
 22 35  2  0  0  0
 24 25  2  0  0  0
 26 27  2  0  0  0
 28 29  2  0  0  0
M  END
> <rmsd>
0.743236601

$$$$
PubChem-65954036


 19 20  0  0  0  0  0  0  0  0999 V2000
    7.7497   18.9241   71.3542 C   0  0  0  0  0
    7.3550   20.3679   71.1087 C   0  0  0  0  0
    6.1370   20.4352   70.2502 C   0  0  0  0  0
    4.8689   20.0154   70.5751 C   0  0  0  0  0
    4.0937   20.3145   69.4769 C   0  0  0  0  0
    2.6540   20.0746   69.3074 C   0  0  0  0  0
    0.5827   20.3033   67.8618 C   0  0  0  0  0
    0.2825   20.3566   66.3630 C   0  0  0  0  0
    0.5671   21.7373   65.7667 C   0  0  0  0  0
   -0.1248   22.8160   66.5446 C   0  0  0  0  0
   -0.1790   21.3808   68.5771 C   0  0  0  0  0
    4.8767   20.8912   68.5418 N   0  0  0  0  0
    6.1163   20.9667   69.0123 N   0  0  0  0  0
    2.0143   20.4591   68.0879 N   0  0  0  0  0
   -0.4827   22.6102   67.9137 N   0  0  0  0  0
    4.4476   19.4229   71.8003 N   0  0  0  0  0
    1.9888   19.5279   70.2285 O   0  0  0  0  0
   -0.3743   23.9185   65.9930 O   0  0  0  0  0
   -0.5423   21.2075   69.7693 O   0  0  0  0  0
  1  2  1  0  0  0
  2  3  1  0  0  0
  4  5  1  0  0  0
  4 16  1  0  0  0
  5  6  1  0  0  0
  6 14  1  0  0  0
  7 14  1  0  0  0
  7  8  1  0  0  0
  7 11  1  0  0  0
  8  9  1  0  0  0
  9 10  1  0  0  0
 10 15  1  0  0  0
 13 12  1  0  0  0
 13  3  1  0  0  0
 15 11  1  0  0  0
  3  4  2  0  0  0
  5 12  2  0  0  0
  6 17  2  0  0  0
 10 18  2  0  0  0
 11 19  2  0  0  0
M  END
> <rmsd>
0.809407294

$$$$
PubChem-56194778


 28 30  0  0  0  0  0  0  0  0999 V2000
    0.9930   24.3671   71.1103 C   0  0  0  0  0
    0.0230   23.3442   69.1098 C   0  0  0  0  0
   -0.4122   23.3743   67.8305 C   0  0  0  0  0
   -0.3570   24.5533   67.1032 C   0  0  0  0  0
    0.5837   25.6180   69.0204 C   0  0  0  0  0
   -0.6457   21.4269   68.5786 C   0  0  0  0  0
   -0.9254   19.9626   68.6405 C   0  0  0  0  0
    0.2696   19.1655   68.1350 C   0  0  0  0  0
    1.3899   19.1945   69.1200 C   0  0  0  0  0
    4.8646   20.6392   69.3756 C   0  0  0  0  0
    5.9762   20.7390   70.3522 C   0  0  0  0  0
    5.9114   20.1741   71.6478 C   0  0  0  0  0
    6.9948   20.3041   72.5230 C   0  0  0  0  0
    8.1450   20.9892   72.1290 C   0  0  0  0  0
    8.2184   21.5499   70.8541 C   0  0  0  0  0
    7.1418   21.4250   69.9739 C   0  0  0  0  0
    0.5268   24.4431   69.7317 N   0  0  0  0  0
    0.1441   25.6615   67.7216 N   0  0  0  0  0
   -0.8432   22.1628   67.4516 N   0  0  0  0  0
   -0.1058   22.1115   69.6228 N   0  0  0  0  0
    2.6025   19.8644   68.7840 N   0  0  0  0  0
    3.6571   19.9501   69.7016 N   0  0  0  0  0
   -0.7534   24.6076   65.9096 O   0  0  0  0  0
    1.0405   26.6656   69.5519 O   0  0  0  0  0
    1.2591   18.6352   70.2416 O   0  0  0  0  0
    4.9827   21.1720   68.2381 O   0  0  0  0  0
    4.7871   19.4839   72.0846 O   0  0  0  0  0
    9.6592   22.4099   70.3574 Cl  0  0  0  0  0
  1 17  1  0  0  0
  2 20  1  0  0  0
  3  4  1  0  0  0
  3 19  1  0  0  0
  4 18  1  0  0  0
  5 17  1  0  0  0
  7  6  1  0  0  0
  7  8  1  0  0  0
  8  9  1  0  0  0
  9 21  1  0  0  0
 10 11  1  0  0  0
 12 13  1  0  0  0
 12 27  1  0  0  0
 14 15  1  0  0  0
 15 28  1  0  0  0
 16 11  1  0  0  0
 17  2  1  0  0  0
 18  5  1  0  0  0
 19  6  1  0  0  0
 21 22  1  0  0  0
 22 10  1  0  0  0
  2  3  2  0  0  0
  4 23  2  0  0  0
  5 24  2  0  0  0
  6 20  2  0  0  0
  9 25  2  0  0  0
 10 26  2  0  0  0
 11 12  2  0  0  0
 13 14  2  0  0  0
 15 16  2  0  0  0
M  END
> <rmsd>
0.673754096

$$$$
PubChem-98512994


 33 36  0  0  0  0  0  0  0  0999 V2000
    5.6205   21.6055   72.6773 C   0  0  0  0  0
    4.4025   20.7336   72.3939 C   0  0  0  0  0
    3.3355   21.6830   71.7830 C   0  0  0  0  0
    3.6295   22.1320   70.3438 C   0  0  0  0  0
    3.3979   20.9953   69.3274 C   0  0  0  0  0
    3.7214   21.4268   67.8934 C   0  0  0  0  0
    2.6103   22.2527   67.2680 C   0  0  0  0  0
    1.2288   22.1987   67.8215 C   0  0  0  0  0
    0.9346   21.3342   68.8238 C   0  0  0  0  0
    1.9750   20.3948   69.4114 C   0  0  0  0  0
    1.6471   20.0999   70.8636 C   0  0  0  0  0
    1.9032   21.1813   71.8842 C   0  0  0  0  0
    1.5807   20.8042   73.2896 C   0  0  0  0  0
    2.5991   20.1352   74.1364 C   0  0  0  0  0
    2.2331   19.5364   75.3648 C   0  0  0  0  0
    3.1696   18.8235   76.1068 C   0  0  0  0  0
    4.4682   18.6725   75.6389 C   0  0  0  0  0
    4.8611   19.2567   74.4371 C   0  0  0  0  0
    3.9480   20.0467   73.6861 C   0  0  0  0  0
    0.1826   23.0754   67.2289 C   0  0  0  0  0
    5.5697   21.6692   66.4204 C   0  0  0  0  0
    5.1512   23.4055   67.9610 C   0  0  0  0  0
    2.8420   22.9031   66.2110 O   0  0  0  0  0
    1.1697   19.0221   71.1938 O   0  0  0  0  0
    0.4273   21.0553   73.7283 O   0  0  0  0  0
    0.9367   19.6227   75.8578 O   0  0  0  0  0
    1.9523   19.2022   68.6818 O   0  0  0  0  0
   -0.3654   21.2573   69.3195 O   0  0  0  0  0
    0.5036   24.1667   66.6901 O   0  0  0  0  0
    4.7589   19.7441   71.4727 O   0  0  0  0  0
    6.5034   18.9092   73.8996 Cl  0  0  0  0  0
   -1.1860   22.6827   67.2123 N   0  0  0  0  0
    5.0919   21.9586   67.7643 N   0  0  0  0  0
  2  1  1  0  0  0
  2  3  1  0  0  0
  2 30  1  0  0  0
  2 19  1  0  0  0
  3  4  1  0  0  0
  5  4  1  0  0  0
  5  6  1  0  0  0
  6  7  1  0  0  0
  6 33  1  0  0  0
  7  8  1  0  0  0
  8 20  1  0  0  0
  9 28  1  0  0  0
 10  9  1  0  0  0
 10 11  1  0  0  0
 10 27  1  0  0  0
 10  5  1  0  0  0
 12 11  1  0  0  0
 12 13  1  0  0  0
 12  3  1  0  0  0
 13 14  1  0  0  0
 15 16  1  0  0  0
 15 26  1  0  0  0
 17 18  1  0  0  0
 18 31  1  0  0  0
 19 14  1  0  0  0
 20 32  1  0  0  0
 21 33  1  0  0  0
 22 33  1  0  0  0
  7 23  2  0  0  0
  8  9  2  0  0  0
 11 24  2  0  0  0
 13 25  2  0  0  0
 14 15  2  0  0  0
 16 17  2  0  0  0
 18 19  2  0  0  0
 20 29  2  0  0  0
M  END
> <rmsd>
0.801110983

$$$$
PubChem-90663045 CHEMBL3142562


 28 28  0  0  0  0  0  0  0  0999 V2000
   -2.7898   21.2327   64.5519 C   0  0  0  0  0
   -2.6609   22.0953   65.7919 C   0  0  0  0  0
   -1.3224   21.8519   66.4675 C   0  0  0  0  0
   -1.1599   21.0127   68.6491 C   0  0  0  0  0
   -2.0400   21.0067   69.8915 C   0  0  0  0  0
   -2.0808   19.6280   70.5320 C   0  0  0  0  0
   -2.6394   19.7437   71.9339 C   0  0  0  0  0
   -2.9635   18.6999   69.7198 C   0  0  0  0  0
    0.2874   20.9458   69.0200 C   0  0  0  0  0
    2.4967   19.7292   68.8471 C   0  0  0  0  0
    3.1491   18.7625   67.8715 C   0  0  0  0  0
    3.6919   19.5099   66.6607 C   0  0  0  0  0
    5.0656   20.0922   66.9607 C   0  0  0  0  0
    4.9392   21.3473   67.8104 C   0  0  0  0  0
    6.0977   20.6942   69.7639 C   0  0  0  0  0
    5.4626   21.4205   70.9430 C   0  0  0  0  0
    3.9451   21.3974   70.8499 C   0  0  0  0  0
    2.7025   19.2724   70.2598 C   0  0  0  0  0
   -1.4196   22.2150   67.8720 N   0  0  0  0  0
    1.0781   19.8554   68.5461 N   0  0  0  0  0
    6.1509   21.5585   68.5894 N   0  0  0  0  0
    3.4393   20.0736   71.1859 N   0  0  0  0  0
    0.8056   21.8544   69.7248 O   0  0  0  0  0
    2.2288   18.1686   70.6396 O   0  0  0  0  0
   -0.3546   24.3108   65.7751 O   0  0  0  0  0
    0.1221   22.4097   64.0445 O   0  0  0  0  0
    1.4604   22.5539   66.4478 O   0  0  0  0  0
   -0.0149   22.8415   65.6736 P   0  0  0  0  0
  1  2  1  0  0  0
  3  2  1  0  0  0
  3 19  1  0  0  0
  3 28  1  0  0  0
  4 19  1  0  0  0
  4  5  1  0  0  0
  4  9  1  0  0  0
  5  6  1  0  0  0
  6  7  1  0  0  0
  6  8  1  0  0  0
  9 20  1  0  0  0
 10 20  1  0  0  0
 10 11  1  0  0  0
 10 18  1  0  0  0
 11 12  1  0  0  0
 12 13  1  0  0  0
 13 14  1  0  0  0
 14 21  1  0  0  0
 15 21  1  0  0  0
 15 16  1  0  0  0
 16 17  1  0  0  0
 17 22  1  0  0  0
 22 18  1  0  0  0
 28 26  1  0  0  0
 28 27  1  0  0  0
  9 23  2  0  0  0
 18 24  2  0  0  0
 28 25  2  0  0  0
M  END
> <rmsd>
0.811044931

$$$$
PubChem-133078792 643568843 MCULE-8111116866


 35 37  0  0  0  0  0  0  0  0999 V2000
   -8.9746   19.4105   70.6233 C   0  0  0  0  0
   -7.5424   18.9590   70.3970 C   0  0  0  0  0
   -5.7847   19.2562   68.8773 C   0  0  0  0  0
   -4.9792   20.2535   68.0458 C   0  0  0  0  0
   -5.3917   21.9390   69.8485 C   0  0  0  0  0
   -6.1740   20.8588   70.5892 C   0  0  0  0  0
   -3.0973   21.7290   68.8546 C   0  0  0  0  0
   -2.1617   21.1430   67.8308 C   0  0  0  0  0
   -1.0812   20.2467   68.4579 C   0  0  0  0  0
    0.0634   20.9991   69.0706 C   0  0  0  0  0
    2.5239   21.6122   69.0407 C   0  0  0  0  0
    3.7245   21.5071   68.1223 C   0  0  0  0  0
    2.3892   22.1332   66.0410 C   0  0  0  0  0
    1.9675   23.5502   66.3796 C   0  0  0  0  0
   -0.2122   24.3791   65.5242 C   0  0  0  0  0
    0.3922   25.3969   64.7690 C   0  0  0  0  0
   -0.3662   26.1832   63.9007 C   0  0  0  0  0
   -1.7368   25.9596   63.7770 C   0  0  0  0  0
   -2.3496   24.9450   64.5171 C   0  0  0  0  0
   -1.6025   24.1445   65.3958 C   0  0  0  0  0
   -2.2937   23.0617   66.1402 C   0  0  0  0  0
    2.8361   21.2772   70.5081 C   0  0  0  0  0
    3.1909   19.8384   70.7279 C   0  0  0  0  0
   -6.8232   19.9623   69.6293 N   0  0  0  0  0
   -4.4627   21.2999   68.9223 N   0  0  0  0  0
    1.3846   20.8413   68.5415 N   0  0  0  0  0
    3.6274   21.7912   66.7222 N   0  0  0  0  0
   -1.5603   22.1856   67.0062 N   0  0  0  0  0
    4.4908   19.4966   71.1930 N   0  0  0  0  0
   -2.6865   22.6314   69.6330 O   0  0  0  0  0
   -0.1357   21.7451   70.0665 O   0  0  0  0  0
    4.8615   21.2403   68.5985 O   0  0  0  0  0
    0.5506   23.5951   66.3934 O   0  0  0  0  0
   -3.5364   22.8977   65.9959 O   0  0  0  0  0
    2.3381   18.9328   70.5374 O   0  0  0  0  0
  1  2  1  0  0  0
  2 24  1  0  0  0
  3 24  1  0  0  0
  3  4  1  0  0  0
  4 25  1  0  0  0
  5 25  1  0  0  0
  5  6  1  0  0  0
  6 24  1  0  0  0
  8  7  1  0  0  0
  8  9  1  0  0  0
  8 28  1  0  0  0
  9 10  1  0  0  0
 10 26  1  0  0  0
 11 26  1  0  0  0
 11 12  1  0  0  0
 11 22  1  0  0  0
 12 27  1  0  0  0
 13 27  1  0  0  0
 13 14  1  0  0  0
 14 33  1  0  0  0
 15 33  1  0  0  0
 16 17  1  0  0  0
 18 19  1  0  0  0
 20 21  1  0  0  0
 20 15  1  0  0  0
 21 28  1  0  0  0
 22 23  1  0  0  0
 23 29  1  0  0  0
 25  7  1  0  0  0
  7 30  2  0  0  0
 10 31  2  0  0  0
 12 32  2  0  0  0
 15 16  2  0  0  0
 17 18  2  0  0  0
 19 20  2  0  0  0
 21 34  2  0  0  0
 23 35  2  0  0  0
M  END
> <rmsd>
0.739931405

$$$$
PubChem-118190904


 23 22  0  0  0  0  0  0  0  0999 V2000
   -0.8840   18.9944   69.0225 C   0  0  0  0  0
   -0.0416   20.1602   69.5119 C   0  0  0  0  0
   -0.5776   21.4414   68.9702 C   0  0  0  0  0
   -1.1024   22.9168   66.9807 C   0  0  0  0  0
   -2.4749   22.6834   66.2924 C   0  0  0  0  0
   -2.3707   21.6897   65.1476 C   0  0  0  0  0
   -3.4603   22.1296   67.3059 C   0  0  0  0  0
    0.0055   23.6332   66.1629 C   0  0  0  0  0
    0.4670   22.7967   64.9813 C   0  0  0  0  0
    1.2066   23.8854   67.0571 C   0  0  0  0  0
    2.2140   19.0162   69.6724 C   0  0  0  0  0
    3.6158   18.8973   69.1819 C   0  0  0  0  0
    4.4888   19.9901   69.7803 C   0  0  0  0  0
    5.7776   20.0791   69.0370 C   0  0  0  0  0
   -1.0065   22.3183   69.7664 O   0  0  0  0  0
    1.8164   18.2760   70.6112 O   0  0  0  0  0
    6.0818   21.1446   68.4410 O   0  0  0  0  0
    6.6470   18.9952   69.0004 O   0  0  0  0  0
   -0.5935   21.6737   67.5595 N   0  0  0  0  0
   -3.0181   23.9318   65.7862 N   0  0  0  0  0
   -0.4614   24.9202   65.6780 N   0  0  0  0  0
    1.3435   19.9913   69.0946 N   0  0  0  0  0
    4.7505   19.7104   71.1826 N   0  0  0  0  0
  2  1  1  0  0  0
  2  3  1  0  0  0
  2 22  1  0  0  0
  3 19  1  0  0  0
  4 19  1  0  0  0
  4  5  1  0  0  0
  4  8  1  0  0  0
  5  6  1  0  0  0
  5  7  1  0  0  0
  5 20  1  0  0  0
  8  9  1  0  0  0
  8 10  1  0  0  0
  8 21  1  0  0  0
 12 11  1  0  0  0
 13 12  1  0  0  0
 13 14  1  0  0  0
 13 23  1  0  0  0
 14 18  1  0  0  0
 22 11  1  0  0  0
  3 15  2  0  0  0
 11 16  2  0  0  0
 14 17  2  0  0  0
M  END
> <rmsd>
0.730124176

$$$$
PubChem-91785677


 26 29  0  0  0  0  0  0  0  0999 V2000
   -1.0345   26.8519   69.9618 C   0  0  0  0  0
   -0.7488   25.5437   69.3177 C   0  0  0  0  0
   -0.2159   25.5098   68.0124 C   0  0  0  0  0
    0.0457   24.2639   67.4282 C   0  0  0  0  0
   -0.7341   23.2032   69.3863 C   0  0  0  0  0
   -0.4881   21.1956   68.8972 C   0  0  0  0  0
   -0.4118   19.7107   68.9904 C   0  0  0  0  0
    0.9357   19.3057   69.4764 C   0  0  0  0  0
    3.4243   19.1354   69.0399 C   0  0  0  0  0
    4.4653   19.4070   67.9445 C   0  0  0  0  0
    3.9214   20.0000   66.6701 C   0  0  0  0  0
    4.4181   21.4223   66.7064 C   0  0  0  0  0
    4.9641   20.6079   68.7271 C   0  0  0  0  0
    3.9436   20.3302   69.8194 C   0  0  0  0  0
    4.2967   20.3898   72.3109 C   0  0  0  0  0
    5.0225   19.8909   73.5074 C   0  0  0  0  0
    0.5248   24.1814   66.2666 O   0  0  0  0  0
    1.0828   18.9325   70.6708 O   0  0  0  0  0
    4.6108   21.7882   68.0469 O   0  0  0  0  0
    3.3993   21.2638   72.4450 O   0  0  0  0  0
   -0.2317   23.1531   68.1527 N   0  0  0  0  0
   -1.0018   24.3842   69.9955 N   0  0  0  0  0
   -0.9150   21.9838   69.9208 N   0  0  0  0  0
   -0.0586   21.8915   67.8152 N   0  0  0  0  0
    2.0570   19.3863   68.5950 N   0  0  0  0  0
    4.6219   19.8722   71.0215 N   0  0  0  0  0
  1  2  1  0  0  0
  2 22  1  0  0  0
  3  4  1  0  0  0
  4 21  1  0  0  0
  5 23  1  0  0  0
  6 24  1  0  0  0
  7  6  1  0  0  0
  7  8  1  0  0  0
  8 25  1  0  0  0
  9 25  1  0  0  0
  9 10  1  0  0  0
 10 11  1  0  0  0
 11 12  1  0  0  0
 12 19  1  0  0  0
 13 19  1  0  0  0
 13 14  1  0  0  0
 13 10  1  0  0  0
 14 26  1  0  0  0
 14  9  1  0  0  0
 16 15  1  0  0  0
 21  5  1  0  0  0
 24 21  1  0  0  0
 26 15  1  0  0  0
  2  3  2  0  0  0
  4 17  2  0  0  0
  5 22  2  0  0  0
  6 23  2  0  0  0
  8 18  2  0  0  0
 15 20  2  0  0  0
M  END
> <rmsd>
0.763381839

$$$$
PubChem-61152204


 20 21  0  0  0  0  0  0  0  0999 V2000
    4.4703   23.1687   65.7865 C   0  0  0  0  0
    3.0487   23.1138   66.2298 C   0  0  0  0  0
    2.5378   22.3398   67.2781 C   0  0  0  0  0
    1.1769   22.6296   67.2856 C   0  0  0  0  0
    0.9751   23.5229   66.2692 C   0  0  0  0  0
   -1.3089   23.6466   66.7473 C   0  0  0  0  0
    0.0905   22.2503   68.0800 C   0  0  0  0  0
    3.3062   21.4183   68.1427 C   0  0  0  0  0
    3.3515   19.4578   69.7478 C   0  0  0  0  0
    3.7467   20.1735   71.0317 C   0  0  0  0  0
    2.4751   18.2883   70.0507 C   0  0  0  0  0
    2.0900   23.8061   65.6464 O   0  0  0  0  0
    0.2186   21.4675   69.0554 O   0  0  0  0  0
    4.5595   21.5327   68.2180 O   0  0  0  0  0
    4.6388   19.3874   71.7616 O   0  0  0  0  0
    2.8508   17.1290   69.7381 O   0  0  0  0  0
    1.2447   18.4717   70.6708 O   0  0  0  0  0
   -0.2465   24.0335   65.9836 N   0  0  0  0  0
   -1.1360   22.7687   67.7827 N   0  0  0  0  0
    2.6476   20.3754   68.8635 N   0  0  0  0  0
  1  2  1  0  0  0
  2 12  1  0  0  0
  3  4  1  0  0  0
  3  8  1  0  0  0
  5 12  1  0  0  0
  5 18  1  0  0  0
  6 19  1  0  0  0
  7  4  1  0  0  0
  8 20  1  0  0  0
  9 20  1  0  0  0
  9 10  1  0  0  0
  9 11  1  0  0  0
 10 15  1  0  0  0
 11 17  1  0  0  0
 19  7  1  0  0  0
  2  3  2  0  0  0
  4  5  2  0  0  0
  6 18  2  0  0  0
  7 13  2  0  0  0
  8 14  2  0  0  0
 11 16  2  0  0  0
M  END
> <rmsd>
0.76536268

$$$$
PubChem-61152204


 20 21  0  0  0  0  0  0  0  0999 V2000
    4.4664   23.1317   65.7812 C   0  0  0  0  0
    3.0445   23.0899   66.2249 C   0  0  0  0  0
    2.5283   22.3269   67.2787 C   0  0  0  0  0
    1.1696   22.6265   67.2843 C   0  0  0  0  0
    0.9739   23.5140   66.2617 C   0  0  0  0  0
   -1.3092   23.6571   66.7390 C   0  0  0  0  0
    0.0806   22.2604   68.0814 C   0  0  0  0  0
    3.2904   21.4061   68.1497 C   0  0  0  0  0
    3.3223   19.4570   69.7694 C   0  0  0  0  0
    3.7282   20.1791   71.0470 C   0  0  0  0  0
    2.4416   18.2904   70.0792 C   0  0  0  0  0
    2.0907   23.7848   65.6367 O   0  0  0  0  0
    0.2032   21.4834   69.0623 O   0  0  0  0  0
    4.5446   21.5120   68.2237 O   0  0  0  0  0
    4.6155   19.3904   71.7800 O   0  0  0  0  0
    1.3253   18.4601   70.6381 O   0  0  0  0  0
    2.8561   17.0090   69.7429 O   0  0  0  0  0
   -0.2441   24.0311   65.9726 N   0  0  0  0  0
   -1.1423   22.7853   67.7806 N   0  0  0  0  0
    2.6245   20.3735   68.8785 N   0  0  0  0  0
  1  2  1  0  0  0
  2 12  1  0  0  0
  3  4  1  0  0  0
  3  8  1  0  0  0
  5 12  1  0  0  0
  5 18  1  0  0  0
  6 19  1  0  0  0
  7  4  1  0  0  0
  8 20  1  0  0  0
  9 20  1  0  0  0
  9 10  1  0  0  0
  9 11  1  0  0  0
 10 15  1  0  0  0
 11 17  1  0  0  0
 19  7  1  0  0  0
  2  3  2  0  0  0
  4  5  2  0  0  0
  6 18  2  0  0  0
  7 13  2  0  0  0
  8 14  2  0  0  0
 11 16  2  0  0  0
M  END
> <rmsd>
0.758162498

$$$$
PubChem-51963416 40152735 ZINC000040152735 ZINC40152735


 29 31  0  0  0  0  0  0  0  0999 V2000
   -1.3311   20.1984   67.6115 C   0  0  0  0  0
   -0.3065   21.3164   67.6361 C   0  0  0  0  0
    0.6219   21.1550   68.7927 C   0  0  0  0  0
    4.3513   20.8078   69.3984 C   0  0  0  0  0
    5.1173   19.8920   70.3060 C   0  0  0  0  0
    2.8176   19.5871   70.4630 C   0  0  0  0  0
    5.9024   20.7000   71.3275 C   0  0  0  0  0
    6.0311   18.9777   69.4835 C   0  0  0  0  0
    6.8173   17.9747   70.3286 C   0  0  0  0  0
    5.9934   16.7806   70.6814 C   0  0  0  0  0
    5.5122   15.9262   69.6808 C   0  0  0  0  0
    4.7480   14.8067   70.0233 C   0  0  0  0  0
    4.4675   14.5359   71.3660 C   0  0  0  0  0
    4.9536   15.3830   72.3666 C   0  0  0  0  0
    5.7179   16.5027   72.0247 C   0  0  0  0  0
   -0.7554   23.6345   66.7487 C   0  0  0  0  0
   -1.4590   24.9166   66.8725 C   0  0  0  0  0
   -1.3358   25.9936   66.0189 C   0  0  0  0  0
   -2.1842   26.9501   66.5457 C   0  0  0  0  0
   -2.3561   25.2522   67.8617 C   0  0  0  0  0
    0.1781   21.1932   69.9723 O   0  0  0  0  0
    4.8770   21.6087   68.5791 O   0  0  0  0  0
    1.7199   19.0489   70.7617 O   0  0  0  0  0
    0.0474   23.4472   65.7944 O   0  0  0  0  0
   -2.7640   26.4762   67.6264 O   0  0  0  0  0
    2.0221   21.0095   68.5463 N   0  0  0  0  0
    2.9483   20.6602   69.5433 N   0  0  0  0  0
    4.0633   19.1236   70.9697 N   0  0  0  0  0
   -0.9812   22.6026   67.7115 N   0  0  0  0  0
  2  1  1  0  0  0
  2  3  1  0  0  0
  2 29  1  0  0  0
  3 26  1  0  0  0
  5  4  1  0  0  0
  5 28  1  0  0  0
  5  7  1  0  0  0
  5  8  1  0  0  0
  6 27  1  0  0  0
  8  9  1  0  0  0
  9 10  1  0  0  0
 11 12  1  0  0  0
 13 14  1  0  0  0
 15 10  1  0  0  0
 16 17  1  0  0  0
 17 18  1  0  0  0
 19 25  1  0  0  0
 20 25  1  0  0  0
 26 27  1  0  0  0
 27  4  1  0  0  0
 28  6  1  0  0  0
 29 16  1  0  0  0
  3 21  2  0  0  0
  4 22  2  0  0  0
  6 23  2  0  0  0
 10 11  2  0  0  0
 12 13  2  0  0  0
 14 15  2  0  0  0
 16 24  2  0  0  0
 18 19  2  0  0  0
 20 17  2  0  0  0
M  END
> <rmsd>
0.76093775

$$$$
PubChem-137640530 CHEMBL4073123


 33 35  0  0  0  0  0  0  0  0999 V2000
    5.6146   21.6757   68.6148 O   0  0  0  0  0
    1.6837   19.0433   70.8229 O   0  0  0  0  0
    0.4622   21.6928   70.3717 O   0  0  0  0  0
   -0.3800   23.8711   65.8479 O   0  0  0  0  0
    3.6232   25.2474   67.0117 O   0  0  0  0  0
    4.4224   21.9842   68.3495 C   0  0  0  0  0
    3.3667   21.7324   69.3727 C   0  0  0  0  0
    2.7229   20.3769   69.1104 C   0  0  0  0  0
    2.7509   19.5041   70.3324 C   0  0  0  0  0
    4.1129   18.3398   72.1078 C   0  0  0  0  0
    5.5680   18.1898   72.5107 C   0  0  0  0  0
    6.0914   19.4924   73.0846 C   0  0  0  0  0
    0.3089   21.2301   69.2099 C   0  0  0  0  0
   -1.0048   21.4242   68.5184 C   0  0  0  0  0
   -1.7932   20.1148   68.4338 C   0  0  0  0  0
   -3.2473   20.3960   68.1090 C   0  0  0  0  0
   -1.2166   19.1492   67.4095 C   0  0  0  0  0
   -0.3078   23.3532   66.9941 C   0  0  0  0  0
    0.2970   24.1260   68.1311 C   0  0  0  0  0
   -0.7339   25.0783   68.7074 C   0  0  0  0  0
   -0.0340   26.4173   68.8831 C   0  0  0  0  0
    1.2462   26.3480   68.0723 C   0  0  0  0  0
    2.6487   24.4596   67.1618 C   0  0  0  0  0
    2.7794   23.0315   66.7068 C   0  0  0  0  0
    2.7254   22.9797   65.1898 C   0  0  0  0  0
    4.1686   22.8552   64.7185 C   0  0  0  0  0
    4.9570   22.3385   65.9074 C   0  0  0  0  0
    4.0095   19.1771   70.9229 N   0  0  0  0  0
    1.3787   20.5356   68.5554 N   0  0  0  0  0
   -0.8409   22.0409   67.2016 N   0  0  0  0  0
    1.4134   24.9560   67.7040 N   0  0  0  0  0
    4.0859   22.4997   67.0549 N   0  0  0  0  0
    7.8359   19.2946   73.5382 S   0  0  0  0  0
  7  6  1  0  0  0
  7  8  1  0  0  0
  8  9  1  0  0  0
  8 29  1  0  0  0
  9 28  1  0  0  0
 10 28  1  0  0  0
 10 11  1  0  0  0
 11 12  1  0  0  0
 12 33  1  0  0  0
 14 13  1  0  0  0
 14 15  1  0  0  0
 14 30  1  0  0  0
 15 16  1  0  0  0
 15 17  1  0  0  0
 19 18  1  0  0  0
 19 20  1  0  0  0
 19 31  1  0  0  0
 20 21  1  0  0  0
 21 22  1  0  0  0
 22 31  1  0  0  0
 24 23  1  0  0  0
 24 25  1  0  0  0
 24 32  1  0  0  0
 25 26  1  0  0  0
 26 27  1  0  0  0
 27 32  1  0  0  0
 29 13  1  0  0  0
 30 18  1  0  0  0
 31 23  1  0  0  0
 32  6  1  0  0  0
  6  1  2  0  0  0
  9  2  2  0  0  0
 13  3  2  0  0  0
 18  4  2  0  0  0
 23  5  2  0  0  0
M  END
> <rmsd>
0.619571447

$$$$
PubChem-156438121


 21 23  0  0  0  0  0  0  0  0999 V2000
    5.3618   18.7136   73.9500 C   0  0  0  0  0
    5.4264   19.3100   72.5899 C   0  0  0  0  0
    6.5910   19.8187   72.0191 C   0  0  0  0  0
    6.1647   20.2499   70.7844 C   0  0  0  0  0
    4.8271   19.9943   70.6711 C   0  0  0  0  0
    4.1298   20.3352   69.5040 C   0  0  0  0  0
    6.1784   21.1899   68.5959 C   0  0  0  0  0
    6.8865   20.8523   69.7607 C   0  0  0  0  0
    2.6866   20.0823   69.3313 C   0  0  0  0  0
    0.6181   20.2971   67.8780 C   0  0  0  0  0
    0.3227   20.3472   66.3782 C   0  0  0  0  0
    0.6034   21.7283   65.7808 C   0  0  0  0  0
   -0.0948   22.8052   66.5553 C   0  0  0  0  0
   -0.1514   21.3720   68.5890 C   0  0  0  0  0
    4.3457   19.4103   71.7806 N   0  0  0  0  0
    4.8380   20.9284   68.4952 N   0  0  0  0  0
    2.0480   20.4608   68.1086 N   0  0  0  0  0
   -0.4573   22.5995   67.9232 N   0  0  0  0  0
    2.0168   19.5324   70.2476 O   0  0  0  0  0
   -0.3456   23.9067   66.0019 O   0  0  0  0  0
   -0.5193   21.1982   69.7797 O   0  0  0  0  0
  1  2  1  0  0  0
  3  4  1  0  0  0
  5 15  1  0  0  0
  5  6  1  0  0  0
  6  9  1  0  0  0
  7 16  1  0  0  0
  8  4  1  0  0  0
  9 17  1  0  0  0
 10 17  1  0  0  0
 10 11  1  0  0  0
 10 14  1  0  0  0
 11 12  1  0  0  0
 12 13  1  0  0  0
 13 18  1  0  0  0
 15  2  1  0  0  0
 18 14  1  0  0  0
  2  3  2  0  0  0
  4  5  2  0  0  0
  6 16  2  0  0  0
  7  8  2  0  0  0
  9 19  2  0  0  0
 13 20  2  0  0  0
 14 21  2  0  0  0
M  END
> <rmsd>
0.800695717

$$$$
PubChem-108121785


 20 21  0  0  0  0  0  0  0  0999 V2000
    6.2182   21.6437   67.1614 C   0  0  0  0  0
    4.4504   20.8499   68.2184 C   0  0  0  0  0
    3.8465   20.2075   69.4714 C   0  0  0  0  0
    4.5368   18.8482   69.6892 C   0  0  0  0  0
    4.3074   18.3070   71.1009 C   0  0  0  0  0
    3.9035   20.4504   72.0045 C   0  0  0  0  0
    4.1031   21.1518   70.6605 C   0  0  0  0  0
    2.3554   20.0079   69.2812 C   0  0  0  0  0
    0.2761   20.2923   67.8504 C   0  0  0  0  0
   -0.0365   20.3459   66.3542 C   0  0  0  0  0
    0.2949   21.7103   65.7442 C   0  0  0  0  0
   -0.3438   22.8215   66.5219 C   0  0  0  0  0
   -0.4393   21.4020   68.5637 C   0  0  0  0  0
    5.8268   21.0497   68.3600 O   0  0  0  0  0
    1.6692   19.4870   70.2035 O   0  0  0  0  0
   -0.5499   23.9311   65.9663 O   0  0  0  0  0
   -0.8016   21.2497   69.7591 O   0  0  0  0  0
    4.7674   19.2776   72.0886 N   0  0  0  0  0
    1.7143   20.4002   68.0611 N   0  0  0  0  0
   -0.6992   22.6385   67.8949 N   0  0  0  0  0
  1 14  1  0  0  0
  2 14  1  0  0  0
  2  3  1  0  0  0
  3  4  1  0  0  0
  3  8  1  0  0  0
  4  5  1  0  0  0
  5 18  1  0  0  0
  6 18  1  0  0  0
  6  7  1  0  0  0
  7  3  1  0  0  0
  8 19  1  0  0  0
  9 19  1  0  0  0
  9 10  1  0  0  0
  9 13  1  0  0  0
 10 11  1  0  0  0
 11 12  1  0  0  0
 12 20  1  0  0  0
 20 13  1  0  0  0
  8 15  2  0  0  0
 12 16  2  0  0  0
 13 17  2  0  0  0
M  END
> <rmsd>
0.826252341

$$$$
PubChem-138730561


 30 31  0  0  0  0  0  0  0  0999 V2000
   -1.6229   19.2350   70.0547 C   0  0  0  0  0
   -2.1062   19.8950   68.7790 C   0  0  0  0  0
   -3.5334   19.4667   68.5130 C   0  0  0  0  0
   -2.0568   21.4097   68.9289 C   0  0  0  0  0
   -0.7655   22.0181   68.3809 C   0  0  0  0  0
    0.4497   21.6251   69.1686 C   0  0  0  0  0
    2.7004   20.4692   69.2773 C   0  0  0  0  0
    3.7989   20.1173   68.2876 C   0  0  0  0  0
    5.8053   20.5316   69.1435 C   0  0  0  0  0
    5.9430   21.3204   70.4414 C   0  0  0  0  0
    4.6642   21.2564   71.2656 C   0  0  0  0  0
    3.3594   19.0448   71.3673 C   0  0  0  0  0
    2.4629   19.3221   70.2177 C   0  0  0  0  0
   -0.3547   22.7387   65.9971 C   0  0  0  0  0
    0.0512   23.3506   63.6490 C   0  0  0  0  0
    0.1653   22.6779   62.3275 C   0  0  0  0  0
    1.4057   22.2011   61.8897 C   0  0  0  0  0
    1.5086   21.5463   60.6585 C   0  0  0  0  0
    0.3704   21.3625   59.8671 C   0  0  0  0  0
   -0.8712   21.8310   60.3079 C   0  0  0  0  0
   -0.9745   22.4860   61.5392 C   0  0  0  0  0
    0.5555   21.9999   70.3674 O   0  0  0  0  0
    4.8043   21.0875   68.3394 O   0  0  0  0  0
    3.1769   17.9884   72.0282 O   0  0  0  0  0
    1.5037   18.5339   69.9942 O   0  0  0  0  0
   -0.2600   23.9449   66.3560 O   0  0  0  0  0
   -0.2087   22.3840   64.6566 O   0  0  0  0  0
    1.4878   20.8475   68.5633 N   0  0  0  0  0
    4.4444   19.9023   71.7519 N   0  0  0  0  0
   -0.6106   21.7193   66.9624 N   0  0  0  0  0
  1  2  1  0  0  0
  2  3  1  0  0  0
  2  4  1  0  0  0
  4  5  1  0  0  0
  5  6  1  0  0  0
  5 30  1  0  0  0
  6 28  1  0  0  0
  7 28  1  0  0  0
  7  8  1  0  0  0
  7 13  1  0  0  0
  8 23  1  0  0  0
  9 23  1  0  0  0
  9 10  1  0  0  0
 10 11  1  0  0  0
 11 29  1  0  0  0
 12 13  1  0  0  0
 14 27  1  0  0  0
 15 27  1  0  0  0
 15 16  1  0  0  0
 17 18  1  0  0  0
 19 20  1  0  0  0
 21 16  1  0  0  0
 29 12  1  0  0  0
 30 14  1  0  0  0
  6 22  2  0  0  0
 12 24  2  0  0  0
 13 25  2  0  0  0
 14 26  2  0  0  0
 16 17  2  0  0  0
 18 19  2  0  0  0
 20 21  2  0  0  0
M  END
> <rmsd>
0.754694939

$$$$
