MolPort-001-821-564 CSSS00160699562 LN00483098 MCULE-3820263020 PubChem-54679923


 27 29  0  0  0  0  0  0  0  0999 V2000
    1.9953   24.4264   64.8030 C   0  0  0  0  0
    0.8000   23.1589   66.5112 C   0  0  0  0  0
    0.7399   22.1919   67.5419 C   0  0  0  0  0
   -0.5386   21.8977   68.2446 C   0  0  0  0  0
   -5.0364   23.2539   69.7164 C   0  0  0  0  0
   -5.4855   21.9986   70.1436 C   0  0  0  0  0
   -6.7319   21.8736   70.7644 C   0  0  0  0  0
   -7.5305   23.0042   70.9611 C   0  0  0  0  0
   -7.0830   24.2598   70.5378 C   0  0  0  0  0
   -5.8366   24.3847   69.9171 C   0  0  0  0  0
    1.9205   21.5111   67.8968 C   0  0  0  0  0
    3.1180   21.7946   67.2334 C   0  0  0  0  0
    4.2995   21.1221   67.5785 C   0  0  0  0  0
    5.4939   21.4040   66.9132 C   0  0  0  0  0
    5.5174   22.3594   65.8963 C   0  0  0  0  0
    4.3466   23.0336   65.5438 C   0  0  0  0  0
    3.1333   22.7627   66.2043 C   0  0  0  0  0
    1.9799   23.4202   65.8656 N   0  0  0  0  0
   -1.7915   22.0873   67.5810 N   0  0  0  0  0
   -3.0117   21.8971   68.2457 N   0  0  0  0  0
   -0.2395   23.8017   66.1921 O   0  0  0  0  0
   -0.5273   21.4705   69.4311 O   0  0  0  0  0
   -3.5423   24.4560   67.8690 O   0  0  0  0  0
   -2.4527   23.8264   69.9790 O   0  0  0  0  0
    1.9049   20.5396   68.8964 O   0  0  0  0  0
   -3.4674   23.4139   68.9500 S   0  0  0  0  0
   -9.2308   22.8338   71.8042 Br  0  0  0  0  0
  1 18  1  0  0  0
  2  3  1  0  0  0
  3  4  1  0  0  0
  4 19  1  0  0  0
  6  7  1  0  0  0
  8 27  1  0  0  0
  8  9  1  0  0  0
 10  5  1  0  0  0
 11 25  1  0  0  0
 11 12  1  0  0  0
 13 14  1  0  0  0
 15 16  1  0  0  0
 17 18  1  0  0  0
 17 12  1  0  0  0
 18  2  1  0  0  0
 19 20  1  0  0  0
 26 20  1  0  0  0
 26  5  1  0  0  0
  2 21  2  0  0  0
  3 11  2  0  0  0
  4 22  2  0  0  0
  5  6  2  0  0  0
  7  8  2  0  0  0
  9 10  2  0  0  0
 12 13  2  0  0  0
 14 15  2  0  0  0
 16 17  2  0  0  0
 26 23  2  0  0  0
 26 24  2  0  0  0
M  END
> <rmsd>
0.611552358

$$$$
MolPort-001-821-564 CSSS00160699562 LN00483098 MCULE-3820263020 PubChem-54679923


 27 29  0  0  0  0  0  0  0  0999 V2000
    1.9939   24.4246   64.8022 C   0  0  0  0  0
    0.7986   23.1575   66.5104 C   0  0  0  0  0
    0.7390   22.1924   67.5427 C   0  0  0  0  0
   -0.5403   21.8963   68.2435 C   0  0  0  0  0
   -5.0457   23.2348   69.7013 C   0  0  0  0  0
   -6.1959   23.6865   69.0439 C   0  0  0  0  0
   -7.4498   23.5405   69.6445 C   0  0  0  0  0
   -7.5563   22.9403   70.9028 C   0  0  0  0  0
   -6.4093   22.4848   71.5597 C   0  0  0  0  0
   -5.1554   22.6310   70.9591 C   0  0  0  0  0
    1.9210   21.5159   67.9015 C   0  0  0  0  0
    3.1192   21.8019   67.2407 C   0  0  0  0  0
    4.3020   21.1341   67.5899 C   0  0  0  0  0
    5.4970   21.4180   66.9266 C   0  0  0  0  0
    5.5200   22.3711   65.9081 C   0  0  0  0  0
    4.3478   23.0413   65.5518 C   0  0  0  0  0
    3.1338   22.7679   66.2099 C   0  0  0  0  0
    1.9791   23.4209   65.8669 N   0  0  0  0  0
   -1.7924   22.0839   67.5777 N   0  0  0  0  0
   -3.0136   21.8909   68.2396 N   0  0  0  0  0
   -0.2422   23.7969   66.1880 O   0  0  0  0  0
   -0.5304   21.4688   69.4299 O   0  0  0  0  0
   -2.4646   23.8175   69.9833 O   0  0  0  0  0
   -3.5353   24.4627   67.8799 O   0  0  0  0  0
    1.9059   20.5460   68.9023 O   0  0  0  0  0
   -3.4719   23.4049   68.9465 S   0  0  0  0  0
   -9.2650   22.7413   71.7215 Br  0  0  0  0  0
  1 18  1  0  0  0
  2  3  1  0  0  0
  3  4  1  0  0  0
  4 19  1  0  0  0
  6  7  1  0  0  0
  8 27  1  0  0  0
  8  9  1  0  0  0
 10  5  1  0  0  0
 11 25  1  0  0  0
 11 12  1  0  0  0
 13 14  1  0  0  0
 15 16  1  0  0  0
 17 18  1  0  0  0
 17 12  1  0  0  0
 18  2  1  0  0  0
 19 20  1  0  0  0
 26 20  1  0  0  0
 26  5  1  0  0  0
  2 21  2  0  0  0
  3 11  2  0  0  0
  4 22  2  0  0  0
  5  6  2  0  0  0
  7  8  2  0  0  0
  9 10  2  0  0  0
 12 13  2  0  0  0
 14 15  2  0  0  0
 16 17  2  0  0  0
 26 23  2  0  0  0
 26 24  2  0  0  0
M  END
> <rmsd>
0.614674568

$$$$
MolPort-002-839-089 2181060 CSSS00121636159 LN01231237 MCULE-9893363042 PubChem-1817279 ZINC000002181060 ZINC02181060


 26 28  0  0  0  0  0  0  0  0999 V2000
   -5.2897   22.4799   68.5544 C   0  0  0  0  0
   -2.9560   22.8334   67.6727 C   0  0  0  0  0
   -0.5491   23.0137   66.8699 C   0  0  0  0  0
    0.7680   22.3294   66.7404 C   0  0  0  0  0
    0.9159   21.6438   69.2868 C   0  0  0  0  0
   -0.8237   21.3879   70.8308 C   0  0  0  0  0
   -0.5682   20.0432   70.9564 C   0  0  0  0  0
   -1.4337   19.3821   71.8350 C   0  0  0  0  0
   -2.3743   20.2606   72.3872 C   0  0  0  0  0
   -3.4283   19.8783   73.3440 C   0  0  0  0  0
   -4.3258   20.8393   73.8322 C   0  0  0  0  0
   -5.3263   20.4771   74.7389 C   0  0  0  0  0
   -5.4367   19.1507   75.1645 C   0  0  0  0  0
   -4.5471   18.1865   74.6835 C   0  0  0  0  0
   -3.5468   18.5489   73.7767 C   0  0  0  0  0
    0.4795   19.4919   70.2209 C   0  0  0  0  0
   -3.9711   21.9814   68.2022 N   0  0  0  0  0
   -1.6716   22.2799   67.3715 N   0  0  0  0  0
   -0.1011   22.1868   70.0151 N   0  0  0  0  0
    1.2100   20.3049   69.3944 N   0  0  0  0  0
    2.2618   19.7593   68.6446 N   0  0  0  0  0
   -3.1900   24.0585   67.4856 O   0  0  0  0  0
   -0.6503   24.2328   66.5685 O   0  0  0  0  0
    0.7466   18.2624   70.3134 O   0  0  0  0  0
    1.8355   22.7085   68.1688 S   0  0  0  0  0
   -2.1245   21.8302   71.7856 S   0  0  0  0  0
  1 17  1  0  0  0
  2 18  1  0  0  0
  4  3  1  0  0  0
  4 25  1  0  0  0
  5 25  1  0  0  0
  6 19  1  0  0  0
  6 26  1  0  0  0
  7  8  1  0  0  0
  7 16  1  0  0  0
  9 26  1  0  0  0
  9 10  1  0  0  0
 11 12  1  0  0  0
 13 14  1  0  0  0
 15 10  1  0  0  0
 16 20  1  0  0  0
 17  2  1  0  0  0
 18  3  1  0  0  0
 20 21  1  0  0  0
 20  5  1  0  0  0
  2 22  2  0  0  0
  3 23  2  0  0  0
  5 19  2  0  0  0
  6  7  2  0  0  0
  8  9  2  0  0  0
 10 11  2  0  0  0
 12 13  2  0  0  0
 14 15  2  0  0  0
 16 24  2  0  0  0
M  END
> <rmsd>
0.62402004

$$$$
MolPort-002-839-089 2181060 CSSS00121636159 LN01231237 MCULE-9893363042 PubChem-1817279 ZINC000002181060 ZINC02181060


 26 28  0  0  0  0  0  0  0  0999 V2000
   -5.2897   22.4796   68.5544 C   0  0  0  0  0
   -2.9560   22.8334   67.6726 C   0  0  0  0  0
   -0.5491   23.0139   66.8698 C   0  0  0  0  0
    0.7681   22.3297   66.7403 C   0  0  0  0  0
    0.9159   21.6439   69.2866 C   0  0  0  0  0
   -0.8237   21.3879   70.8306 C   0  0  0  0  0
   -0.5681   20.0431   70.9561 C   0  0  0  0  0
   -1.4337   19.3820   71.8348 C   0  0  0  0  0
   -2.3742   20.2605   72.3871 C   0  0  0  0  0
   -3.4283   19.8782   73.3438 C   0  0  0  0  0
   -3.5467   18.5487   73.7764 C   0  0  0  0  0
   -4.5470   18.1862   74.6833 C   0  0  0  0  0
   -5.4366   19.1505   75.1643 C   0  0  0  0  0
   -5.3262   20.4768   74.7387 C   0  0  0  0  0
   -4.3258   20.8391   73.8320 C   0  0  0  0  0
    0.4796   19.4920   70.2207 C   0  0  0  0  0
   -3.9711   21.9813   68.2021 N   0  0  0  0  0
   -1.6715   22.2799   67.3715 N   0  0  0  0  0
   -0.1010   22.1868   70.0150 N   0  0  0  0  0
    1.2101   20.3050   69.3942 N   0  0  0  0  0
    2.2618   19.7594   68.6444 N   0  0  0  0  0
   -3.1899   24.0586   67.4857 O   0  0  0  0  0
   -0.6504   24.2329   66.5687 O   0  0  0  0  0
    0.7467   18.2625   70.3131 O   0  0  0  0  0
    1.8355   22.7086   68.1687 S   0  0  0  0  0
   -2.1245   21.8301   71.7855 S   0  0  0  0  0
  1 17  1  0  0  0
  2 18  1  0  0  0
  4  3  1  0  0  0
  4 25  1  0  0  0
  5 25  1  0  0  0
  6 19  1  0  0  0
  6 26  1  0  0  0
  7  8  1  0  0  0
  7 16  1  0  0  0
  9 26  1  0  0  0
  9 10  1  0  0  0
 11 12  1  0  0  0
 13 14  1  0  0  0
 15 10  1  0  0  0
 16 20  1  0  0  0
 17  2  1  0  0  0
 18  3  1  0  0  0
 20 21  1  0  0  0
 20  5  1  0  0  0
  2 22  2  0  0  0
  3 23  2  0  0  0
  5 19  2  0  0  0
  6  7  2  0  0  0
  8  9  2  0  0  0
 10 11  2  0  0  0
 12 13  2  0  0  0
 14 15  2  0  0  0
 16 24  2  0  0  0
M  END
> <rmsd>
0.624012709

$$$$
MolPort-009-014-909 MCULE-4429434942 PubChem-135878272


 24 25  0  0  0  0  0  0  0  0999 V2000
   -5.2026   22.3901   68.5929 C   0  0  0  0  0
   -2.8943   22.8051   67.6719 C   0  0  0  0  0
   -0.5313   23.0373   66.7617 C   0  0  0  0  0
    0.7708   22.3645   66.4979 C   0  0  0  0  0
    1.2646   21.4780   68.9221 C   0  0  0  0  0
    0.1878   19.6044   70.5936 C   0  0  0  0  0
   -0.4169   18.6014   71.5258 C   0  0  0  0  0
    0.0320   18.8414   72.9344 C   0  0  0  0  0
    1.1606   18.1911   73.4726 C   0  0  0  0  0
    1.9483   17.2057   72.6780 C   0  0  0  0  0
    1.5552   18.4597   74.7874 C   0  0  0  0  0
    0.8387   19.3715   75.5667 C   0  0  0  0  0
   -0.2788   20.0185   75.0346 C   0  0  0  0  0
   -0.6799   19.7544   73.7227 C   0  0  0  0  0
    1.1790   19.2455   69.6726 C   0  0  0  0  0
   -3.8846   21.9225   68.1983 N   0  0  0  0  0
   -1.6144   22.2776   67.3091 N   0  0  0  0  0
    0.3045   21.8158   69.8211 N   0  0  0  0  0
   -0.2210   20.8996   70.6349 N   0  0  0  0  0
    1.6991   20.1944   68.8539 N   0  0  0  0  0
   -3.1478   24.0330   67.5354 O   0  0  0  0  0
   -0.6560   24.2675   66.5203 O   0  0  0  0  0
    1.5901   18.0575   69.5924 O   0  0  0  0  0
    1.9541   22.7199   67.8350 S   0  0  0  0  0
  1 16  1  0  0  0
  2 17  1  0  0  0
  4  3  1  0  0  0
  4 24  1  0  0  0
  5 24  1  0  0  0
  6 15  1  0  0  0
  7  6  1  0  0  0
  7  8  1  0  0  0
  9 11  1  0  0  0
 10  9  1  0  0  0
 12 13  1  0  0  0
 14  8  1  0  0  0
 15 20  1  0  0  0
 16  2  1  0  0  0
 17  3  1  0  0  0
 18 19  1  0  0  0
 20  5  1  0  0  0
  2 21  2  0  0  0
  3 22  2  0  0  0
  5 18  2  0  0  0
  6 19  2  0  0  0
  8  9  2  0  0  0
 11 12  2  0  0  0
 13 14  2  0  0  0
 15 23  2  0  0  0
M  END
> <rmsd>
0.585413396

$$$$
Molport-047-047-662 643569413 MCULE-2820100257 PubChem-133076186


 38 40  0  0  0  0  0  0  0  0999 V2000
    3.6089   18.5616   69.7809 C   0  0  0  0  0
    2.4218   19.5012   69.8336 C   0  0  0  0  0
    2.7834   20.7901   70.5091 C   0  0  0  0  0
    0.6119   20.8075   71.7725 C   0  0  0  0  0
   -0.3862   21.9329   71.5289 C   0  0  0  0  0
    0.1062   23.6905   69.8530 C   0  0  0  0  0
    0.5711   24.5598   70.8558 C   0  0  0  0  0
    0.9908   25.8539   70.5465 C   0  0  0  0  0
    0.9494   26.3003   69.2295 C   0  0  0  0  0
    0.4810   25.4538   68.2240 C   0  0  0  0  0
    0.0553   24.1461   68.5142 C   0  0  0  0  0
   -0.4671   23.3184   67.3996 C   0  0  0  0  0
   -1.3763   21.1152   66.5518 C   0  0  0  0  0
   -1.1221   19.6324   66.7627 C   0  0  0  0  0
    0.3527   19.3045   66.5744 C   0  0  0  0  0
    0.9447   18.9096   67.8812 C   0  0  0  0  0
   -2.8465   21.3908   66.6115 C   0  0  0  0  0
   -4.7881   22.3367   67.9542 C   0  0  0  0  0
   -4.8194   23.7489   67.3789 C   0  0  0  0  0
   -3.8720   25.6019   68.7280 C   0  0  0  0  0
   -5.1066   25.8943   69.3331 C   0  0  0  0  0
   -5.2246   26.9863   70.2001 C   0  0  0  0  0
   -4.1155   27.7973   70.4706 C   0  0  0  0  0
   -2.8796   27.5050   69.8646 C   0  0  0  0  0
   -2.7609   26.4109   69.0007 C   0  0  0  0  0
   -3.2033   29.7538   71.6691 C   0  0  0  0  0
    2.5294   22.2490   72.5294 C   0  0  0  0  0
    3.7979   21.4484   70.1232 O   0  0  0  0  0
   -0.3054   22.3918   70.1820 O   0  0  0  0  0
   -0.7321   23.8637   66.2903 O   0  0  0  0  0
    0.5737   17.8427   68.4445 O   0  0  0  0  0
   -3.5416   21.3055   65.5619 O   0  0  0  0  0
   -3.7188   24.5096   67.8706 O   0  0  0  0  0
   -4.2694   28.8786   71.3394 O   0  0  0  0  0
    1.9800   21.2831   71.5898 N   0  0  0  0  0
   -0.6731   21.9098   67.5559 N   0  0  0  0  0
    1.9167   19.7596   68.4954 N   0  0  0  0  0
   -3.4489   21.7707   67.8548 N   0  0  0  0  0
  2  1  1  0  0  0
  2  3  1  0  0  0
  2 37  1  0  0  0
  3 35  1  0  0  0
  4 35  1  0  0  0
  4  5  1  0  0  0
  5 29  1  0  0  0
  6 29  1  0  0  0
  7  8  1  0  0  0
  9 10  1  0  0  0
 11 12  1  0  0  0
 11  6  1  0  0  0
 12 36  1  0  0  0
 13 36  1  0  0  0
 13 14  1  0  0  0
 13 17  1  0  0  0
 14 15  1  0  0  0
 15 16  1  0  0  0
 16 37  1  0  0  0
 17 38  1  0  0  0
 18 38  1  0  0  0
 18 19  1  0  0  0
 19 33  1  0  0  0
 20 33  1  0  0  0
 21 22  1  0  0  0
 23 24  1  0  0  0
 23 34  1  0  0  0
 25 20  1  0  0  0
 26 34  1  0  0  0
 27 35  1  0  0  0
  3 28  2  0  0  0
  6  7  2  0  0  0
  8  9  2  0  0  0
 10 11  2  0  0  0
 12 30  2  0  0  0
 16 31  2  0  0  0
 17 32  2  0  0  0
 20 21  2  0  0  0
 22 23  2  0  0  0
 24 25  2  0  0  0
M  END
> <rmsd>
0.538241327

$$$$
Molport-047-045-667 643567824 MCULE-5272600228 PubChem-133075383


 36 38  0  0  0  0  0  0  0  0999 V2000
   -4.0906   21.9073   64.7954 C   0  0  0  0  0
   -2.8188   21.5695   65.5527 C   0  0  0  0  0
   -2.3778   22.7494   66.4190 C   0  0  0  0  0
   -3.3573   23.0181   67.5163 C   0  0  0  0  0
   -4.4793   22.2730   69.6485 C   0  0  0  0  0
   -4.5539   21.0337   70.5224 C   0  0  0  0  0
   -3.3845   20.9626   71.4927 C   0  0  0  0  0
   -1.4959   19.4530   70.9495 C   0  0  0  0  0
   -2.1051   18.3827   71.6275 C   0  0  0  0  0
   -1.4598   17.1514   71.7447 C   0  0  0  0  0
   -0.1966   16.9725   71.1836 C   0  0  0  0  0
    0.4241   18.0282   70.5144 C   0  0  0  0  0
   -0.2059   19.2769   70.3936 C   0  0  0  0  0
    0.5242   20.3684   69.7095 C   0  0  0  0  0
    2.5899   21.0144   68.2900 C   0  0  0  0  0
    1.9124   21.7991   67.1606 C   0  0  0  0  0
    1.2842   23.1086   67.6146 C   0  0  0  0  0
    0.0312   23.3672   66.8580 C   0  0  0  0  0
    3.4172   21.8115   69.2620 C   0  0  0  0  0
    5.7032   22.5014   70.0960 C   0  0  0  0  0
    7.1172   22.0284   69.8183 C   0  0  0  0  0
    7.0349   21.1276   68.5930 C   0  0  0  0  0
    5.5751   20.7330   68.4469 C   0  0  0  0  0
    5.3743   19.3054   68.9340 C   0  0  0  0  0
    6.0442   17.2145   68.7223 C   0  0  0  0  0
   -3.9778   24.1144   67.5390 O   0  0  0  0  0
   -2.1730   20.6709   70.8037 O   0  0  0  0  0
    0.1320   21.5610   69.8132 O   0  0  0  0  0
   -0.0544   24.3822   66.1166 O   0  0  0  0  0
    2.8561   22.6113   70.0590 O   0  0  0  0  0
    5.9136   18.4076   68.0127 O   0  0  0  0  0
   -1.8188   21.2500   64.6324 O   0  0  0  0  0
   -3.5726   22.0407   68.5364 N   0  0  0  0  0
    1.7006   20.0587   68.9483 N   0  0  0  0  0
   -1.0756   22.4786   67.0084 N   0  0  0  0  0
    4.8421   21.6508   69.2992 N   0  0  0  0  0
  2  1  1  0  0  0
  2  3  1  0  0  0
  2 32  1  0  0  0
  3  4  1  0  0  0
  3 35  1  0  0  0
  4 33  1  0  0  0
  5 33  1  0  0  0
  5  6  1  0  0  0
  6  7  1  0  0  0
  7 27  1  0  0  0
  8 27  1  0  0  0
  9 10  1  0  0  0
 11 12  1  0  0  0
 13 14  1  0  0  0
 13  8  1  0  0  0
 14 34  1  0  0  0
 15 34  1  0  0  0
 15 16  1  0  0  0
 15 19  1  0  0  0
 16 17  1  0  0  0
 17 18  1  0  0  0
 18 35  1  0  0  0
 19 36  1  0  0  0
 20 36  1  0  0  0
 20 21  1  0  0  0
 21 22  1  0  0  0
 22 23  1  0  0  0
 23 24  1  0  0  0
 23 36  1  0  0  0
 24 31  1  0  0  0
 25 31  1  0  0  0
  4 26  2  0  0  0
  8  9  2  0  0  0
 10 11  2  0  0  0
 12 13  2  0  0  0
 14 28  2  0  0  0
 18 29  2  0  0  0
 19 30  2  0  0  0
M  END
> <rmsd>
0.489818037

$$$$
MolPort-009-014-921 36646152 CSSS00121615924 LN01233729 MCULE-1253191730 PubChem-44216578 ZINC000036646152 ZINC36646152


 26 28  0  0  0  0  0  0  0  0999 V2000
   -5.2740   22.4761   68.5771 C   0  0  0  0  0
   -2.9488   22.8322   67.6738 C   0  0  0  0  0
   -0.5447   23.0175   66.8634 C   0  0  0  0  0
    0.7751   22.3373   66.7373 C   0  0  0  0  0
    0.9070   21.6448   69.2831 C   0  0  0  0  0
   -0.8632   21.3978   70.8137 C   0  0  0  0  0
   -0.5884   20.0545   70.9240 C   0  0  0  0  0
   -2.5257   20.7820   72.2921 C   0  0  0  0  0
   -1.9503   21.8352   71.5725 C   0  0  0  0  0
   -3.6940   20.9043   73.1822 C   0  0  0  0  0
   -4.1912   19.7811   73.8590 C   0  0  0  0  0
   -5.3006   19.8965   74.7017 C   0  0  0  0  0
   -5.9216   21.1365   74.8735 C   0  0  0  0  0
   -5.4334   22.2610   74.2028 C   0  0  0  0  0
   -4.3240   22.1454   73.3603 C   0  0  0  0  0
    0.4607   19.4942   70.2070 C   0  0  0  0  0
   -3.9592   21.9786   68.2098 N   0  0  0  0  0
   -1.6657   22.2804   67.3637 N   0  0  0  0  0
   -0.1194   22.1864   70.0027 N   0  0  0  0  0
    1.2012   20.3056   69.3902 N   0  0  0  0  0
    2.2601   19.7604   68.6504 N   0  0  0  0  0
   -3.1851   24.0575   67.4904 O   0  0  0  0  0
   -0.6490   24.2364   66.5622 O   0  0  0  0  0
    0.7196   18.2641   70.3053 O   0  0  0  0  0
    1.8341   22.7116   68.1736 S   0  0  0  0  0
   -1.6833   19.3409   71.9754 S   0  0  0  0  0
  1 17  1  0  0  0
  2 18  1  0  0  0
  4  3  1  0  0  0
  4 25  1  0  0  0
  5 25  1  0  0  0
  6 19  1  0  0  0
  7 26  1  0  0  0
  7 16  1  0  0  0
  8 26  1  0  0  0
  8 10  1  0  0  0
  9  6  1  0  0  0
 11 12  1  0  0  0
 13 14  1  0  0  0
 15 10  1  0  0  0
 16 20  1  0  0  0
 17  2  1  0  0  0
 18  3  1  0  0  0
 20 21  1  0  0  0
 20  5  1  0  0  0
  2 22  2  0  0  0
  3 23  2  0  0  0
  5 19  2  0  0  0
  6  7  2  0  0  0
  8  9  2  0  0  0
 10 11  2  0  0  0
 12 13  2  0  0  0
 14 15  2  0  0  0
 16 24  2  0  0  0
M  END
> <rmsd>
0.620145261

$$$$
MolPort-009-014-921 36646152 CSSS00121615924 LN01233729 MCULE-1253191730 PubChem-44216578 ZINC000036646152 ZINC36646152


 26 28  0  0  0  0  0  0  0  0999 V2000
   -5.2717   22.4668   68.5737 C   0  0  0  0  0
   -2.9455   22.8257   67.6739 C   0  0  0  0  0
   -0.5457   23.0092   66.8509 C   0  0  0  0  0
    0.7744   22.3289   66.7271 C   0  0  0  0  0
    0.9023   21.6548   69.2778 C   0  0  0  0  0
   -0.8738   21.4240   70.8040 C   0  0  0  0  0
   -0.6015   20.0813   70.9273 C   0  0  0  0  0
   -2.5430   20.8237   72.2811 C   0  0  0  0  0
   -1.9633   21.8696   71.5545 C   0  0  0  0  0
   -3.7150   20.9556   73.1648 C   0  0  0  0  0
   -4.3457   22.1984   73.3268 C   0  0  0  0  0
   -5.4591   22.3232   74.1629 C   0  0  0  0  0
   -5.9506   21.2059   74.8432 C   0  0  0  0  0
   -5.3288   19.9642   74.6875 C   0  0  0  0  0
   -4.2155   19.8397   73.8512 C   0  0  0  0  0
    0.4497   19.5131   70.2194 C   0  0  0  0  0
   -3.9635   21.9668   68.1867 N   0  0  0  0  0
   -1.6683   22.2708   67.3456 N   0  0  0  0  0
   -0.1255   22.2043   69.9892 N   0  0  0  0  0
    1.1936   20.3160   69.3973 N   0  0  0  0  0
    2.2541   19.7625   68.6662 N   0  0  0  0  0
   -3.1692   24.0582   67.5289 O   0  0  0  0  0
   -0.6493   24.2285   66.5515 O   0  0  0  0  0
    0.7073   18.2839   70.3306 O   0  0  0  0  0
    1.8339   22.7100   68.1612 S   0  0  0  0  0
   -1.7013   19.3788   71.9808 S   0  0  0  0  0
  1 17  1  0  0  0
  2 18  1  0  0  0
  4  3  1  0  0  0
  4 25  1  0  0  0
  5 25  1  0  0  0
  6 19  1  0  0  0
  7 26  1  0  0  0
  7 16  1  0  0  0
  8 26  1  0  0  0
  8 10  1  0  0  0
  9  6  1  0  0  0
 11 12  1  0  0  0
 13 14  1  0  0  0
 15 10  1  0  0  0
 16 20  1  0  0  0
 17  2  1  0  0  0
 18  3  1  0  0  0
 20 21  1  0  0  0
 20  5  1  0  0  0
  2 22  2  0  0  0
  3 23  2  0  0  0
  5 19  2  0  0  0
  6  7  2  0  0  0
  8  9  2  0  0  0
 10 11  2  0  0  0
 12 13  2  0  0  0
 14 15  2  0  0  0
 16 24  2  0  0  0
M  END
> <rmsd>
0.617365599

$$$$
MolPort-046-754-700 1772713059 CSSS00159989792 MCULE-4076660177 PubChem-137343906 ZINC001772713059


 38 40  0  0  0  0  0  0  0  0999 V2000
    2.9109   23.7522   66.9041 C   0  0  0  0  0
    2.5054   23.8896   68.3611 C   0  0  0  0  0
    1.1838   24.6214   68.4929 C   0  0  0  0  0
    2.4928   22.5440   69.0885 C   0  0  0  0  0
    1.6678   21.4537   68.4006 C   0  0  0  0  0
    1.7662   18.8939   68.3115 C   0  0  0  0  0
    0.7531   18.7953   67.2130 C   0  0  0  0  0
   -0.3172   17.7632   67.5425 C   0  0  0  0  0
   -1.2886   18.3010   68.5802 C   0  0  0  0  0
   -3.5337   17.6475   68.0431 C   0  0  0  0  0
   -3.9326   17.3104   69.4831 C   0  0  0  0  0
   -3.1154   16.1374   69.9876 C   0  0  0  0  0
   -5.4001   16.9398   69.5186 C   0  0  0  0  0
   -2.9984   19.9256   68.5970 C   0  0  0  0  0
   -3.8984   20.7135   67.6635 C   0  0  0  0  0
   -3.7354   23.2170   67.3882 C   0  0  0  0  0
   -3.3023   23.0770   65.9615 C   0  0  0  0  0
   -0.8027   25.4565   65.1852 C   0  0  0  0  0
   -0.3493   26.7948   64.7772 C   0  0  0  0  0
    1.0207   27.0779   64.6827 C   0  0  0  0  0
    1.4533   28.3507   64.2997 C   0  0  0  0  0
    0.5186   29.3484   64.0094 C   0  0  0  0  0
   -0.8486   29.0734   64.1021 C   0  0  0  0  0
   -1.2814   27.8003   64.4850 C   0  0  0  0  0
   -0.8124   23.4500   65.8105 C   0  0  0  0  0
   -0.3511   22.1036   66.2756 C   0  0  0  0  0
   -0.9347   21.0061   65.4054 C   0  0  0  0  0
    0.2056   21.6184   68.7038 C   0  0  0  0  0
    2.1429   20.1566   68.8690 N   0  0  0  0  0
   -2.5273   18.7153   67.9342 N   0  0  0  0  0
   -4.0597   22.0661   68.1709 N   0  0  0  0  0
   -2.0950   23.8509   65.7025 N   0  0  0  0  0
   -2.1010   25.1114   65.3118 N   0  0  0  0  0
    0.0393   24.4419   65.4893 N   0  0  0  0  0
   -0.7344   21.8990   67.6640 N   0  0  0  0  0
    2.3268   17.8482   68.7333 O   0  0  0  0  0
   -3.8661   24.3632   67.8922 O   0  0  0  0  0
   -0.2049   21.5052   69.8893 O   0  0  0  0  0
  1  2  1  0  0  0
  2  3  1  0  0  0
  2  4  1  0  0  0
  5  4  1  0  0  0
  5 29  1  0  0  0
  5 28  1  0  0  0
  7  6  1  0  0  0
  7  8  1  0  0  0
  8  9  1  0  0  0
  9 30  1  0  0  0
 10 30  1  0  0  0
 10 11  1  0  0  0
 11 12  1  0  0  0
 11 13  1  0  0  0
 14 30  1  0  0  0
 14 15  1  0  0  0
 15 31  1  0  0  0
 17 16  1  0  0  0
 17 32  1  0  0  0
 18 19  1  0  0  0
 18 34  1  0  0  0
 20 21  1  0  0  0
 22 23  1  0  0  0
 24 19  1  0  0  0
 25 32  1  0  0  0
 26 25  1  0  0  0
 26 27  1  0  0  0
 26 35  1  0  0  0
 29  6  1  0  0  0
 31 16  1  0  0  0
 32 33  1  0  0  0
 35 28  1  0  0  0
  6 36  2  0  0  0
 16 37  2  0  0  0
 18 33  2  0  0  0
 19 20  2  0  0  0
 21 22  2  0  0  0
 23 24  2  0  0  0
 25 34  2  0  0  0
 28 38  2  0  0  0
M  END
> <rmsd>
0.441618025

$$$$
MolPort-051-706-330 MCULE-8049727372


 34 35  0  0  0  0  0  0  0  0999 V2000
   -6.9073   22.0447   64.1564 C   0  0  0  0  0
   -6.7368   22.2477   65.6468 C   0  0  0  0  0
   -7.1322   23.6679   66.0040 C   0  0  0  0  0
   -5.2856   21.9957   66.0248 C   0  0  0  0  0
   -5.1243   21.8353   67.5324 C   0  0  0  0  0
   -3.0534   23.2632   67.8952 C   0  0  0  0  0
   -1.5885   23.3278   68.2272 C   0  0  0  0  0
   -0.0592   21.3857   68.7766 C   0  0  0  0  0
    0.4726   20.0451   68.3838 C   0  0  0  0  0
   -0.3815   18.9622   69.0139 C   0  0  0  0  0
   -0.3508   17.7072   68.1579 C   0  0  0  0  0
   -1.4892   16.7792   68.5477 C   0  0  0  0  0
   -2.8147   17.3883   68.1298 C   0  0  0  0  0
   -5.2714   17.0297   68.7078 C   0  0  0  0  0
   -5.6588   18.4310   68.4377 C   0  0  0  0  0
   -6.9321   18.9490   68.5861 C   0  0  0  0  0
   -5.6033   20.4834   67.9613 C   0  0  0  0  0
    2.9376   20.5757   68.1531 C   0  0  0  0  0
    4.3287   20.3879   68.6611 C   0  0  0  0  0
    5.2151   19.7947   67.5827 C   0  0  0  0  0
    4.9048   21.7081   69.1356 C   0  0  0  0  0
   -0.8947   24.5000   67.5271 C   0  0  0  0  0
    0.4868   24.7344   68.1077 C   0  0  0  0  0
   -3.7233   21.9990   67.8966 N   0  0  0  0  0
   -0.9398   22.0667   67.8836 N   0  0  0  0  0
   -3.9151   16.5740   68.6174 N   0  0  0  0  0
   -4.8112   19.3972   68.0373 N   0  0  0  0  0
    1.8618   19.8906   68.7974 N   0  0  0  0  0
   -3.7055   24.3230   67.6879 O   0  0  0  0  0
    0.2139   21.8774   69.9058 O   0  0  0  0  0
   -6.1598   16.2079   69.0563 O   0  0  0  0  0
   -6.8498   20.2224   68.2778 O   0  0  0  0  0
    2.7150   21.3310   67.1667 O   0  0  0  0  0
   -0.7972   24.2720   66.1525 O   0  0  0  0  0
  1  2  1  0  0  0
  2  3  1  0  0  0
  2  4  1  0  0  0
  5  4  1  0  0  0
  5 24  1  0  0  0
  5 17  1  0  0  0
  7  6  1  0  0  0
  7 25  1  0  0  0
  7 22  1  0  0  0
  9  8  1  0  0  0
  9 10  1  0  0  0
  9 28  1  0  0  0
 10 11  1  0  0  0
 11 12  1  0  0  0
 12 13  1  0  0  0
 13 26  1  0  0  0
 14 15  1  0  0  0
 15 27  1  0  0  0
 16 32  1  0  0  0
 17 32  1  0  0  0
 19 18  1  0  0  0
 19 20  1  0  0  0
 19 21  1  0  0  0
 22 23  1  0  0  0
 22 34  1  0  0  0
 24  6  1  0  0  0
 25  8  1  0  0  0
 26 14  1  0  0  0
 28 18  1  0  0  0
  6 29  2  0  0  0
  8 30  2  0  0  0
 14 31  2  0  0  0
 15 16  2  0  0  0
 17 27  2  0  0  0
 18 33  2  0  0  0
M  END
> <rmsd>
0.437464535

$$$$
MolPort-046-763-626 MolPort-047-945-838 CSSS06256040279 MCULE-1376694040 PubChem-131676367 PubChem-162639144


 34 37  0  0  0  0  0  0  0  0999 V2000
  -10.1960   23.1979   64.3164 C   0  0  0  0  0
  -10.3833   23.4020   66.7846 C   0  0  0  0  0
   -8.1022   23.4700   65.6699 C   0  0  0  0  0
   -5.9884   23.5368   64.5426 C   0  0  0  0  0
   -6.0528   23.7118   66.8648 C   0  0  0  0  0
   -7.4021   23.6124   66.8735 C   0  0  0  0  0
   -6.7242   23.7869   68.8851 C   0  0  0  0  0
   -4.2294   23.9117   68.6080 C   0  0  0  0  0
   -3.5952   22.5461   68.8045 C   0  0  0  0  0
   -2.1446   22.9061   68.6848 C   0  0  0  0  0
   -2.1410   24.1159   67.7480 C   0  0  0  0  0
   -1.7457   23.7924   66.3098 C   0  0  0  0  0
   -0.2375   21.2788   68.9848 C   0  0  0  0  0
    0.5530   20.1320   68.4515 C   0  0  0  0  0
    0.3291   18.8948   69.3110 C   0  0  0  0  0
    0.8321   17.6643   68.6321 C   0  0  0  0  0
    0.2262   17.2027   67.4571 C   0  0  0  0  0
    0.6954   16.0416   66.8360 C   0  0  0  0  0
    1.7685   15.3310   67.3846 C   0  0  0  0  0
    2.3689   15.7934   68.5675 C   0  0  0  0  0
    1.9000   16.9544   69.1888 C   0  0  0  0  0
    3.2969   13.3928   67.2261 C   0  0  0  0  0
   -9.5372   23.3572   65.6025 N   0  0  0  0  0
   -7.3558   23.4371   64.5220 N   0  0  0  0  0
   -5.3211   23.6746   65.7258 N   0  0  0  0  0
   -7.8578   23.6573   68.1406 N   0  0  0  0  0
   -5.6050   23.8302   68.1216 N   0  0  0  0  0
   -1.3279   21.7890   68.2187 N   0  0  0  0  0
    1.9661   20.4740   68.4202 N   0  0  0  0  0
   -3.4290   24.6897   67.7465 O   0  0  0  0  0
   -0.3593   23.6716   66.2124 O   0  0  0  0  0
    0.0477   21.7830   70.1055 O   0  0  0  0  0
    2.2150   14.1748   66.7390 O   0  0  0  0  0
   -3.9711   21.6743   67.7747 O   0  0  0  0  0
  1 23  1  0  0  0
  2 23  1  0  0  0
  4 24  1  0  0  0
  5 25  1  0  0  0
  6 26  1  0  0  0
  6  3  1  0  0  0
  7 27  1  0  0  0
  8 27  1  0  0  0
  8  9  1  0  0  0
  8 30  1  0  0  0
  9 10  1  0  0  0
  9 34  1  0  0  0
 10 11  1  0  0  0
 10 28  1  0  0  0
 11 30  1  0  0  0
 11 12  1  0  0  0
 12 31  1  0  0  0
 14 13  1  0  0  0
 14 15  1  0  0  0
 14 29  1  0  0  0
 15 16  1  0  0  0
 17 18  1  0  0  0
 19 20  1  0  0  0
 19 33  1  0  0  0
 21 16  1  0  0  0
 22 33  1  0  0  0
 23  3  1  0  0  0
 27  5  1  0  0  0
 28 13  1  0  0  0
  3 24  2  0  0  0
  4 25  2  0  0  0
  5  6  2  0  0  0
  7 26  2  0  0  0
 13 32  2  0  0  0
 16 17  2  0  0  0
 18 19  2  0  0  0
 20 21  2  0  0  0
M  END
> <rmsd>
0.603526592

$$$$
MolPort-019-938-916 71415897 CSSS00121609419 LN01209244 MCULE-2503472662 PubChem-53497700 ZINC000071415897 ZINC71415897


 27 29  0  0  0  0  0  0  0  0999 V2000
   -5.2919   22.4738   68.5460 C   0  0  0  0  0
   -2.9566   22.8311   67.6704 C   0  0  0  0  0
   -0.5495   23.0141   66.8687 C   0  0  0  0  0
    0.7672   22.3298   66.7349 C   0  0  0  0  0
    0.9135   21.6445   69.2816 C   0  0  0  0  0
   -0.8216   21.4038   70.8333 C   0  0  0  0  0
   -0.5944   20.0471   70.9498 C   0  0  0  0  0
   -1.4856   19.4220   71.8519 C   0  0  0  0  0
   -2.3753   20.3418   72.4260 C   0  0  0  0  0
   -3.4694   20.0232   73.3861 C   0  0  0  0  0
   -1.5305   17.9760   72.1419 C   0  0  0  0  0
   -1.4317   17.5201   73.4638 C   0  0  0  0  0
   -1.5033   16.1526   73.7446 C   0  0  0  0  0
   -1.6825   15.2342   72.7063 C   0  0  0  0  0
   -1.7938   15.6832   71.3875 C   0  0  0  0  0
   -1.7223   17.0507   71.1063 C   0  0  0  0  0
    0.4687   19.4953   70.2185 C   0  0  0  0  0
   -3.9718   21.9774   68.1968 N   0  0  0  0  0
   -1.6714   22.2789   67.3696 N   0  0  0  0  0
   -0.0902   22.1948   70.0185 N   0  0  0  0  0
    1.1988   20.3057   69.3891 N   0  0  0  0  0
    2.2512   19.7571   68.6420 N   0  0  0  0  0
   -3.1911   24.0564   67.4851 O   0  0  0  0  0
   -0.6509   24.2342   66.5714 O   0  0  0  0  0
    0.7655   18.2751   70.3288 O   0  0  0  0  0
    1.8377   22.7038   68.1623 S   0  0  0  0  0
   -2.0878   21.8899   71.8152 S   0  0  0  0  0
  1 18  1  0  0  0
  2 19  1  0  0  0
  4  3  1  0  0  0
  4 26  1  0  0  0
  5 26  1  0  0  0
  6 20  1  0  0  0
  6 27  1  0  0  0
  7  8  1  0  0  0
  7 17  1  0  0  0
  8 11  1  0  0  0
  9 27  1  0  0  0
 10  9  1  0  0  0
 12 13  1  0  0  0
 14 15  1  0  0  0
 16 11  1  0  0  0
 17 21  1  0  0  0
 18  2  1  0  0  0
 19  3  1  0  0  0
 21 22  1  0  0  0
 21  5  1  0  0  0
  2 23  2  0  0  0
  3 24  2  0  0  0
  5 20  2  0  0  0
  6  7  2  0  0  0
  8  9  2  0  0  0
 11 12  2  0  0  0
 13 14  2  0  0  0
 15 16  2  0  0  0
 17 25  2  0  0  0
M  END
> <rmsd>
0.624113083

$$$$
MolPort-019-938-916 71415897 CSSS00121609419 LN01209244 MCULE-2503472662 PubChem-53497700 ZINC000071415897 ZINC71415897


 27 29  0  0  0  0  0  0  0  0999 V2000
   -5.2910   22.4726   68.5418 C   0  0  0  0  0
   -2.9534   22.8289   67.6716 C   0  0  0  0  0
   -0.5448   23.0112   66.8751 C   0  0  0  0  0
    0.7724   22.3271   66.7450 C   0  0  0  0  0
    0.9233   21.6511   69.2943 C   0  0  0  0  0
   -0.8094   21.4098   70.8489 C   0  0  0  0  0
   -0.5559   20.0606   70.9950 C   0  0  0  0  0
   -1.4483   19.4342   71.8952 C   0  0  0  0  0
   -2.3937   20.3370   72.4038 C   0  0  0  0  0
   -3.4600   20.0254   73.3966 C   0  0  0  0  0
   -1.3984   18.0153   72.2965 C   0  0  0  0  0
   -2.5287   17.2006   72.1432 C   0  0  0  0  0
   -2.4936   15.8633   72.5488 C   0  0  0  0  0
   -1.3309   15.3356   73.1173 C   0  0  0  0  0
   -0.2044   16.1459   73.2838 C   0  0  0  0  0
   -0.2393   17.4833   72.8784 C   0  0  0  0  0
    0.4784   19.5010   70.2292 C   0  0  0  0  0
   -3.9699   21.9758   68.1969 N   0  0  0  0  0
   -1.6674   22.2766   67.3752 N   0  0  0  0  0
   -0.0885   22.1983   70.0224 N   0  0  0  0  0
    1.2079   20.3120   69.4000 N   0  0  0  0  0
    2.2459   19.7597   68.6357 N   0  0  0  0  0
   -3.1879   24.0538   67.4837 O   0  0  0  0  0
   -0.6461   24.2306   66.5748 O   0  0  0  0  0
    0.7264   18.2660   70.2808 O   0  0  0  0  0
    1.8426   22.7097   68.1703 S   0  0  0  0  0
   -2.1201   21.8814   71.7780 S   0  0  0  0  0
  1 18  1  0  0  0
  2 19  1  0  0  0
  4  3  1  0  0  0
  4 26  1  0  0  0
  5 26  1  0  0  0
  6 20  1  0  0  0
  6 27  1  0  0  0
  7  8  1  0  0  0
  7 17  1  0  0  0
  8 11  1  0  0  0
  9 27  1  0  0  0
 10  9  1  0  0  0
 12 13  1  0  0  0
 14 15  1  0  0  0
 16 11  1  0  0  0
 17 21  1  0  0  0
 18  2  1  0  0  0
 19  3  1  0  0  0
 21 22  1  0  0  0
 21  5  1  0  0  0
  2 23  2  0  0  0
  3 24  2  0  0  0
  5 20  2  0  0  0
  6  7  2  0  0  0
  8  9  2  0  0  0
 11 12  2  0  0  0
 13 14  2  0  0  0
 15 16  2  0  0  0
 17 25  2  0  0  0
M  END
> <rmsd>
0.623091519

$$$$
MolPort-046-754-446 1772713263 MCULE-4531210556 PubChem-137342756 ZINC001772713263


 38 40  0  0  0  0  0  0  0  0999 V2000
    1.6045   24.4908   68.6495 C   0  0  0  0  0
    2.8731   23.6853   68.4449 C   0  0  0  0  0
    3.2173   23.5898   66.9687 C   0  0  0  0  0
    2.7954   22.3081   69.1093 C   0  0  0  0  0
    1.8489   21.3301   68.4114 C   0  0  0  0  0
    1.7472   18.8236   68.0439 C   0  0  0  0  0
    2.1072   17.4440   68.4913 C   0  0  0  0  0
    3.5843   17.1978   68.2557 C   0  0  0  0  0
    0.4727   17.1875   70.4319 C   0  0  0  0  0
   -0.7214   17.4086   69.5625 C   0  0  0  0  0
   -2.3118   18.9868   68.8942 C   0  0  0  0  0
   -2.9292   20.3341   69.2026 C   0  0  0  0  0
   -3.7741   20.7969   68.0353 C   0  0  0  0  0
   -3.8743   23.2237   67.3267 C   0  0  0  0  0
   -3.2164   22.9269   66.0147 C   0  0  0  0  0
   -0.8367   25.4614   65.3498 C   0  0  0  0  0
   -0.4498   26.8251   64.9578 C   0  0  0  0  0
    0.9039   27.1842   64.8895 C   0  0  0  0  0
    1.2719   28.4799   64.5146 C   0  0  0  0  0
    0.2887   29.4243   64.2064 C   0  0  0  0  0
   -1.0628   29.0733   64.2739 C   0  0  0  0  0
   -1.4309   27.7776   64.6481 C   0  0  0  0  0
   -0.7510   23.4500   65.9529 C   0  0  0  0  0
   -0.2274   22.1249   66.4110 C   0  0  0  0  0
   -0.7933   20.9966   65.5679 C   0  0  0  0  0
    0.4207   21.5868   68.7980 C   0  0  0  0  0
    2.2229   19.9663   68.7630 N   0  0  0  0  0
    1.8014   17.2532   69.9040 N   0  0  0  0  0
   -1.3791   18.6433   69.9514 N   0  0  0  0  0
   -4.1739   22.1778   68.2531 N   0  0  0  0  0
   -2.0502   23.7783   65.8094 N   0  0  0  0  0
   -2.1162   25.0398   65.4271 N   0  0  0  0  0
    0.0523   24.4945   65.6746 N   0  0  0  0  0
   -0.5590   21.9196   67.8119 N   0  0  0  0  0
    1.0410   18.9678   67.0114 O   0  0  0  0  0
    0.3076   16.9487   71.6564 O   0  0  0  0  0
   -4.2181   24.4038   67.5984 O   0  0  0  0  0
    0.0731   21.4950   70.0052 O   0  0  0  0  0
  1  2  1  0  0  0
  2  3  1  0  0  0
  2  4  1  0  0  0
  5  4  1  0  0  0
  5 27  1  0  0  0
  5 26  1  0  0  0
  7  6  1  0  0  0
  7  8  1  0  0  0
  7 28  1  0  0  0
 10  9  1  0  0  0
 10 29  1  0  0  0
 11 29  1  0  0  0
 11 12  1  0  0  0
 12 13  1  0  0  0
 13 30  1  0  0  0
 15 14  1  0  0  0
 15 31  1  0  0  0
 16 17  1  0  0  0
 16 33  1  0  0  0
 18 19  1  0  0  0
 20 21  1  0  0  0
 22 17  1  0  0  0
 23 31  1  0  0  0
 24 23  1  0  0  0
 24 25  1  0  0  0
 24 34  1  0  0  0
 27  6  1  0  0  0
 28  9  1  0  0  0
 30 14  1  0  0  0
 31 32  1  0  0  0
 34 26  1  0  0  0
  6 35  2  0  0  0
  9 36  2  0  0  0
 14 37  2  0  0  0
 16 32  2  0  0  0
 17 18  2  0  0  0
 19 20  2  0  0  0
 21 22  2  0  0  0
 23 33  2  0  0  0
 26 38  2  0  0  0
M  END
> <rmsd>
0.539420187

$$$$
MolPort-009-015-893 CSSS00121616588 LN01217481 MCULE-1828741429 PubChem-25021007


 25 27  0  0  0  0  0  0  0  0999 V2000
   -5.2937   22.4792   68.5442 C   0  0  0  0  0
   -2.9568   22.8327   67.6710 C   0  0  0  0  0
   -0.5487   23.0125   66.8721 C   0  0  0  0  0
    0.7678   22.3272   66.7416 C   0  0  0  0  0
    0.9196   21.6446   69.2886 C   0  0  0  0  0
   -0.8152   21.3964   70.8410 C   0  0  0  0  0
   -0.5618   20.0463   70.9696 C   0  0  0  0  0
   -1.4381   19.4170   71.8675 C   0  0  0  0  0
   -2.3848   20.3006   72.3898 C   0  0  0  0  0
   -3.3922   19.9219   73.4303 C   0  0  0  0  0
   -3.5941   18.4038   73.4591 C   0  0  0  0  0
   -4.3919   18.0240   74.6882 C   0  0  0  0  0
   -2.2472   17.6751   73.4727 C   0  0  0  0  0
   -1.4709   17.9474   72.1798 C   0  0  0  0  0
    0.4847   19.4928   70.2251 C   0  0  0  0  0
   -3.9733   21.9810   68.1986 N   0  0  0  0  0
   -1.6714   22.2792   67.3740 N   0  0  0  0  0
   -0.0923   22.1900   70.0207 N   0  0  0  0  0
    1.2109   20.3056   69.3948 N   0  0  0  0  0
    2.2584   19.7591   68.6398 N   0  0  0  0  0
   -3.1907   24.0575   67.4813 O   0  0  0  0  0
   -0.6492   24.2316   66.5709 O   0  0  0  0  0
    0.7575   18.2644   70.3134 O   0  0  0  0  0
    1.8378   22.7075   68.1677 S   0  0  0  0  0
   -2.1158   21.8611   71.7982 S   0  0  0  0  0
  1 16  1  0  0  0
  2 17  1  0  0  0
  4  3  1  0  0  0
  4 24  1  0  0  0
  5 24  1  0  0  0
  6 18  1  0  0  0
  6 25  1  0  0  0
  7  8  1  0  0  0
  7 15  1  0  0  0
  9 25  1  0  0  0
 10  9  1  0  0  0
 10 11  1  0  0  0
 11 12  1  0  0  0
 11 13  1  0  0  0
 13 14  1  0  0  0
 14  8  1  0  0  0
 15 19  1  0  0  0
 16  2  1  0  0  0
 17  3  1  0  0  0
 19 20  1  0  0  0
 19  5  1  0  0  0
  2 21  2  0  0  0
  3 22  2  0  0  0
  5 18  2  0  0  0
  6  7  2  0  0  0
  8  9  2  0  0  0
 15 23  2  0  0  0
M  END
> <rmsd>
0.624801636

$$$$
MolPort-002-848-833 4671322 MCULE-4942562725 ZINC000004671322 ZINC04671322


 26 28  0  0  0  0  0  0  0  0999 V2000
    1.0614   17.4927   70.7748 C   0  0  0  0  0
    2.2329   17.6537   69.8673 C   0  0  0  0  0
    3.1869   16.6339   69.8172 C   0  0  0  0  0
    4.2974   16.7493   68.9809 C   0  0  0  0  0
    4.4637   17.8916   68.1974 C   0  0  0  0  0
    3.5154   18.9181   68.2312 C   0  0  0  0  0
    3.7917   20.1508   67.4394 C   0  0  0  0  0
    2.3727   18.7956   69.0555 C   0  0  0  0  0
    0.7574   20.4506   67.9981 C   0  0  0  0  0
   -0.0790   21.6399   68.1875 C   0  0  0  0  0
   -2.8200   23.1626   67.8213 C   0  0  0  0  0
   -3.3756   25.4283   67.4326 C   0  0  0  0  0
   -4.2769   26.4881   67.5696 C   0  0  0  0  0
   -3.9651   27.7438   67.0393 C   0  0  0  0  0
   -2.7535   27.9417   66.3697 C   0  0  0  0  0
   -1.8492   26.8846   66.2289 C   0  0  0  0  0
   -2.1556   25.6228   66.7599 C   0  0  0  0  0
   -1.2792   24.5359   66.6448 C   0  0  0  0  0
    1.3807   19.8316   69.1294 N   0  0  0  0  0
   -0.7141   22.2530   67.0608 N   0  0  0  0  0
   -1.6119   23.3285   67.1928 N   0  0  0  0  0
   -3.6796   24.2081   67.9365 N   0  0  0  0  0
    0.8924   19.9570   66.8459 O   0  0  0  0  0
   -0.2231   22.1300   69.3398 O   0  0  0  0  0
   -0.1774   24.6737   66.0431 O   0  0  0  0  0
   -3.3416   21.5633   68.4468 S   0  0  0  0  0
  1  2  1  0  0  0
  3  4  1  0  0  0
  5  6  1  0  0  0
  7  6  1  0  0  0
  8 19  1  0  0  0
  8  2  1  0  0  0
  9 10  1  0  0  0
 10 20  1  0  0  0
 11 26  1  0  0  0
 12 22  1  0  0  0
 13 14  1  0  0  0
 15 16  1  0  0  0
 17 18  1  0  0  0
 17 12  1  0  0  0
 18 21  1  0  0  0
 19  9  1  0  0  0
 20 21  1  0  0  0
 21 11  1  0  0  0
  2  3  2  0  0  0
  4  5  2  0  0  0
  6  8  2  0  0  0
  9 23  2  0  0  0
 10 24  2  0  0  0
 11 22  2  0  0  0
 12 13  2  0  0  0
 14 15  2  0  0  0
 16 17  2  0  0  0
 18 25  2  0  0  0
M  END
> <rmsd>
0.530261099

$$$$
MolPort-002-848-833 4671322 MCULE-4942562725 ZINC000004671322 ZINC04671322


 26 28  0  0  0  0  0  0  0  0999 V2000
    3.7916   20.1510   67.4395 C   0  0  0  0  0
    3.5154   18.9184   68.2314 C   0  0  0  0  0
    4.4637   17.8919   68.1977 C   0  0  0  0  0
    4.2974   16.7496   68.9813 C   0  0  0  0  0
    3.1869   16.6343   69.8176 C   0  0  0  0  0
    2.2330   17.6540   69.8675 C   0  0  0  0  0
    1.0613   17.4931   70.7751 C   0  0  0  0  0
    2.3726   18.7959   69.0557 C   0  0  0  0  0
    0.7573   20.4508   67.9982 C   0  0  0  0  0
   -0.0791   21.6401   68.1875 C   0  0  0  0  0
   -2.8201   23.1627   67.8211 C   0  0  0  0  0
   -3.3757   25.4283   67.4325 C   0  0  0  0  0
   -4.2770   26.4882   67.5694 C   0  0  0  0  0
   -3.9653   27.7438   67.0389 C   0  0  0  0  0
   -2.7537   27.9417   66.3693 C   0  0  0  0  0
   -1.8494   26.8846   66.2286 C   0  0  0  0  0
   -2.1558   25.6229   66.7596 C   0  0  0  0  0
   -1.2792   24.5360   66.6445 C   0  0  0  0  0
    1.3806   19.8319   69.1296 N   0  0  0  0  0
   -0.7143   22.2530   67.0608 N   0  0  0  0  0
   -1.6120   23.3286   67.1927 N   0  0  0  0  0
   -3.6797   24.2082   67.9363 N   0  0  0  0  0
    0.8924   19.9571   66.8460 O   0  0  0  0  0
   -0.2232   22.1302   69.3399 O   0  0  0  0  0
   -0.1776   24.6737   66.0430 O   0  0  0  0  0
   -3.3417   21.5634   68.4467 S   0  0  0  0  0
  1  2  1  0  0  0
  3  4  1  0  0  0
  5  6  1  0  0  0
  7  6  1  0  0  0
  8 19  1  0  0  0
  8  2  1  0  0  0
  9 10  1  0  0  0
 10 20  1  0  0  0
 11 26  1  0  0  0
 12 22  1  0  0  0
 13 14  1  0  0  0
 15 16  1  0  0  0
 17 18  1  0  0  0
 17 12  1  0  0  0
 18 21  1  0  0  0
 19  9  1  0  0  0
 20 21  1  0  0  0
 21 11  1  0  0  0
  2  3  2  0  0  0
  4  5  2  0  0  0
  6  8  2  0  0  0
  9 23  2  0  0  0
 10 24  2  0  0  0
 11 22  2  0  0  0
 12 13  2  0  0  0
 14 15  2  0  0  0
 16 17  2  0  0  0
 18 25  2  0  0  0
M  END
> <rmsd>
0.530205369

$$$$
MolPort-002-839-097 2181066 CSSS00121636151 LN01230249 MCULE-1476565104 PubChem-1817285 ZINC000002181066 ZINC02181066


 24 26  0  0  0  0  0  0  0  0999 V2000
   -5.2957   22.4819   68.5434 C   0  0  0  0  0
   -2.9582   22.8338   67.6714 C   0  0  0  0  0
   -0.5496   23.0119   66.8732 C   0  0  0  0  0
    0.7665   22.3259   66.7431 C   0  0  0  0  0
    0.9205   21.6425   69.2896 C   0  0  0  0  0
   -0.8128   21.3909   70.8430 C   0  0  0  0  0
   -0.5567   20.0413   70.9715 C   0  0  0  0  0
   -1.4309   19.4103   71.8703 C   0  0  0  0  0
   -2.3789   20.2921   72.3934 C   0  0  0  0  0
   -3.3839   19.9113   73.4355 C   0  0  0  0  0
   -3.5849   18.3929   73.4617 C   0  0  0  0  0
   -2.2363   17.6675   73.4765 C   0  0  0  0  0
   -1.4604   17.9409   72.1833 C   0  0  0  0  0
    0.4904   19.4898   70.2263 C   0  0  0  0  0
   -3.9750   21.9830   68.1997 N   0  0  0  0  0
   -1.6726   22.2796   67.3760 N   0  0  0  0  0
   -0.0919   22.1859   70.0222 N   0  0  0  0  0
    1.2146   20.3040   69.3956 N   0  0  0  0  0
    2.2627   19.7595   68.6398 N   0  0  0  0  0
   -3.1917   24.0583   67.4797 O   0  0  0  0  0
   -0.6497   24.2307   66.5707 O   0  0  0  0  0
    0.7657   18.2620   70.3145 O   0  0  0  0  0
    1.8366   22.7072   68.1687 S   0  0  0  0  0
   -2.1133   21.8531   71.8015 S   0  0  0  0  0
  1 15  1  0  0  0
  2 16  1  0  0  0
  4  3  1  0  0  0
  4 23  1  0  0  0
  5 23  1  0  0  0
  6 17  1  0  0  0
  6 24  1  0  0  0
  7  8  1  0  0  0
  7 14  1  0  0  0
  9 24  1  0  0  0
 10  9  1  0  0  0
 10 11  1  0  0  0
 11 12  1  0  0  0
 12 13  1  0  0  0
 13  8  1  0  0  0
 14 18  1  0  0  0
 15  2  1  0  0  0
 16  3  1  0  0  0
 18 19  1  0  0  0
 18  5  1  0  0  0
  2 20  2  0  0  0
  3 21  2  0  0  0
  5 17  2  0  0  0
  6  7  2  0  0  0
  8  9  2  0  0  0
 14 22  2  0  0  0
M  END
> <rmsd>
0.625373662

$$$$
Molport-047-043-244 643564816 MCULE-2387310681 PubChem-133076670


 37 39  0  0  0  0  0  0  0  0999 V2000
   -3.6068   25.3374   65.6482 C   0  0  0  0  0
   -4.6518   24.7006   66.5424 C   0  0  0  0  0
   -4.7186   25.8487   68.5816 C   0  0  0  0  0
   -5.9667   25.4411   69.3521 C   0  0  0  0  0
   -6.1062   23.9517   69.1538 C   0  0  0  0  0
   -4.7434   23.5405   68.6634 C   0  0  0  0  0
   -4.7586   22.2158   67.9010 C   0  0  0  0  0
   -2.7440   21.5335   66.5401 C   0  0  0  0  0
   -1.2859   21.2134   66.5038 C   0  0  0  0  0
   -1.0914   19.7466   66.8509 C   0  0  0  0  0
    0.3715   19.3503   66.7187 C   0  0  0  0  0
    0.8847   18.8242   68.0207 C   0  0  0  0  0
    2.5878   20.7125   68.2779 C   0  0  0  0  0
    3.0167   21.5963   69.4317 C   0  0  0  0  0
    1.3456   20.7500   71.1868 C   0  0  0  0  0
    0.2405   21.7855   71.2908 C   0  0  0  0  0
    0.1902   23.7563   69.7865 C   0  0  0  0  0
    0.5723   24.6118   70.8365 C   0  0  0  0  0
    0.7367   25.9790   70.6176 C   0  0  0  0  0
    0.5288   26.5097   69.3437 C   0  0  0  0  0
    0.1558   25.6712   68.2916 C   0  0  0  0  0
   -0.0164   24.2926   68.4924 C   0  0  0  0  0
   -0.4370   23.4597   67.3405 C   0  0  0  0  0
    1.5371   20.1052   72.5456 C   0  0  0  0  0
    3.8054   20.3610   67.4062 C   0  0  0  0  0
    4.7343   19.3547   68.0698 C   0  0  0  0  0
    3.3965   19.8688   66.0322 C   0  0  0  0  0
   -4.1660   24.6681   67.9230 N   0  0  0  0  0
   -3.4001   21.7114   67.7963 N   0  0  0  0  0
    1.9170   19.4996   68.7414 N   0  0  0  0  0
    2.5892   21.3943   70.7868 N   0  0  0  0  0
   -0.5822   22.0427   67.4754 N   0  0  0  0  0
   -3.3835   21.6490   65.4623 O   0  0  0  0  0
    0.3899   17.7690   68.5016 O   0  0  0  0  0
    3.7908   22.5608   69.1933 O   0  0  0  0  0
    0.0097   22.3880   70.0231 O   0  0  0  0  0
   -0.6822   24.0039   66.2301 O   0  0  0  0  0
  1  2  1  0  0  0
  2 28  1  0  0  0
  3 28  1  0  0  0
  3  4  1  0  0  0
  4  5  1  0  0  0
  5  6  1  0  0  0
  6  7  1  0  0  0
  6 28  1  0  0  0
  7 29  1  0  0  0
  9  8  1  0  0  0
  9 10  1  0  0  0
  9 32  1  0  0  0
 10 11  1  0  0  0
 11 12  1  0  0  0
 12 30  1  0  0  0
 13 30  1  0  0  0
 13 14  1  0  0  0
 13 25  1  0  0  0
 14 31  1  0  0  0
 15 31  1  0  0  0
 15 16  1  0  0  0
 15 24  1  0  0  0
 16 36  1  0  0  0
 17 36  1  0  0  0
 18 19  1  0  0  0
 20 21  1  0  0  0
 22 23  1  0  0  0
 22 17  1  0  0  0
 23 32  1  0  0  0
 25 26  1  0  0  0
 25 27  1  0  0  0
 29  8  1  0  0  0
  8 33  2  0  0  0
 12 34  2  0  0  0
 14 35  2  0  0  0
 17 18  2  0  0  0
 19 20  2  0  0  0
 21 22  2  0  0  0
 23 37  2  0  0  0
M  END
> <rmsd>
0.595985711

$$$$
MolPort-019-938-808 4463924 CSC046134639 CSSS00046134639 LN01233452 MCULE-6280140760 PubChem-3306813 ZINC000004463924 ZINC04463924


 26 28  0  0  0  0  0  0  0  0999 V2000
   -5.3037   22.4875   68.5314 C   0  0  0  0  0
   -2.9613   22.8355   67.6710 C   0  0  0  0  0
   -0.5500   23.0094   66.8803 C   0  0  0  0  0
    0.7653   22.3215   66.7527 C   0  0  0  0  0
    0.9306   21.6443   69.3000 C   0  0  0  0  0
   -0.7903   21.3855   70.8627 C   0  0  0  0  0
   -0.5230   20.0429   71.0137 C   0  0  0  0  0
   -1.4110   19.4167   71.9214 C   0  0  0  0  0
   -2.3775   20.2916   72.4370 C   0  0  0  0  0
   -1.3607   18.0074   72.3531 C   0  0  0  0  0
   -0.1616   17.4388   72.8066 C   0  0  0  0  0
   -0.1338   16.1174   73.2615 C   0  0  0  0  0
   -1.3080   15.3599   73.2800 C   0  0  0  0  0
   -2.5110   15.9258   72.8495 C   0  0  0  0  0
   -2.5385   17.2474   72.3944 C   0  0  0  0  0
    0.5076   19.4902   70.2362 C   0  0  0  0  0
   -3.9807   21.9873   68.1984 N   0  0  0  0  0
   -1.6744   22.2799   67.3843 N   0  0  0  0  0
   -0.0844   22.1815   70.0307 N   0  0  0  0  0
    1.2268   20.3077   69.4038 N   0  0  0  0  0
    2.2637   19.7637   68.6322 N   0  0  0  0  0
   -3.1942   24.0588   67.4716 O   0  0  0  0  0
   -0.6486   24.2272   66.5735 O   0  0  0  0  0
    0.7582   18.2557   70.2749 O   0  0  0  0  0
    1.8375   22.7115   68.1741 S   0  0  0  0  0
   -2.1085   21.8296   71.7863 S   0  0  0  0  0
  1 17  1  0  0  0
  2 18  1  0  0  0
  4  3  1  0  0  0
  4 25  1  0  0  0
  5 25  1  0  0  0
  6 19  1  0  0  0
  6 26  1  0  0  0
  7  8  1  0  0  0
  7 16  1  0  0  0
  8 10  1  0  0  0
  9 26  1  0  0  0
 11 12  1  0  0  0
 13 14  1  0  0  0
 15 10  1  0  0  0
 16 20  1  0  0  0
 17  2  1  0  0  0
 18  3  1  0  0  0
 20 21  1  0  0  0
 20  5  1  0  0  0
  2 22  2  0  0  0
  3 23  2  0  0  0
  5 19  2  0  0  0
  6  7  2  0  0  0
  8  9  2  0  0  0
 10 11  2  0  0  0
 12 13  2  0  0  0
 14 15  2  0  0  0
 16 24  2  0  0  0
M  END
> <rmsd>
0.626986504

$$$$
MolPort-002-839-698 MCULE-2622729234


 20 21  0  0  0  0  0  0  0  0999 V2000
   -5.1997   22.4031   68.6103 C   0  0  0  0  0
   -2.9007   22.8257   67.6703 C   0  0  0  0  0
   -0.5396   23.0704   66.7587 C   0  0  0  0  0
    0.7655   22.4054   66.4907 C   0  0  0  0  0
    1.2888   21.4997   68.8988 C   0  0  0  0  0
    0.9235   19.6701   69.8361 C   0  0  0  0  0
    0.9716   18.2488   70.2137 C   0  0  0  0  0
    0.1396   17.7571   71.2264 C   0  0  0  0  0
    0.1997   16.4046   71.5699 C   0  0  0  0  0
    1.8795   16.0275   69.9359 C   0  0  0  0  0
    1.8492   17.3732   69.5636 C   0  0  0  0  0
   -3.8730   21.9456   68.2334 N   0  0  0  0  0
   -1.6116   22.3086   67.3247 N   0  0  0  0  0
    0.3389   21.7290   69.8221 N   0  0  0  0  0
    0.1064   20.5714   70.4146 N   0  0  0  0  0
    1.6921   20.2156   68.8712 N   0  0  0  0  0
    1.0611   15.5744   70.9231 N   0  0  0  0  0
   -3.1785   24.0418   67.4842 O   0  0  0  0  0
   -0.6762   24.2967   66.5044 O   0  0  0  0  0
    1.9501   22.7676   67.8240 S   0  0  0  0  0
  1 12  1  0  0  0
  2 13  1  0  0  0
  4  3  1  0  0  0
  4 20  1  0  0  0
  5 20  1  0  0  0
  6 16  1  0  0  0
  6  7  1  0  0  0
  8  9  1  0  0  0
 10 17  1  0  0  0
 11  7  1  0  0  0
 12  2  1  0  0  0
 13  3  1  0  0  0
 14 15  1  0  0  0
 16  5  1  0  0  0
  2 18  2  0  0  0
  3 19  2  0  0  0
  5 14  2  0  0  0
  6 15  2  0  0  0
  7  8  2  0  0  0
  9 17  2  0  0  0
 10 11  2  0  0  0
M  END
> <rmsd>
0.600569546

$$$$
MolPort-002-756-369 6448955 CSSS00132534583 MCULE-5316244891 ZINC000006448955 ZINC06448955


 24 26  0  0  0  0  0  0  0  0999 V2000
    3.2021   18.3662   65.3898 F   0  0  0  0  0
    1.3941   17.0571   65.7082 F   0  0  0  0  0
    3.1888   16.8474   67.0534 F   0  0  0  0  0
    2.4138   17.7442   66.3401 C   0  0  0  0  0
    1.8318   18.7713   67.2579 C   0  0  0  0  0
    0.7565   20.4526   68.0658 C   0  0  0  0  0
    1.0090   19.8120   66.8661 C   0  0  0  0  0
   -0.0808   21.6452   68.2314 C   0  0  0  0  0
   -2.8200   23.1594   67.8179 C   0  0  0  0  0
   -3.3742   25.4202   67.4000 C   0  0  0  0  0
   -4.2786   26.4799   67.5155 C   0  0  0  0  0
   -3.9625   27.7306   66.9762 C   0  0  0  0  0
   -2.7434   27.9237   66.3190 C   0  0  0  0  0
   -1.8360   26.8666   66.1996 C   0  0  0  0  0
   -2.1468   25.6099   66.7396 C   0  0  0  0  0
   -1.2674   24.5232   66.6458 C   0  0  0  0  0
    2.0439   18.8012   68.5869 N   0  0  0  0  0
    1.3838   19.8330   69.0826 N   0  0  0  0  0
   -0.7043   22.2453   67.0914 N   0  0  0  0  0
   -1.6049   23.3209   67.2021 N   0  0  0  0  0
   -3.6824   24.2046   67.9124 N   0  0  0  0  0
   -0.2364   22.1478   69.3768 O   0  0  0  0  0
   -0.1590   24.6566   66.0558 O   0  0  0  0  0
   -3.3465   21.5655   68.4531 S   0  0  0  0  0
  4  1  1  0  0  0
  4  2  1  0  0  0
  4  3  1  0  0  0
  4  5  1  0  0  0
  6  8  1  0  0  0
  7  5  1  0  0  0
  8 19  1  0  0  0
  9 24  1  0  0  0
 10 21  1  0  0  0
 11 12  1  0  0  0
 13 14  1  0  0  0
 15 16  1  0  0  0
 15 10  1  0  0  0
 16 20  1  0  0  0
 18 17  1  0  0  0
 18  6  1  0  0  0
 19 20  1  0  0  0
 20  9  1  0  0  0
  5 17  2  0  0  0
  6  7  2  0  0  0
  8 22  2  0  0  0
  9 21  2  0  0  0
 10 11  2  0  0  0
 12 13  2  0  0  0
 14 15  2  0  0  0
 16 23  2  0  0  0
M  END
> <rmsd>
0.511590898

$$$$
MolPort-001-821-709 CSSS00160699563 LN00418478 MCULE-4900462148 PubChem-54678419


 27 29  0  0  0  0  0  0  0  0999 V2000
    1.9931   24.4237   64.8010 C   0  0  0  0  0
    0.7979   23.1571   66.5096 C   0  0  0  0  0
    0.7385   22.1923   67.5421 C   0  0  0  0  0
   -0.5409   21.8963   68.2431 C   0  0  0  0  0
   -5.0464   23.2351   69.7006 C   0  0  0  0  0
   -6.1963   23.6876   69.0433 C   0  0  0  0  0
   -7.4505   23.5418   69.6438 C   0  0  0  0  0
   -7.5575   22.9411   70.9018 C   0  0  0  0  0
   -8.8904   22.7861   71.5400 C   0  0  0  0  0
   -6.4107   22.4848   71.5586 C   0  0  0  0  0
   -5.1565   22.6307   70.9581 C   0  0  0  0  0
    1.9204   21.5159   67.9010 C   0  0  0  0  0
    3.1186   21.8018   67.2400 C   0  0  0  0  0
    4.3014   21.1340   67.5892 C   0  0  0  0  0
    5.4963   21.4177   66.9258 C   0  0  0  0  0
    5.5192   22.3706   65.9070 C   0  0  0  0  0
    4.3471   23.0407   65.5507 C   0  0  0  0  0
    3.1331   22.7675   66.2090 C   0  0  0  0  0
    1.9784   23.4204   65.8659 N   0  0  0  0  0
   -1.7929   22.0839   67.5773 N   0  0  0  0  0
   -3.0141   21.8909   68.2394 N   0  0  0  0  0
   -0.2429   23.7964   66.1870 O   0  0  0  0  0
   -0.5310   21.4690   69.4295 O   0  0  0  0  0
   -2.4652   23.8174   69.9831 O   0  0  0  0  0
   -3.5353   24.4628   67.8795 O   0  0  0  0  0
    1.9055   20.5463   68.9021 O   0  0  0  0  0
   -3.4724   23.4049   68.9462 S   0  0  0  0  0
  1 19  1  0  0  0
  2  3  1  0  0  0
  3  4  1  0  0  0
  4 20  1  0  0  0
  6  7  1  0  0  0
  8 10  1  0  0  0
  9  8  1  0  0  0
 11  5  1  0  0  0
 12 26  1  0  0  0
 12 13  1  0  0  0
 14 15  1  0  0  0
 16 17  1  0  0  0
 18 19  1  0  0  0
 18 13  1  0  0  0
 19  2  1  0  0  0
 20 21  1  0  0  0
 27 21  1  0  0  0
 27  5  1  0  0  0
  2 22  2  0  0  0
  3 12  2  0  0  0
  4 23  2  0  0  0
  5  6  2  0  0  0
  7  8  2  0  0  0
 10 11  2  0  0  0
 13 14  2  0  0  0
 15 16  2  0  0  0
 17 18  2  0  0  0
 27 24  2  0  0  0
 27 25  2  0  0  0
M  END
> <rmsd>
0.614727616

$$$$
MolPort-046-558-784 MolPort-047-518-043 1704299804 CSSS00159701725 MCULE-2938548962 MCULE-9915117330 PubChem-135105634 PubChem-154915678 ZINC001704299804


 19 20  0  0  0  0  0  0  0  0999 V2000
   -1.3260   27.6888   65.7836 C   0  0  0  0  0
   -1.2378   26.2252   66.0560 C   0  0  0  0  0
   -2.2788   25.5991   66.7380 C   0  0  0  0  0
   -2.2391   24.2266   67.0167 C   0  0  0  0  0
   -3.3788   23.6238   67.7539 C   0  0  0  0  0
   -1.1106   23.4920   66.5837 C   0  0  0  0  0
    0.1634   21.2967   66.4678 C   0  0  0  0  0
    1.3326   21.6157   67.3905 C   0  0  0  0  0
    1.1106   21.0580   68.7573 C   0  0  0  0  0
    0.3019   20.7477   70.6980 C   0  0  0  0  0
    1.3729   19.8950   70.5157 C   0  0  0  0  0
   -0.1375   25.4603   65.6471 C   0  0  0  0  0
    1.0071   26.0748   64.9148 C   0  0  0  0  0
   -3.3863   22.2477   68.1216 N   0  0  0  0  0
   -1.0082   22.0852   66.8270 N   0  0  0  0  0
    0.1396   21.4853   69.5846 N   0  0  0  0  0
    1.8848   20.0956   69.2874 N   0  0  0  0  0
   -0.1061   24.1298   65.9187 N   0  0  0  0  0
   -4.3668   24.3384   68.0726 O   0  0  0  0  0
  1  2  1  0  0  0
  3  4  1  0  0  0
  4  5  1  0  0  0
  5 14  1  0  0  0
  6 15  1  0  0  0
  6 18  1  0  0  0
  7 15  1  0  0  0
  7  8  1  0  0  0
  8  9  1  0  0  0
 10 16  1  0  0  0
 11 17  1  0  0  0
 12  2  1  0  0  0
 13 12  1  0  0  0
 17  9  1  0  0  0
  2  3  2  0  0  0
  4  6  2  0  0  0
  5 19  2  0  0  0
  9 16  2  0  0  0
 10 11  2  0  0  0
 12 18  2  0  0  0
M  END
> <rmsd>
0.581798911

$$$$
MolPort-020-204-109 CSSS00160049314 MCULE-7202080879 PubChem-56895703


 24 25  0  0  0  0  0  0  0  0999 V2000
    1.9369   21.3906   65.4598 C   0  0  0  0  0
    1.8885   22.0919   66.8112 C   0  0  0  0  0
    0.6866   21.6578   67.6605 C   0  0  0  0  0
    0.6890   22.4769   68.9531 C   0  0  0  0  0
    0.7883   20.1694   68.0027 C   0  0  0  0  0
   -1.0206   23.1556   66.4553 C   0  0  0  0  0
   -2.2909   23.2417   65.6742 C   0  0  0  0  0
   -3.5374   23.2195   66.5599 C   0  0  0  0  0
   -4.8139   25.1435   67.4235 C   0  0  0  0  0
   -6.0441   24.3367   67.7191 C   0  0  0  0  0
   -6.7670   24.3876   68.8984 C   0  0  0  0  0
   -7.9252   23.5960   68.8590 C   0  0  0  0  0
   -8.1348   22.9400   67.6482 C   0  0  0  0  0
   -3.1031   24.1185   68.8461 C   0  0  0  0  0
   -3.8556   22.9674   69.5034 C   0  0  0  0  0
   -3.7371   21.8849   67.2347 C   0  0  0  0  0
   -0.4339   22.1875   69.7314 O   0  0  0  0  0
    1.9829   19.8857   68.6731 O   0  0  0  0  0
   -0.3737   24.2081   66.7036 O   0  0  0  0  0
   -3.8194   20.8399   66.5387 O   0  0  0  0  0
   -0.5611   21.8818   66.9254 N   0  0  0  0  0
   -3.5606   24.3774   67.4731 N   0  0  0  0  0
   -3.8265   21.7876   68.6544 N   0  0  0  0  0
   -6.8625   23.3587   66.6301 S   0  0  0  0  0
  1  2  1  0  0  0
  2  3  1  0  0  0
  3  4  1  0  0  0
  3  5  1  0  0  0
  3 21  1  0  0  0
  4 17  1  0  0  0
  5 18  1  0  0  0
  7  6  1  0  0  0
  8  7  1  0  0  0
  8 22  1  0  0  0
  8 16  1  0  0  0
  9 22  1  0  0  0
  9 10  1  0  0  0
 10 24  1  0  0  0
 11 12  1  0  0  0
 13 24  1  0  0  0
 14 22  1  0  0  0
 14 15  1  0  0  0
 15 23  1  0  0  0
 21  6  1  0  0  0
 23 16  1  0  0  0
  6 19  2  0  0  0
 10 11  2  0  0  0
 12 13  2  0  0  0
 16 20  2  0  0  0
M  END
> <rmsd>
0.549140453

$$$$
MolPort-020-205-970 CSSS00160049679 MCULE-5109276085 PubChem-56897151


 23 24  0  0  0  0  0  0  0  0999 V2000
    1.8963   22.1779   66.8669 C   0  0  0  0  0
    0.6815   21.7075   67.6528 C   0  0  0  0  0
    0.8264   20.2161   67.9494 C   0  0  0  0  0
    0.5868   22.5019   68.9570 C   0  0  0  0  0
   -1.0051   23.1675   66.3808 C   0  0  0  0  0
   -2.3058   23.2411   65.6471 C   0  0  0  0  0
   -3.5201   23.2210   66.5897 C   0  0  0  0  0
   -3.8028   25.5548   66.8512 C   0  0  0  0  0
   -3.1252   26.7300   67.4714 C   0  0  0  0  0
   -1.7582   26.9401   67.5322 C   0  0  0  0  0
   -1.4269   28.1433   68.1719 C   0  0  0  0  0
   -2.5235   28.8822   68.6120 C   0  0  0  0  0
   -4.4574   24.1550   68.6030 C   0  0  0  0  0
   -4.0872   22.9717   69.4892 C   0  0  0  0  0
   -3.6542   21.8724   67.2613 C   0  0  0  0  0
    1.9623   19.9610   68.7232 O   0  0  0  0  0
   -0.5526   22.1396   69.6799 O   0  0  0  0  0
   -0.3550   24.2240   66.5994 O   0  0  0  0  0
   -3.6349   20.8176   66.5735 O   0  0  0  0  0
   -0.5258   21.9019   66.8514 N   0  0  0  0  0
   -3.4477   24.3306   67.5595 N   0  0  0  0  0
   -3.8351   21.7879   68.6764 N   0  0  0  0  0
   -3.9072   28.0202   68.1950 S   0  0  0  0  0
  1  2  1  0  0  0
  2  3  1  0  0  0
  2  4  1  0  0  0
  2 20  1  0  0  0
  3 16  1  0  0  0
  4 17  1  0  0  0
  6  5  1  0  0  0
  7  6  1  0  0  0
  7 21  1  0  0  0
  7 15  1  0  0  0
  8 21  1  0  0  0
  8  9  1  0  0  0
  9 23  1  0  0  0
 10 11  1  0  0  0
 12 23  1  0  0  0
 13 21  1  0  0  0
 13 14  1  0  0  0
 14 22  1  0  0  0
 20  5  1  0  0  0
 22 15  1  0  0  0
  5 18  2  0  0  0
  9 10  2  0  0  0
 11 12  2  0  0  0
 15 19  2  0  0  0
M  END
> <rmsd>
0.557178974

$$$$
MolPort-051-751-318 Molport-051-830-963


 35 37  0  0  0  0  0  0  0  0999 V2000
    2.2803   21.8007   67.3913 C   0  0  0  0  0
    1.3316   20.7529   67.9395 C   0  0  0  0  0
    1.6828   18.8477   69.6650 C   0  0  0  0  0
    0.5598   17.9773   69.2280 C   0  0  0  0  0
    0.6515   16.5726   69.3226 C   0  0  0  0  0
   -0.4435   15.7700   68.9863 C   0  0  0  0  0
   -1.6417   16.3509   68.5661 C   0  0  0  0  0
   -1.7559   17.7394   68.4881 C   0  0  0  0  0
   -3.0177   18.3419   67.9543 C   0  0  0  0  0
   -3.4002   19.6080   68.7017 C   0  0  0  0  0
   -3.9293   20.6266   67.7140 C   0  0  0  0  0
   -3.8983   23.1506   67.5428 C   0  0  0  0  0
   -3.9263   23.1152   66.0464 C   0  0  0  0  0
   -1.9906   21.9323   65.0065 C   0  0  0  0  0
   -0.7252   21.5495   65.7739 C   0  0  0  0  0
    0.0069   21.3937   68.2367 C   0  0  0  0  0
   -0.2370   20.2116   65.3070 C   0  0  0  0  0
   -1.0112   19.0553   65.4771 C   0  0  0  0  0
   -0.5353   17.8178   65.0351 C   0  0  0  0  0
    0.7141   17.7313   64.4153 C   0  0  0  0  0
    1.4853   18.8829   64.2333 C   0  0  0  0  0
    1.0088   20.1206   64.6755 C   0  0  0  0  0
   -1.9348   24.4490   65.2847 C   0  0  0  0  0
   -0.5915   24.5404   64.6389 C   0  0  0  0  0
   -0.6499   18.5401   68.8048 C   0  0  0  0  0
    1.9215   20.1622   69.1367 N   0  0  0  0  0
   -3.8820   21.9487   68.3159 N   0  0  0  0  0
   -2.5748   23.1775   65.4987 N   0  0  0  0  0
   -0.9786   21.5694   67.2132 N   0  0  0  0  0
    0.4342   24.6711   65.6583 N   0  0  0  0  0
    2.4637   18.4256   70.5586 O   0  0  0  0  0
   -3.8620   24.2620   68.1315 O   0  0  0  0  0
   -0.2564   21.7798   69.4069 O   0  0  0  0  0
   -2.4995   25.5126   65.6569 O   0  0  0  0  0
    1.7995   15.9717   69.7241 F   0  0  0  0  0
  2  1  1  0  0  0
  2 26  1  0  0  0
  2 16  1  0  0  0
  3  4  1  0  0  0
  5 35  1  0  0  0
  5  6  1  0  0  0
  7  8  1  0  0  0
  9  8  1  0  0  0
  9 10  1  0  0  0
 10 11  1  0  0  0
 11 27  1  0  0  0
 13 12  1  0  0  0
 13 28  1  0  0  0
 14 28  1  0  0  0
 14 15  1  0  0  0
 15 29  1  0  0  0
 15 17  1  0  0  0
 18 19  1  0  0  0
 20 21  1  0  0  0
 22 17  1  0  0  0
 24 23  1  0  0  0
 24 30  1  0  0  0
 25  4  1  0  0  0
 26  3  1  0  0  0
 27 12  1  0  0  0
 28 23  1  0  0  0
 29 16  1  0  0  0
  3 31  2  0  0  0
  4  5  2  0  0  0
  6  7  2  0  0  0
  8 25  2  0  0  0
 12 32  2  0  0  0
 16 33  2  0  0  0
 17 18  2  0  0  0
 19 20  2  0  0  0
 21 22  2  0  0  0
 23 34  2  0  0  0
M  END
> <rmsd>
0.465212315

$$$$
MolPort-001-600-653 2877707 CSSS00132412257 ChemDiv-7421-3360 LN00911605 MCULE-4077561783 PubChem-2229978 ZINC000002877707 ZINC02877707


 24 25  0  0  0  0  0  0  0  0999 V2000
   -1.4635   15.1964   74.4046 C   0  0  0  0  0
   -0.3045   16.1713   74.3701 C   0  0  0  0  0
    0.4876   16.0585   75.6557 C   0  0  0  0  0
   -0.4824   18.3127   73.1416 C   0  0  0  0  0
    0.3307   17.8557   72.0930 C   0  0  0  0  0
    0.6275   18.6943   71.0152 C   0  0  0  0  0
    0.1160   19.9991   70.9702 C   0  0  0  0  0
   -0.6958   20.4538   72.0193 C   0  0  0  0  0
   -0.9907   19.6152   73.0984 C   0  0  0  0  0
    0.4281   20.8805   69.8320 C   0  0  0  0  0
    1.5816   21.1951   67.5877 C   0  0  0  0  0
    0.5178   20.9590   66.5245 C   0  0  0  0  0
   -0.7948   23.1173   66.7616 C   0  0  0  0  0
   -2.0039   23.8042   67.2367 C   0  0  0  0  0
   -3.1138   23.2631   67.8346 C   0  0  0  0  0
   -0.8001   17.4961   74.2315 O   0  0  0  0  0
   -0.0517   22.0468   69.7870 O   0  0  0  0  0
    0.1622   23.7905   66.2923 O   0  0  0  0  0
   -3.3678   25.3426   67.7289 O   0  0  0  0  0
    1.2859   20.4159   68.7830 N   0  0  0  0  0
   -0.6996   21.6927   66.8424 N   0  0  0  0  0
   -2.1994   25.1340   67.1847 N   0  0  0  0  0
   -3.9637   24.2555   68.1366 N   0  0  0  0  0
   -3.3496   21.8894   68.1247 N   0  0  0  0  0
  1  2  1  0  0  0
  2  3  1  0  0  0
  2 16  1  0  0  0
  4 16  1  0  0  0
  5  6  1  0  0  0
  7  8  1  0  0  0
  7 10  1  0  0  0
  9  4  1  0  0  0
 10 20  1  0  0  0
 11 20  1  0  0  0
 11 12  1  0  0  0
 12 21  1  0  0  0
 13 14  1  0  0  0
 15 24  1  0  0  0
 15 14  1  0  0  0
 19 23  1  0  0  0
 21 13  1  0  0  0
 22 19  1  0  0  0
  4  5  2  0  0  0
  6  7  2  0  0  0
  8  9  2  0  0  0
 10 17  2  0  0  0
 13 18  2  0  0  0
 14 22  2  0  0  0
 15 23  2  0  0  0
M  END
> <rmsd>
0.515950739

$$$$
MolPort-019-938-919 CSSS00121609416 LN01214127 MCULE-3705217408 PubChem-53497703


 25 27  0  0  0  0  0  0  0  0999 V2000
   -5.2865   22.4666   68.5467 C   0  0  0  0  0
   -2.9517   22.8275   67.6707 C   0  0  0  0  0
   -0.5449   23.0145   66.8696 C   0  0  0  0  0
    0.7728   22.3318   66.7361 C   0  0  0  0  0
    0.9156   21.6519   69.2849 C   0  0  0  0  0
   -0.8224   21.4187   70.8356 C   0  0  0  0  0
   -0.5853   20.0652   70.9610 C   0  0  0  0  0
   -1.4710   19.4430   71.8587 C   0  0  0  0  0
   -2.3946   20.3434   72.3972 C   0  0  0  0  0
   -3.3736   19.9915   73.4735 C   0  0  0  0  0
   -3.6075   18.4796   73.5220 C   0  0  0  0  0
   -2.2760   17.7191   73.4936 C   0  0  0  0  0
   -1.5129   17.9734   72.1855 C   0  0  0  0  0
   -2.1634   17.2020   71.0492 C   0  0  0  0  0
    0.4614   19.5041   70.2210 C   0  0  0  0  0
   -3.9662   21.9717   68.1954 N   0  0  0  0  0
   -1.6663   22.2771   67.3684 N   0  0  0  0  0
   -0.0899   22.2064   70.0183 N   0  0  0  0  0
    1.1953   20.3108   69.3915 N   0  0  0  0  0
    2.2401   19.7556   68.6388 N   0  0  0  0  0
   -3.1872   24.0531   67.4885 O   0  0  0  0  0
   -0.6473   24.2348   66.5740 O   0  0  0  0  0
    0.7300   18.2753   70.3149 O   0  0  0  0  0
    1.8428   22.7067   68.1637 S   0  0  0  0  0
   -2.1057   21.9001   71.8063 S   0  0  0  0  0
  1 16  1  0  0  0
  2 17  1  0  0  0
  4  3  1  0  0  0
  4 24  1  0  0  0
  5 24  1  0  0  0
  6 18  1  0  0  0
  6 25  1  0  0  0
  7  8  1  0  0  0
  7 15  1  0  0  0
  9 25  1  0  0  0
 10  9  1  0  0  0
 10 11  1  0  0  0
 11 12  1  0  0  0
 12 13  1  0  0  0
 13 14  1  0  0  0
 13  8  1  0  0  0
 15 19  1  0  0  0
 16  2  1  0  0  0
 17  3  1  0  0  0
 19 20  1  0  0  0
 19  5  1  0  0  0
  2 21  2  0  0  0
  3 22  2  0  0  0
  5 18  2  0  0  0
  6  7  2  0  0  0
  8  9  2  0  0  0
 15 23  2  0  0  0
M  END
> <rmsd>
0.622200131

$$$$
MolPort-020-215-990 CSSS00160049469 MCULE-9663234130 PubChem-56904741


 27 29  0  0  0  0  0  0  0  0999 V2000
    2.0865   21.5974   65.5259 C   0  0  0  0  0
    1.9256   22.2347   66.8991 C   0  0  0  0  0
    0.7198   21.6815   67.6700 C   0  0  0  0  0
    0.6112   22.4332   68.9985 C   0  0  0  0  0
    0.9062   20.1851   67.9396 C   0  0  0  0  0
   -1.0205   23.1248   66.4466 C   0  0  0  0  0
   -2.2953   23.1705   65.6698 C   0  0  0  0  0
   -3.5435   23.1665   66.5584 C   0  0  0  0  0
   -2.9904   24.2569   68.6685 C   0  0  0  0  0
   -3.6140   23.1549   69.5286 C   0  0  0  0  0
   -3.7123   21.8917   67.3455 C   0  0  0  0  0
   -5.0710   24.7834   67.5209 C   0  0  0  0  0
   -5.7465   25.0003   66.1480 C   0  0  0  0  0
   -6.2356   26.3915   66.1980 C   0  0  0  0  0
   -6.9252   27.0659   65.1895 C   0  0  0  0  0
   -7.3114   28.3959   65.4161 C   0  0  0  0  0
   -7.0037   29.0239   66.6363 C   0  0  0  0  0
   -6.3085   28.3243   67.6347 C   0  0  0  0  0
   -5.9361   27.0028   67.3857 C   0  0  0  0  0
   -5.2015   26.1100   68.3027 C   0  0  0  0  0
   -0.4901   21.9908   69.7354 O   0  0  0  0  0
    2.0661   19.9452   68.6818 O   0  0  0  0  0
   -0.4155   24.1976   66.7123 O   0  0  0  0  0
   -3.8231   20.7929   66.7415 O   0  0  0  0  0
   -0.5082   21.8633   66.8929 N   0  0  0  0  0
   -3.6561   24.4025   67.3606 N   0  0  0  0  0
   -3.7654   21.9205   68.7712 N   0  0  0  0  0
  1  2  1  0  0  0
  2  3  1  0  0  0
  3  4  1  0  0  0
  3  5  1  0  0  0
  3 25  1  0  0  0
  4 21  1  0  0  0
  5 22  1  0  0  0
  7  6  1  0  0  0
  8  7  1  0  0  0
  8 26  1  0  0  0
  8 11  1  0  0  0
  9 26  1  0  0  0
  9 10  1  0  0  0
 10 27  1  0  0  0
 12 26  1  0  0  0
 12 13  1  0  0  0
 13 14  1  0  0  0
 15 16  1  0  0  0
 17 18  1  0  0  0
 19 14  1  0  0  0
 20 19  1  0  0  0
 20 12  1  0  0  0
 25  6  1  0  0  0
 27 11  1  0  0  0
  6 23  2  0  0  0
 11 24  2  0  0  0
 14 15  2  0  0  0
 16 17  2  0  0  0
 18 19  2  0  0  0
M  END
> <rmsd>
0.594508708

$$$$
MolPort-046-740-300 1772706087 MCULE-5631426479 PubChem-137334796 ZINC001772706087


 35 37  0  0  0  0  0  0  0  0999 V2000
   -1.9187   20.2434   63.0616 C   0  0  0  0  0
   -0.9093   20.9191   63.9646 C   0  0  0  0  0
    0.3319   20.0519   64.0588 C   0  0  0  0  0
   -1.5209   21.1074   65.3421 C   0  0  0  0  0
   -0.7003   22.0759   66.1811 C   0  0  0  0  0
    0.0510   21.6002   68.5435 C   0  0  0  0  0
    1.4658   21.3816   68.0952 C   0  0  0  0  0
    2.2355   22.6868   68.1244 C   0  0  0  0  0
    2.4401   19.0758   68.4921 C   0  0  0  0  0
    2.0002   18.5964   67.1404 C   0  0  0  0  0
    1.0351   17.4196   67.2499 C   0  0  0  0  0
   -0.3237   17.8749   67.6665 C   0  0  0  0  0
   -0.5920   18.1764   69.0069 C   0  0  0  0  0
   -1.8526   18.6487   69.3806 C   0  0  0  0  0
   -2.8530   18.8233   68.4199 C   0  0  0  0  0
   -2.5936   18.4792   67.0831 C   0  0  0  0  0
   -1.3332   18.0060   66.7093 C   0  0  0  0  0
   -5.1006   19.7552   67.8976 C   0  0  0  0  0
   -4.6422   20.9446   67.0653 C   0  0  0  0  0
   -3.7338   23.2735   67.4272 C   0  0  0  0  0
   -3.4611   23.4398   65.9585 C   0  0  0  0  0
   -4.5244   24.3312   65.3428 C   0  0  0  0  0
   -3.8819   25.7004   65.1763 C   0  0  0  0  0
   -2.3833   25.4687   65.2093 C   0  0  0  0  0
   -0.8997   23.5083   65.7787 C   0  0  0  0  0
   -0.9780   21.8956   67.5969 N   0  0  0  0  0
    2.1340   20.3989   68.9374 N   0  0  0  0  0
    3.1578   18.2051   66.3559 N   0  0  0  0  0
   -4.3008   22.0629   67.9311 N   0  0  0  0  0
   -2.1989   24.1275   65.7309 N   0  0  0  0  0
   -0.2344   21.5670   69.7700 O   0  0  0  0  0
    3.0752   18.3010   69.2561 O   0  0  0  0  0
   -4.0839   19.3584   68.8154 O   0  0  0  0  0
   -3.4886   24.2166   68.2261 O   0  0  0  0  0
    0.1210   24.1830   65.4780 O   0  0  0  0  0
  1  2  1  0  0  0
  2  3  1  0  0  0
  2  4  1  0  0  0
  5  4  1  0  0  0
  5 26  1  0  0  0
  5 25  1  0  0  0
  7  6  1  0  0  0
  7  8  1  0  0  0
  7 27  1  0  0  0
 10  9  1  0  0  0
 10 28  1  0  0  0
 10 11  1  0  0  0
 11 12  1  0  0  0
 13 14  1  0  0  0
 15 16  1  0  0  0
 15 33  1  0  0  0
 17 12  1  0  0  0
 18 33  1  0  0  0
 18 19  1  0  0  0
 19 29  1  0  0  0
 21 20  1  0  0  0
 21 22  1  0  0  0
 21 30  1  0  0  0
 22 23  1  0  0  0
 23 24  1  0  0  0
 24 30  1  0  0  0
 26  6  1  0  0  0
 27  9  1  0  0  0
 29 20  1  0  0  0
 30 25  1  0  0  0
  6 31  2  0  0  0
  9 32  2  0  0  0
 12 13  2  0  0  0
 14 15  2  0  0  0
 16 17  2  0  0  0
 20 34  2  0  0  0
 25 35  2  0  0  0
M  END
> <rmsd>
0.511674106

$$$$
MolPort-046-740-300 1772706087 MCULE-5631426479 PubChem-137334796 ZINC001772706087


 35 37  0  0  0  0  0  0  0  0999 V2000
   -1.9181   20.2437   63.0616 C   0  0  0  0  0
   -0.9088   20.9193   63.9646 C   0  0  0  0  0
    0.3324   20.0520   64.0590 C   0  0  0  0  0
   -1.5205   21.1076   65.3422 C   0  0  0  0  0
   -0.7001   22.0760   66.1813 C   0  0  0  0  0
    0.0511   21.6002   68.5437 C   0  0  0  0  0
    1.4659   21.3817   68.0955 C   0  0  0  0  0
    2.2355   22.6871   68.1248 C   0  0  0  0  0
    2.4403   19.0759   68.4925 C   0  0  0  0  0
    2.0003   18.5966   67.1407 C   0  0  0  0  0
    1.0352   17.4198   67.2502 C   0  0  0  0  0
   -0.3236   17.8751   67.6667 C   0  0  0  0  0
   -1.3331   18.0061   66.7094 C   0  0  0  0  0
   -2.5934   18.4794   67.0832 C   0  0  0  0  0
   -2.8529   18.8235   68.4198 C   0  0  0  0  0
   -1.8526   18.6488   69.3808 C   0  0  0  0  0
   -0.5919   18.1766   69.0070 C   0  0  0  0  0
   -5.1004   19.7554   67.8976 C   0  0  0  0  0
   -4.6421   20.9447   67.0653 C   0  0  0  0  0
   -3.7336   23.2737   67.4272 C   0  0  0  0  0
   -3.4608   23.4399   65.9585 C   0  0  0  0  0
   -4.5240   24.3313   65.3428 C   0  0  0  0  0
   -3.8816   25.7005   65.1762 C   0  0  0  0  0
   -2.3830   25.4689   65.2094 C   0  0  0  0  0
   -0.8993   23.5085   65.7788 C   0  0  0  0  0
   -0.9778   21.8957   67.5969 N   0  0  0  0  0
    2.1341   20.3991   68.9378 N   0  0  0  0  0
    3.1580   18.2053   66.3562 N   0  0  0  0  0
   -4.3008   22.0631   67.9310 N   0  0  0  0  0
   -2.1986   24.1277   65.7309 N   0  0  0  0  0
   -0.2345   21.5671   69.7702 O   0  0  0  0  0
    3.0752   18.3012   69.2565 O   0  0  0  0  0
   -4.0838   19.3586   68.8153 O   0  0  0  0  0
   -3.4884   24.2167   68.2260 O   0  0  0  0  0
    0.1213   24.1831   65.4782 O   0  0  0  0  0
  1  2  1  0  0  0
  2  3  1  0  0  0
  2  4  1  0  0  0
  5  4  1  0  0  0
  5 26  1  0  0  0
  5 25  1  0  0  0
  7  6  1  0  0  0
  7  8  1  0  0  0
  7 27  1  0  0  0
 10  9  1  0  0  0
 10 28  1  0  0  0
 10 11  1  0  0  0
 11 12  1  0  0  0
 13 14  1  0  0  0
 15 16  1  0  0  0
 15 33  1  0  0  0
 17 12  1  0  0  0
 18 33  1  0  0  0
 18 19  1  0  0  0
 19 29  1  0  0  0
 21 20  1  0  0  0
 21 22  1  0  0  0
 21 30  1  0  0  0
 22 23  1  0  0  0
 23 24  1  0  0  0
 24 30  1  0  0  0
 26  6  1  0  0  0
 27  9  1  0  0  0
 29 20  1  0  0  0
 30 25  1  0  0  0
  6 31  2  0  0  0
  9 32  2  0  0  0
 12 13  2  0  0  0
 14 15  2  0  0  0
 16 17  2  0  0  0
 20 34  2  0  0  0
 25 35  2  0  0  0
M  END
> <rmsd>
0.511811972

$$$$
MolPort-046-740-300 1772706087 MCULE-5631426479 PubChem-137334796 ZINC001772706087


 35 37  0  0  0  0  0  0  0  0999 V2000
    0.5862   19.6850   64.7192 C   0  0  0  0  0
   -0.8274   19.7675   65.2645 C   0  0  0  0  0
   -1.7183   18.8534   64.4515 C   0  0  0  0  0
   -1.3583   21.1880   65.1593 C   0  0  0  0  0
   -0.6170   22.1418   66.0880 C   0  0  0  0  0
    0.0596   21.5022   68.4421 C   0  0  0  0  0
    1.4447   21.1096   68.0080 C   0  0  0  0  0
    2.2647   22.3455   67.6935 C   0  0  0  0  0
    2.4358   18.9504   68.9189 C   0  0  0  0  0
    2.0287   18.1651   67.7074 C   0  0  0  0  0
    1.1557   16.9787   68.1049 C   0  0  0  0  0
   -0.2930   17.3345   68.0524 C   0  0  0  0  0
   -0.8035   18.3600   68.8550 C   0  0  0  0  0
   -2.1456   18.7262   68.7542 C   0  0  0  0  0
   -2.9964   18.0585   67.8598 C   0  0  0  0  0
   -2.4965   16.9963   67.0991 C   0  0  0  0  0
   -1.1468   16.6389   67.1901 C   0  0  0  0  0
   -4.8179   19.6975   68.1784 C   0  0  0  0  0
   -4.3283   20.8138   67.2735 C   0  0  0  0  0
   -3.7200   23.2568   67.4514 C   0  0  0  0  0
   -3.4498   23.3438   65.9745 C   0  0  0  0  0
   -4.5691   24.1182   65.3024 C   0  0  0  0  0
   -4.0321   25.5250   65.0826 C   0  0  0  0  0
   -2.5203   25.4091   65.1318 C   0  0  0  0  0
   -0.9031   23.5728   65.7465 C   0  0  0  0  0
   -0.9323   21.8809   67.4846 N   0  0  0  0  0
    2.1170   20.3383   69.0455 N   0  0  0  0  0
    3.2113   17.6873   67.0135 N   0  0  0  0  0
   -4.1911   22.0419   68.0378 N   0  0  0  0  0
   -2.2399   24.1065   65.7060 N   0  0  0  0  0
   -0.2380   21.5189   69.6664 O   0  0  0  0  0
    3.0720   18.3820   69.8460 O   0  0  0  0  0
   -4.3298   18.4491   67.6992 O   0  0  0  0  0
   -3.5718   24.2735   68.1809 O   0  0  0  0  0
    0.0736   24.3231   65.4812 O   0  0  0  0  0
  1  2  1  0  0  0
  2  3  1  0  0  0
  2  4  1  0  0  0
  5  4  1  0  0  0
  5 26  1  0  0  0
  5 25  1  0  0  0
  7  6  1  0  0  0
  7  8  1  0  0  0
  7 27  1  0  0  0
 10  9  1  0  0  0
 10 28  1  0  0  0
 10 11  1  0  0  0
 11 12  1  0  0  0
 13 14  1  0  0  0
 15 16  1  0  0  0
 15 33  1  0  0  0
 17 12  1  0  0  0
 18 33  1  0  0  0
 18 19  1  0  0  0
 19 29  1  0  0  0
 21 20  1  0  0  0
 21 22  1  0  0  0
 21 30  1  0  0  0
 22 23  1  0  0  0
 23 24  1  0  0  0
 24 30  1  0  0  0
 26  6  1  0  0  0
 27  9  1  0  0  0
 29 20  1  0  0  0
 30 25  1  0  0  0
  6 31  2  0  0  0
  9 32  2  0  0  0
 12 13  2  0  0  0
 14 15  2  0  0  0
 16 17  2  0  0  0
 20 34  2  0  0  0
 25 35  2  0  0  0
M  END
> <rmsd>
0.482004434

$$$$
MolPort-020-197-763 CSSS00160038722 MCULE-3264237805 PubChem-56890904


 26 27  0  0  0  0  0  0  0  0999 V2000
    1.8826   19.8072   68.7018 O   0  0  0  0  0
   -0.3012   22.2639   69.6962 O   0  0  0  0  0
    2.1098   23.2423   66.4228 O   0  0  0  0  0
   -0.4237   24.2403   66.8225 O   0  0  0  0  0
   -3.7900   20.8108   66.5476 O   0  0  0  0  0
    0.7327   20.1482   67.9837 C   0  0  0  0  0
    0.7316   21.6291   67.6056 C   0  0  0  0  0
    0.8096   22.4834   68.8777 C   0  0  0  0  0
    1.9460   21.8850   66.7063 C   0  0  0  0  0
   -1.0082   23.1801   66.4762 C   0  0  0  0  0
   -2.2693   23.2639   65.6797 C   0  0  0  0  0
   -3.5315   23.1937   66.5457 C   0  0  0  0  0
   -5.0568   24.7067   67.5817 C   0  0  0  0  0
   -5.2162   26.1838   67.7396 C   0  0  0  0  0
   -5.7280   26.7197   68.9311 C   0  0  0  0  0
   -5.8787   28.1036   69.0655 C   0  0  0  0  0
   -5.5242   28.9539   68.0143 C   0  0  0  0  0
   -5.0184   28.4216   66.8251 C   0  0  0  0  0
   -4.8659   27.0391   66.6873 C   0  0  0  0  0
   -3.0371   24.1305   68.7579 C   0  0  0  0  0
   -3.6723   22.9580   69.5090 C   0  0  0  0  0
   -3.7006   21.8623   67.2339 C   0  0  0  0  0
   -0.5076   21.8962   66.8713 N   0  0  0  0  0
   -3.6453   24.3597   67.4374 N   0  0  0  0  0
   -3.7755   21.7820   68.6568 N   0  0  0  0  0
   -6.0752   25.9080   69.9609 F   0  0  0  0  0
  6  1  1  0  0  0
  6  7  1  0  0  0
  7  8  1  0  0  0
  7  9  1  0  0  0
  7 23  1  0  0  0
  8  2  1  0  0  0
  9  3  1  0  0  0
 11 10  1  0  0  0
 12 11  1  0  0  0
 12 24  1  0  0  0
 12 22  1  0  0  0
 13 24  1  0  0  0
 13 14  1  0  0  0
 15 26  1  0  0  0
 15 16  1  0  0  0
 17 18  1  0  0  0
 19 14  1  0  0  0
 20 24  1  0  0  0
 20 21  1  0  0  0
 21 25  1  0  0  0
 23 10  1  0  0  0
 25 22  1  0  0  0
 10  4  2  0  0  0
 14 15  2  0  0  0
 16 17  2  0  0  0
 18 19  2  0  0  0
 22  5  2  0  0  0
M  END
> <rmsd>
0.59091264

$$$$
MolPort-047-957-222 2100484002 CSSS06359890087 MCULE-2276708758 PubChem-157013772


 28 30  0  0  0  0  0  0  0  0999 V2000
   -6.6019   21.3401   73.3534 F   0  0  0  0  0
   -6.0476   21.7610   72.1904 C   0  0  0  0  0
   -6.0115   23.1247   71.8869 C   0  0  0  0  0
   -5.4350   23.5601   70.6877 C   0  0  0  0  0
   -4.8902   22.6333   69.7843 C   0  0  0  0  0
   -4.9355   21.2660   70.0958 C   0  0  0  0  0
   -5.5098   20.8312   71.2948 C   0  0  0  0  0
   -4.2603   23.0876   68.5306 C   0  0  0  0  0
   -2.9873   22.5387   66.4186 C   0  0  0  0  0
   -1.9464   21.4997   66.0270 C   0  0  0  0  0
   -0.0218   22.5178   67.3389 C   0  0  0  0  0
    0.9619   22.4239   68.4719 C   0  0  0  0  0
   -0.3249   21.1441   69.9372 C   0  0  0  0  0
    0.5633   19.9591   69.7029 C   0  0  0  0  0
    2.0638   21.3711   68.2610 C   0  0  0  0  0
    3.3628   21.8418   68.8418 C   0  0  0  0  0
    3.5289   22.0127   70.2228 C   0  0  0  0  0
    5.7700   22.7316   69.9039 C   0  0  0  0  0
    5.6461   22.5745   68.5207 C   0  0  0  0  0
    4.4342   22.1257   67.9903 C   0  0  0  0  0
   -4.2372   24.3166   68.2433 O   0  0  0  0  0
   -0.0647   23.5753   66.6550 O   0  0  0  0  0
    0.3664   22.3646   69.7596 O   0  0  0  0  0
    0.2887   18.8506   70.2305 O   0  0  0  0  0
   -3.6391   22.1392   67.6580 N   0  0  0  0  0
   -0.8976   21.4252   67.0381 N   0  0  0  0  0
    1.6857   20.0809   68.8331 N   0  0  0  0  0
    4.7183   22.4497   70.7205 N   0  0  0  0  0
  2  1  1  0  0  0
  3  4  1  0  0  0
  5  6  1  0  0  0
  5  8  1  0  0  0
  7  2  1  0  0  0
  8 25  1  0  0  0
  9 25  1  0  0  0
  9 10  1  0  0  0
 10 26  1  0  0  0
 12 11  1  0  0  0
 12 23  1  0  0  0
 13 23  1  0  0  0
 13 14  1  0  0  0
 14 27  1  0  0  0
 15 27  1  0  0  0
 15 16  1  0  0  0
 15 12  1  0  0  0
 17 28  1  0  0  0
 18 19  1  0  0  0
 20 16  1  0  0  0
 26 11  1  0  0  0
  2  3  2  0  0  0
  4  5  2  0  0  0
  6  7  2  0  0  0
  8 21  2  0  0  0
 11 22  2  0  0  0
 14 24  2  0  0  0
 16 17  2  0  0  0
 18 28  2  0  0  0
 19 20  2  0  0  0
M  END
> <rmsd>
0.626678467

$$$$
