MolPort-045-934-056 MCULE-8331901277 PubChem-131919902 ZINC000952975995


 37 40  0  0  0  0  0  0  0  0999 V2000
    5.8390   17.7592   74.9464 C   0  0  0  0  0
    4.8783   18.7972   74.3918 C   0  0  0  0  0
    5.5753   19.7059   73.3705 C   0  0  0  0  0
    7.5125   21.3915   73.3363 C   0  0  0  0  0
    7.4096   21.6265   71.8537 C   0  0  0  0  0
    9.5651   22.7757   71.2303 C   0  0  0  0  0
    8.8407   23.9256   70.5378 C   0  0  0  0  0
    9.9327   23.1752   69.8039 C   0  0  0  0  0
    9.2498   20.3183   70.7399 C   0  0  0  0  0
    8.3477   19.1510   70.4898 C   0  0  0  0  0
    8.0882   18.9847   68.9929 C   0  0  0  0  0
    6.9912   19.8796   68.5163 C   0  0  0  0  0
    5.8203   19.4638   67.9098 C   0  0  0  0  0
    3.8875   20.7190   66.9443 C   0  0  0  0  0
    2.7603   21.0901   67.8974 C   0  0  0  0  0
    2.1236   19.6273   69.8592 C   0  0  0  0  0
    2.7527   20.5800   70.8369 C   0  0  0  0  0
    1.7045   21.4196   71.5856 C   0  0  0  0  0
    0.7873   20.6128   72.4548 C   0  0  0  0  0
    1.2239   20.1253   73.6956 C   0  0  0  0  0
    0.3520   19.3806   74.4985 C   0  0  0  0  0
   -0.9581   19.1313   74.0678 C   0  0  0  0  0
   -1.3996   19.6307   72.8363 C   0  0  0  0  0
   -0.5279   20.3741   72.0338 C   0  0  0  0  0
    4.5501   20.5254   72.6363 C   0  0  0  0  0
    4.3341   19.5473   75.4363 O   0  0  0  0  0
    8.3916   22.0030   73.9982 O   0  0  0  0  0
   10.4736   20.2081   70.4518 O   0  0  0  0  0
    1.5316   18.5936   70.2746 O   0  0  0  0  0
    4.4807   21.7749   72.8069 O   0  0  0  0  0
    6.5887   20.5318   74.0246 N   0  0  0  0  0
    8.7289   21.5736   71.2253 N   0  0  0  0  0
    5.1467   20.6067   67.6653 N   0  0  0  0  0
    2.1665   19.8866   68.4525 N   0  0  0  0  0
    3.6552   19.8675   71.7369 N   0  0  0  0  0
    5.8567   21.6436   68.0801 N   0  0  0  0  0
    6.9967   21.2241   68.6115 N   0  0  0  0  0
  2  1  1  0  0  0
  2 26  1  0  0  0
  2  3  1  0  0  0
  3 31  1  0  0  0
  3 25  1  0  0  0
  5  4  1  0  0  0
  5 32  1  0  0  0
  6 32  1  0  0  0
  6  7  1  0  0  0
  7  8  1  0  0  0
  8  6  1  0  0  0
 10  9  1  0  0  0
 10 11  1  0  0  0
 11 12  1  0  0  0
 12 37  1  0  0  0
 13 33  1  0  0  0
 14 33  1  0  0  0
 14 15  1  0  0  0
 15 34  1  0  0  0
 17 16  1  0  0  0
 17 18  1  0  0  0
 17 35  1  0  0  0
 18 19  1  0  0  0
 20 21  1  0  0  0
 22 23  1  0  0  0
 24 19  1  0  0  0
 31  4  1  0  0  0
 32  9  1  0  0  0
 33 36  1  0  0  0
 34 16  1  0  0  0
 35 25  1  0  0  0
  4 27  2  0  0  0
  9 28  2  0  0  0
 12 13  2  0  0  0
 16 29  2  0  0  0
 19 20  2  0  0  0
 21 22  2  0  0  0
 23 24  2  0  0  0
 25 30  2  0  0  0
 36 37  2  0  0  0
M  END
> <rmsd>
0.620279074

$$$$
MolPort-051-712-545 MCULE-7903998060


 35 36  0  0  0  0  0  0  0  0999 V2000
    1.6405   17.8782   65.5125 C   0  0  0  0  0
    1.1656   19.2682   65.8964 C   0  0  0  0  0
    0.0073   19.1845   66.8737 C   0  0  0  0  0
    2.3108   20.1287   66.4324 C   0  0  0  0  0
    2.9869   19.5356   67.6649 C   0  0  0  0  0
    2.5444   19.4344   70.1886 C   0  0  0  0  0
    3.8744   18.8083   70.5000 C   0  0  0  0  0
    4.6694   20.6955   72.0342 C   0  0  0  0  0
    5.4235   21.1148   73.2658 C   0  0  0  0  0
    6.8022   21.6315   72.8864 C   0  0  0  0  0
    6.6945   23.0547   72.3712 C   0  0  0  0  0
    7.8721   23.3632   71.4674 C   0  0  0  0  0
    7.3923   24.1030   70.2266 C   0  0  0  0  0
    7.0565   22.1307   68.6772 C   0  0  0  0  0
    6.1382   21.1224   68.1377 C   0  0  0  0  0
    6.5147   19.9728   67.4720 C   0  0  0  0  0
    4.4070   20.0030   67.7299 C   0  0  0  0  0
    4.4780   19.5408   75.0096 C   0  0  0  0  0
    4.6899   18.3897   75.9414 C   0  0  0  0  0
    5.1997   18.8144   77.3199 C   0  0  0  0  0
    6.5613   19.4811   77.2407 C   0  0  0  0  0
    4.2084   19.7110   78.0396 C   0  0  0  0  0
    3.7731   17.2857   70.5096 C   0  0  0  0  0
    5.1552   16.6639   70.4629 C   0  0  0  0  0
    2.2369   19.8940   68.8676 N   0  0  0  0  0
    4.4339   19.3085   71.7564 N   0  0  0  0  0
    6.5404   23.2359   69.4223 N   0  0  0  0  0
    4.8019   21.1576   68.3015 N   0  0  0  0  0
    5.5621   20.0076   74.2033 N   0  0  0  0  0
    1.6865   19.5702   71.1010 O   0  0  0  0  0
    4.2543   21.5814   71.2399 O   0  0  0  0  0
    8.3000   22.0029   68.5107 O   0  0  0  0  0
    5.4071   19.3124   67.2352 O   0  0  0  0  0
    3.3507   20.1012   74.9552 O   0  0  0  0  0
    3.0923   16.8384   71.6440 O   0  0  0  0  0
  1  2  1  0  0  0
  2  3  1  0  0  0
  2  4  1  0  0  0
  5  4  1  0  0  0
  5 25  1  0  0  0
  5 17  1  0  0  0
  7  6  1  0  0  0
  7 26  1  0  0  0
  7 23  1  0  0  0
  9  8  1  0  0  0
  9 10  1  0  0  0
  9 29  1  0  0  0
 10 11  1  0  0  0
 11 12  1  0  0  0
 12 13  1  0  0  0
 13 27  1  0  0  0
 14 15  1  0  0  0
 15 28  1  0  0  0
 16 33  1  0  0  0
 17 33  1  0  0  0
 19 18  1  0  0  0
 19 20  1  0  0  0
 20 21  1  0  0  0
 20 22  1  0  0  0
 23 24  1  0  0  0
 23 35  1  0  0  0
 25  6  1  0  0  0
 26  8  1  0  0  0
 27 14  1  0  0  0
 29 18  1  0  0  0
  6 30  2  0  0  0
  8 31  2  0  0  0
 14 32  2  0  0  0
 15 16  2  0  0  0
 17 28  2  0  0  0
 18 34  2  0  0  0
M  END
> <rmsd>
0.784227133

$$$$
MolPort-045-932-809 CSCCC(=O)N1C[C@@H]2C[C@H]1C(=O)N[C@@H](C(C)C)C(=O)N[C@H](Cc1cccc MCULE-8658521632 PubChem-131910081 ZINC000952862623


 38 41  0  0  0  0  0  0  0  0999 V2000
    4.6637   15.1768   72.9344 C   0  0  0  0  0
    7.1831   15.8741   72.8504 C   0  0  0  0  0
    8.3530   16.6985   72.3434 C   0  0  0  0  0
    8.3891   18.0403   73.0039 C   0  0  0  0  0
    7.6281   19.1832   70.8790 C   0  0  0  0  0
    7.7782   20.6102   70.3776 C   0  0  0  0  0
    7.7864   21.4891   71.6214 C   0  0  0  0  0
    8.2826   20.5792   72.7292 C   0  0  0  0  0
    7.6619   20.9283   74.0566 C   0  0  0  0  0
    5.4463   19.6444   73.7177 C   0  0  0  0  0
    4.6814   18.7124   74.6650 C   0  0  0  0  0
    3.8923   19.4767   75.7181 C   0  0  0  0  0
    5.6267   17.7419   75.3464 C   0  0  0  0  0
    4.4893   20.4480   72.8855 C   0  0  0  0  0
    2.6257   20.4904   71.1827 C   0  0  0  0  0
    1.3756   20.7920   72.0016 C   0  0  0  0  0
    0.5635   21.8689   71.3624 C   0  0  0  0  0
   -0.7150   21.5763   70.8761 C   0  0  0  0  0
   -1.4837   22.5796   70.2781 C   0  0  0  0  0
   -0.9761   23.8780   70.1683 C   0  0  0  0  0
    0.2994   24.1741   70.6584 C   0  0  0  0  0
    1.0684   23.1715   71.2566 C   0  0  0  0  0
    2.2997   19.7025   69.9485 C   0  0  0  0  0
    3.2750   21.4909   68.4213 C   0  0  0  0  0
    4.7473   21.3369   68.6131 C   0  0  0  0  0
    5.3801   21.0043   69.7900 C   0  0  0  0  0
    5.6611   16.3514   71.9786 S   0  0  0  0  0
    8.7663   18.1243   74.2033 O   0  0  0  0  0
    8.3351   21.6401   74.8456 O   0  0  0  0  0
    4.4614   21.7063   72.9753 O   0  0  0  0  0
    1.7590   18.5695   70.0527 O   0  0  0  0  0
    8.0174   19.2213   72.2771 N   0  0  0  0  0
    6.3557   20.5052   74.4699 N   0  0  0  0  0
    3.5987   19.7721   71.9934 N   0  0  0  0  0
    2.5944   20.2206   68.6467 N   0  0  0  0  0
    6.6869   20.9660   69.4808 N   0  0  0  0  0
    6.8428   21.2581   68.2004 N   0  0  0  0  0
    5.6657   21.4919   67.6402 N   0  0  0  0  0
  1 27  1  0  0  0
  2 27  1  0  0  0
  2  3  1  0  0  0
  3  4  1  0  0  0
  4 32  1  0  0  0
  5 32  1  0  0  0
  6  5  1  0  0  0
  6  7  1  0  0  0
  6 36  1  0  0  0
  7  8  1  0  0  0
  8  9  1  0  0  0
  8 32  1  0  0  0
  9 33  1  0  0  0
 10 33  1  0  0  0
 10 11  1  0  0  0
 10 14  1  0  0  0
 11 12  1  0  0  0
 11 13  1  0  0  0
 14 34  1  0  0  0
 15 34  1  0  0  0
 15 16  1  0  0  0
 15 23  1  0  0  0
 16 17  1  0  0  0
 18 19  1  0  0  0
 20 21  1  0  0  0
 22 17  1  0  0  0
 23 35  1  0  0  0
 24 35  1  0  0  0
 24 25  1  0  0  0
 25 38  1  0  0  0
 26 36  1  0  0  0
 36 37  1  0  0  0
  4 28  2  0  0  0
  9 29  2  0  0  0
 14 30  2  0  0  0
 17 18  2  0  0  0
 19 20  2  0  0  0
 21 22  2  0  0  0
 23 31  2  0  0  0
 25 26  2  0  0  0
 37 38  2  0  0  0
M  END
> <rmsd>
0.748513699

$$$$
MolPort-045-916-196 MCULE-6599639974 PubChem-131933651 ZINC000952973481


 37 40  0  0  0  0  0  0  0  0999 V2000
    3.8615   20.0924   75.5005 C   0  0  0  0  0
    4.4883   19.0852   74.5490 C   0  0  0  0  0
    5.2183   18.0152   75.3376 C   0  0  0  0  0
    5.4303   19.7468   73.5407 C   0  0  0  0  0
    7.8822   20.4189   73.9720 C   0  0  0  0  0
    8.4664   19.6511   72.8420 C   0  0  0  0  0
    7.6706   19.1122   71.8237 C   0  0  0  0  0
    8.2301   18.4274   70.7409 C   0  0  0  0  0
    7.6738   17.7724   68.3894 C   0  0  0  0  0
    7.8495   19.1283   67.7142 C   0  0  0  0  0
    5.4321   19.6966   67.4270 C   0  0  0  0  0
    4.6655   20.7500   67.8846 C   0  0  0  0  0
    3.2019   20.9344   67.6677 C   0  0  0  0  0
    2.3328   19.6882   69.7116 C   0  0  0  0  0
    2.9816   20.6536   70.6582 C   0  0  0  0  0
    1.9351   21.5366   71.3302 C   0  0  0  0  0
    1.4802   22.6184   70.4078 C   0  0  0  0  0
    2.3679   23.6222   69.9989 C   0  0  0  0  0
    1.9342   24.6302   69.1328 C   0  0  0  0  0
    0.6123   24.6389   68.6770 C   0  0  0  0  0
   -0.2765   23.6414   69.0889 C   0  0  0  0  0
    0.1568   22.6325   69.9549 C   0  0  0  0  0
    4.6801   20.5723   72.5369 C   0  0  0  0  0
    9.6339   18.2591   70.6862 C   0  0  0  0  0
   10.3087   17.4754   69.6140 C   0  0  0  0  0
   10.4329   18.7951   71.6992 C   0  0  0  0  0
    9.8562   19.4908   72.7629 C   0  0  0  0  0
    6.4704   20.5241   74.2103 N   0  0  0  0  0
    6.6654   19.9523   67.9008 N   0  0  0  0  0
    2.4516   19.8535   68.2953 N   0  0  0  0  0
    3.7546   19.9289   71.6577 N   0  0  0  0  0
    5.4340   21.5924   68.6011 N   0  0  0  0  0
    6.6531   21.0791   68.5921 N   0  0  0  0  0
    8.6585   21.0228   74.7597 O   0  0  0  0  0
    7.3484   17.9380   69.7663 O   0  0  0  0  0
    1.6526   18.7289   70.1636 O   0  0  0  0  0
    4.8654   21.8183   72.4634 O   0  0  0  0  0
  1  2  1  0  0  0
  2  3  1  0  0  0
  4  2  1  0  0  0
  4 28  1  0  0  0
  4 23  1  0  0  0
  5  6  1  0  0  0
  6  7  1  0  0  0
  8 35  1  0  0  0
  8 24  1  0  0  0
  9 35  1  0  0  0
  9 10  1  0  0  0
 10 29  1  0  0  0
 12 32  1  0  0  0
 13 12  1  0  0  0
 13 30  1  0  0  0
 15 14  1  0  0  0
 15 16  1  0  0  0
 15 31  1  0  0  0
 16 17  1  0  0  0
 18 19  1  0  0  0
 20 21  1  0  0  0
 22 17  1  0  0  0
 25 24  1  0  0  0
 26 27  1  0  0  0
 28  5  1  0  0  0
 29 11  1  0  0  0
 29 33  1  0  0  0
 30 14  1  0  0  0
 31 23  1  0  0  0
  5 34  2  0  0  0
  7  8  2  0  0  0
 11 12  2  0  0  0
 14 36  2  0  0  0
 17 18  2  0  0  0
 19 20  2  0  0  0
 21 22  2  0  0  0
 23 37  2  0  0  0
 24 26  2  0  0  0
 27  6  2  0  0  0
 32 33  2  0  0  0
M  END
> <rmsd>
0.657950521

$$$$
