MolPort-046-754-700 1772713059 CSSS00159989792 MCULE-4076660177 PubChem-137343906 ZINC001772713059


 38 40  0  0  0  0  0  0  0  0999 V2000
    2.9033   23.7557   67.0183 C   0  0  0  0  0
    2.4808   23.8635   68.4730 C   0  0  0  0  0
    1.1578   24.5929   68.6043 C   0  0  0  0  0
    2.4596   22.5034   69.1727 C   0  0  0  0  0
    1.6426   21.4275   68.4531 C   0  0  0  0  0
    1.7417   18.8701   68.3131 C   0  0  0  0  0
    0.7416   18.7941   67.2011 C   0  0  0  0  0
   -0.3326   17.7559   67.4970 C   0  0  0  0  0
   -1.3160   18.2728   68.5340 C   0  0  0  0  0
   -3.5548   17.6311   67.9575 C   0  0  0  0  0
   -3.9704   17.2649   69.3856 C   0  0  0  0  0
   -3.1593   16.0816   69.8756 C   0  0  0  0  0
   -5.4383   16.8941   69.3964 C   0  0  0  0  0
   -3.0258   19.8973   68.5639 C   0  0  0  0  0
   -3.9147   20.7044   67.6362 C   0  0  0  0  0
   -3.7483   23.2129   67.4139 C   0  0  0  0  0
   -3.2986   23.1018   65.9898 C   0  0  0  0  0
   -0.7898   25.4958   65.2913 C   0  0  0  0  0
   -0.3316   26.8420   64.9160 C   0  0  0  0  0
    1.0394   27.1265   64.8432 C   0  0  0  0  0
    1.4766   28.4067   64.4912 C   0  0  0  0  0
    0.5454   29.4104   64.2105 C   0  0  0  0  0
   -0.8228   29.1340   64.2816 C   0  0  0  0  0
   -1.2602   27.8536   64.6335 C   0  0  0  0  0
   -0.8071   23.4770   65.8754 C   0  0  0  0  0
   -0.3513   22.1212   66.3183 C   0  0  0  0  0
   -0.9248   21.0419   65.4193 C   0  0  0  0  0
    0.1770   21.5866   68.7425 C   0  0  0  0  0
    2.1120   20.1210   68.9006 N   0  0  0  0  0
   -2.5470   18.7006   67.8822 N   0  0  0  0  0
   -4.0818   22.0464   68.1691 N   0  0  0  0  0
   -2.0882   23.8804   65.7606 N   0  0  0  0  0
   -2.0896   25.1486   65.3957 N   0  0  0  0  0
    0.0484   24.4750   65.5845 N   0  0  0  0  0
   -0.7508   21.8885   67.6978 N   0  0  0  0  0
    2.2973   17.8158   68.7200 O   0  0  0  0  0
   -3.8848   24.3486   67.9395 O   0  0  0  0  0
   -0.2474   21.4494   69.9206 O   0  0  0  0  0
  1  2  1  0  0  0
  2  3  1  0  0  0
  2  4  1  0  0  0
  5  4  1  0  0  0
  5 29  1  0  0  0
  5 28  1  0  0  0
  7  6  1  0  0  0
  7  8  1  0  0  0
  8  9  1  0  0  0
  9 30  1  0  0  0
 10 30  1  0  0  0
 10 11  1  0  0  0
 11 12  1  0  0  0
 11 13  1  0  0  0
 14 30  1  0  0  0
 14 15  1  0  0  0
 15 31  1  0  0  0
 17 16  1  0  0  0
 17 32  1  0  0  0
 18 19  1  0  0  0
 18 34  1  0  0  0
 20 21  1  0  0  0
 22 23  1  0  0  0
 24 19  1  0  0  0
 25 32  1  0  0  0
 26 25  1  0  0  0
 26 27  1  0  0  0
 26 35  1  0  0  0
 29  6  1  0  0  0
 31 16  1  0  0  0
 32 33  1  0  0  0
 35 28  1  0  0  0
  6 36  2  0  0  0
 16 37  2  0  0  0
 18 33  2  0  0  0
 19 20  2  0  0  0
 21 22  2  0  0  0
 23 24  2  0  0  0
 25 34  2  0  0  0
 28 38  2  0  0  0
M  END
> <rmsd>
0.437257946

$$$$
MolPort-051-706-330 MCULE-8049727372


 34 35  0  0  0  0  0  0  0  0999 V2000
   -6.7938   22.1270   64.0362 C   0  0  0  0  0
   -6.6469   22.3188   65.5306 C   0  0  0  0  0
   -7.0297   23.7419   65.8897 C   0  0  0  0  0
   -5.2059   22.0452   65.9323 C   0  0  0  0  0
   -5.0732   21.8737   67.4414 C   0  0  0  0  0
   -2.9904   23.2718   67.8493 C   0  0  0  0  0
   -1.5308   23.3150   68.2072 C   0  0  0  0  0
   -0.0370   21.3495   68.7711 C   0  0  0  0  0
    0.4838   20.0044   68.3793 C   0  0  0  0  0
   -0.3953   18.9291   68.9876 C   0  0  0  0  0
   -0.3661   17.6790   68.1244 C   0  0  0  0  0
   -1.5233   16.7638   68.4885 C   0  0  0  0  0
   -2.8332   17.3929   68.0513 C   0  0  0  0  0
   -5.3041   17.0635   68.5841 C   0  0  0  0  0
   -5.6682   18.4714   68.3160 C   0  0  0  0  0
   -6.9370   19.0053   68.4454 C   0  0  0  0  0
   -5.5773   20.5257   67.8534 C   0  0  0  0  0
    2.9593   20.5036   68.1949 C   0  0  0  0  0
    4.3387   20.2943   68.7260 C   0  0  0  0  0
    5.2360   19.6959   67.6596 C   0  0  0  0  0
    4.9237   21.6039   69.2187 C   0  0  0  0  0
   -0.8094   24.4820   67.5266 C   0  0  0  0  0
    0.5646   24.6946   68.1327 C   0  0  0  0  0
   -3.6768   22.0166   67.8310 N   0  0  0  0  0
   -0.8928   22.0474   67.8671 N   0  0  0  0  0
   -3.9525   16.5904   68.5145 N   0  0  0  0  0
   -4.8012   19.4286   67.9366 N   0  0  0  0  0
    1.8635   19.8289   68.8160 N   0  0  0  0  0
   -3.6248   24.3414   67.6372 O   0  0  0  0  0
    0.2226   21.8307   69.9079 O   0  0  0  0  0
   -6.2092   16.2515   68.9119 O   0  0  0  0  0
   -6.8326   20.2793   68.1465 O   0  0  0  0  0
    2.7640   21.2677   67.2095 O   0  0  0  0  0
   -0.6909   24.2611   66.1526 O   0  0  0  0  0
  1  2  1  0  0  0
  2  3  1  0  0  0
  2  4  1  0  0  0
  5  4  1  0  0  0
  5 24  1  0  0  0
  5 17  1  0  0  0
  7  6  1  0  0  0
  7 25  1  0  0  0
  7 22  1  0  0  0
  9  8  1  0  0  0
  9 10  1  0  0  0
  9 28  1  0  0  0
 10 11  1  0  0  0
 11 12  1  0  0  0
 12 13  1  0  0  0
 13 26  1  0  0  0
 14 15  1  0  0  0
 15 27  1  0  0  0
 16 32  1  0  0  0
 17 32  1  0  0  0
 19 18  1  0  0  0
 19 20  1  0  0  0
 19 21  1  0  0  0
 22 23  1  0  0  0
 22 34  1  0  0  0
 24  6  1  0  0  0
 25  8  1  0  0  0
 26 14  1  0  0  0
 28 18  1  0  0  0
  6 29  2  0  0  0
  8 30  2  0  0  0
 14 31  2  0  0  0
 15 16  2  0  0  0
 17 27  2  0  0  0
 18 33  2  0  0  0
M  END
> <rmsd>
0.430529952

$$$$
MolPort-046-763-626 MolPort-047-945-838 CSSS06256040279 MCULE-1376694040 PubChem-131676367 PubChem-162639144


 34 37  0  0  0  0  0  0  0  0999 V2000
  -10.0783   23.3173   64.1204 C   0  0  0  0  0
  -10.3179   23.4248   66.5901 C   0  0  0  0  0
   -8.0151   23.5523   65.5266 C   0  0  0  0  0
   -5.8792   23.6778   64.4469 C   0  0  0  0  0
   -5.9926   23.7628   66.7722 C   0  0  0  0  0
   -7.3410   23.6533   66.7490 C   0  0  0  0  0
   -6.7059   23.7551   68.7796 C   0  0  0  0  0
   -4.2070   23.9087   68.5595 C   0  0  0  0  0
   -3.5660   22.5412   68.7165 C   0  0  0  0  0
   -2.1161   22.9160   68.6409 C   0  0  0  0  0
   -2.1031   24.1610   67.7515 C   0  0  0  0  0
   -1.6758   23.8960   66.3105 C   0  0  0  0  0
   -0.2026   21.2923   68.9178 C   0  0  0  0  0
    0.6080   20.1727   68.3575 C   0  0  0  0  0
    0.3765   18.9017   69.1641 C   0  0  0  0  0
    0.9032   17.7019   68.4491 C   0  0  0  0  0
    0.3253   17.2816   67.2449 C   0  0  0  0  0
    0.8165   16.1487   66.5896 C   0  0  0  0  0
    1.8838   15.4254   67.1328 C   0  0  0  0  0
    2.4561   15.8462   68.3447 C   0  0  0  0  0
    1.9652   16.9789   69.0002 C   0  0  0  0  0
    3.4308   13.5059   66.9318 C   0  0  0  0  0
   -9.4474   23.4318   65.4250 N   0  0  0  0  0
   -7.2450   23.5691   64.3940 N   0  0  0  0  0
   -5.2374   23.7748   65.6481 N   0  0  0  0  0
   -7.8228   23.6460   68.0072 N   0  0  0  0  0
   -5.5717   23.8359   68.0417 N   0  0  0  0  0
   -1.2811   21.8237   68.1494 N   0  0  0  0  0
    2.0186   20.5259   68.3688 N   0  0  0  0  0
   -3.3955   24.7250   67.7452 O   0  0  0  0  0
   -0.2868   23.7892   66.2374 O   0  0  0  0  0
    0.0555   21.7550   70.0628 O   0  0  0  0  0
    2.3527   14.2982   66.4527 O   0  0  0  0  0
   -3.9136   21.7070   67.6464 O   0  0  0  0  0
  1 23  1  0  0  0
  2 23  1  0  0  0
  4 24  1  0  0  0
  5 25  1  0  0  0
  6 26  1  0  0  0
  6  3  1  0  0  0
  7 27  1  0  0  0
  8 27  1  0  0  0
  8  9  1  0  0  0
  8 30  1  0  0  0
  9 10  1  0  0  0
  9 34  1  0  0  0
 10 11  1  0  0  0
 10 28  1  0  0  0
 11 30  1  0  0  0
 11 12  1  0  0  0
 12 31  1  0  0  0
 14 13  1  0  0  0
 14 15  1  0  0  0
 14 29  1  0  0  0
 15 16  1  0  0  0
 17 18  1  0  0  0
 19 20  1  0  0  0
 19 33  1  0  0  0
 21 16  1  0  0  0
 22 33  1  0  0  0
 23  3  1  0  0  0
 27  5  1  0  0  0
 28 13  1  0  0  0
  3 24  2  0  0  0
  4 25  2  0  0  0
  5  6  2  0  0  0
  7 26  2  0  0  0
 13 32  2  0  0  0
 16 17  2  0  0  0
 18 19  2  0  0  0
 20 21  2  0  0  0
M  END
> <rmsd>
0.595179677

$$$$
MolPort-046-754-446 1772713263 MCULE-4531210556 PubChem-137342756 ZINC001772713263


 38 40  0  0  0  0  0  0  0  0999 V2000
    1.5749   24.4541   68.7018 C   0  0  0  0  0
    2.8421   23.6471   68.4948 C   0  0  0  0  0
    3.1932   23.5661   67.0194 C   0  0  0  0  0
    2.7574   22.2633   69.1444 C   0  0  0  0  0
    1.8114   21.2954   68.4317 C   0  0  0  0  0
    1.7044   18.7932   68.0377 C   0  0  0  0  0
    2.0584   17.4080   68.4723 C   0  0  0  0  0
    3.5359   17.1599   68.2412 C   0  0  0  0  0
    0.4137   17.1360   70.4022 C   0  0  0  0  0
   -0.7755   17.3695   69.5295 C   0  0  0  0  0
   -2.3582   18.9592   68.8701 C   0  0  0  0  0
   -2.9733   20.3050   69.1896 C   0  0  0  0  0
   -3.8111   20.7824   68.0232 C   0  0  0  0  0
   -3.9011   23.2168   67.3395 C   0  0  0  0  0
   -3.2377   22.9318   66.0277 C   0  0  0  0  0
   -0.8476   25.4662   65.4007 C   0  0  0  0  0
   -0.4550   26.8327   65.0248 C   0  0  0  0  0
    0.9001   27.1887   64.9667 C   0  0  0  0  0
    1.2735   28.4871   64.6072 C   0  0  0  0  0
    0.2945   29.4375   64.3042 C   0  0  0  0  0
   -1.0582   29.0897   64.3615 C   0  0  0  0  0
   -1.4319   27.7913   64.7204 C   0  0  0  0  0
   -0.7705   23.4483   65.9832 C   0  0  0  0  0
   -0.2529   22.1170   66.4299 C   0  0  0  0  0
   -0.8180   20.9992   65.5724 C   0  0  0  0  0
    0.3821   21.5521   68.8142 C   0  0  0  0  0
    2.1799   19.9269   68.7709 N   0  0  0  0  0
    1.7452   17.2033   69.8814 N   0  0  0  0  0
   -1.4316   18.6020   69.9281 N   0  0  0  0  0
   -4.2081   22.1621   68.2535 N   0  0  0  0  0
   -2.0681   23.7819   65.8368 N   0  0  0  0  0
   -2.1287   25.0475   65.4675 N   0  0  0  0  0
    0.0370   24.4933   65.7196 N   0  0  0  0  0
   -0.5918   21.8981   67.8270 N   0  0  0  0  0
    1.0036   18.9502   67.0033 O   0  0  0  0  0
    0.2421   16.8848   71.6234 O   0  0  0  0  0
   -4.2428   24.3950   67.6219 O   0  0  0  0  0
    0.0285   21.4488   70.0187 O   0  0  0  0  0
  1  2  1  0  0  0
  2  3  1  0  0  0
  2  4  1  0  0  0
  5  4  1  0  0  0
  5 27  1  0  0  0
  5 26  1  0  0  0
  7  6  1  0  0  0
  7  8  1  0  0  0
  7 28  1  0  0  0
 10  9  1  0  0  0
 10 29  1  0  0  0
 11 29  1  0  0  0
 11 12  1  0  0  0
 12 13  1  0  0  0
 13 30  1  0  0  0
 15 14  1  0  0  0
 15 31  1  0  0  0
 16 17  1  0  0  0
 16 33  1  0  0  0
 18 19  1  0  0  0
 20 21  1  0  0  0
 22 17  1  0  0  0
 23 31  1  0  0  0
 24 23  1  0  0  0
 24 25  1  0  0  0
 24 34  1  0  0  0
 27  6  1  0  0  0
 28  9  1  0  0  0
 30 14  1  0  0  0
 31 32  1  0  0  0
 34 26  1  0  0  0
  6 35  2  0  0  0
  9 36  2  0  0  0
 14 37  2  0  0  0
 16 32  2  0  0  0
 17 18  2  0  0  0
 19 20  2  0  0  0
 21 22  2  0  0  0
 23 33  2  0  0  0
 26 38  2  0  0  0
M  END
> <rmsd>
0.537253141

$$$$
Molport-047-043-244 643564816 MCULE-2387310681 PubChem-133076670


 37 39  0  0  0  0  0  0  0  0999 V2000
   -3.5257   25.3838   65.6418 C   0  0  0  0  0
   -4.5896   24.7506   66.5161 C   0  0  0  0  0
   -4.6731   25.8829   68.5637 C   0  0  0  0  0
   -5.9360   25.4819   69.3133 C   0  0  0  0  0
   -6.0879   23.9957   69.1008 C   0  0  0  0  0
   -4.7226   23.5744   68.6261 C   0  0  0  0  0
   -4.7406   22.2562   67.8526 C   0  0  0  0  0
   -2.7143   21.5641   66.5142 C   0  0  0  0  0
   -1.2592   21.2294   66.4955 C   0  0  0  0  0
   -1.0844   19.7579   66.8332 C   0  0  0  0  0
    0.3760   19.3476   66.7181 C   0  0  0  0  0
    0.8656   18.8057   68.0227 C   0  0  0  0  0
    2.5840   20.6743   68.3190 C   0  0  0  0  0
    3.0058   21.5442   69.4860 C   0  0  0  0  0
    1.3019   20.7009   71.2106 C   0  0  0  0  0
    0.2060   21.7470   71.3078 C   0  0  0  0  0
    0.1968   23.7303   69.8193 C   0  0  0  0  0
    0.5729   24.5732   70.8814 C   0  0  0  0  0
    0.7543   25.9404   70.6762 C   0  0  0  0  0
    0.5696   26.4835   69.4039 C   0  0  0  0  0
    0.2027   25.6575   68.3399 C   0  0  0  0  0
    0.0137   24.2791   68.5269 C   0  0  0  0  0
   -0.3991   23.4600   67.3624 C   0  0  0  0  0
    1.4678   20.0433   72.5666 C   0  0  0  0  0
    3.8101   20.3173   67.4614 C   0  0  0  0  0
    4.7194   19.2961   68.1296 C   0  0  0  0  0
    3.4154   19.8405   66.0779 C   0  0  0  0  0
   -4.1235   24.7020   67.9031 N   0  0  0  0  0
   -3.3860   21.7386   67.7627 N   0  0  0  0  0
    1.8945   19.4646   68.7632 N   0  0  0  0  0
    2.5574   21.3357   70.8333 N   0  0  0  0  0
   -0.5606   22.0435   67.4836 N   0  0  0  0  0
   -3.3374   21.6950   65.4286 O   0  0  0  0  0
    0.3535   17.7518   68.4879 O   0  0  0  0  0
    3.7929   22.5026   69.2663 O   0  0  0  0  0
   -0.0009   22.3621   70.0420 O   0  0  0  0  0
   -0.6233   24.0157   66.2533 O   0  0  0  0  0
  1  2  1  0  0  0
  2 28  1  0  0  0
  3 28  1  0  0  0
  3  4  1  0  0  0
  4  5  1  0  0  0
  5  6  1  0  0  0
  6  7  1  0  0  0
  6 28  1  0  0  0
  7 29  1  0  0  0
  9  8  1  0  0  0
  9 10  1  0  0  0
  9 32  1  0  0  0
 10 11  1  0  0  0
 11 12  1  0  0  0
 12 30  1  0  0  0
 13 30  1  0  0  0
 13 14  1  0  0  0
 13 25  1  0  0  0
 14 31  1  0  0  0
 15 31  1  0  0  0
 15 16  1  0  0  0
 15 24  1  0  0  0
 16 36  1  0  0  0
 17 36  1  0  0  0
 18 19  1  0  0  0
 20 21  1  0  0  0
 22 23  1  0  0  0
 22 17  1  0  0  0
 23 32  1  0  0  0
 25 26  1  0  0  0
 25 27  1  0  0  0
 29  8  1  0  0  0
  8 33  2  0  0  0
 12 34  2  0  0  0
 14 35  2  0  0  0
 17 18  2  0  0  0
 19 20  2  0  0  0
 21 22  2  0  0  0
 23 37  2  0  0  0
M  END
> <rmsd>
0.594155371

$$$$
MolPort-002-756-369 6448955 CSSS00132534583 MCULE-5316244891 ZINC000006448955 ZINC06448955


 24 26  0  0  0  0  0  0  0  0999 V2000
    3.1293   18.1995   65.5042 F   0  0  0  0  0
    1.3065   16.9209   65.8601 F   0  0  0  0  0
    3.1046   16.7191   67.2020 F   0  0  0  0  0
    2.3377   17.6092   66.4718 C   0  0  0  0  0
    1.7728   18.6641   67.3686 C   0  0  0  0  0
    0.7226   20.3768   68.1427 C   0  0  0  0  0
    0.9614   19.7061   66.9568 C   0  0  0  0  0
   -0.0989   21.5834   68.2849 C   0  0  0  0  0
   -2.8207   23.1224   67.8489 C   0  0  0  0  0
   -3.3484   25.3800   67.3822 C   0  0  0  0  0
   -4.2388   26.4535   67.4776 C   0  0  0  0  0
   -3.9095   27.6876   66.9087 C   0  0  0  0  0
   -2.6911   27.8502   66.2420 C   0  0  0  0  0
   -1.7977   26.7793   66.1426 C   0  0  0  0  0
   -2.1217   25.5391   66.7124 C   0  0  0  0  0
   -1.2566   24.4396   66.6395 C   0  0  0  0  0
    1.9914   18.7214   68.6956 N   0  0  0  0  0
    1.3467   19.7725   69.1706 N   0  0  0  0  0
   -0.7201   22.1653   67.1343 N   0  0  0  0  0
   -1.6065   23.2545   67.2244 N   0  0  0  0  0
   -3.6695   24.1804   67.9235 N   0  0  0  0  0
   -0.2429   22.1137   69.4193 O   0  0  0  0  0
   -0.1492   24.5454   66.0418 O   0  0  0  0  0
   -3.3643   21.5501   68.5225 S   0  0  0  0  0
  4  1  1  0  0  0
  4  2  1  0  0  0
  4  3  1  0  0  0
  4  5  1  0  0  0
  6  8  1  0  0  0
  7  5  1  0  0  0
  8 19  1  0  0  0
  9 24  1  0  0  0
 10 21  1  0  0  0
 11 12  1  0  0  0
 13 14  1  0  0  0
 15 16  1  0  0  0
 15 10  1  0  0  0
 16 20  1  0  0  0
 18 17  1  0  0  0
 18  6  1  0  0  0
 19 20  1  0  0  0
 20  9  1  0  0  0
  5 17  2  0  0  0
  6  7  2  0  0  0
  8 22  2  0  0  0
  9 21  2  0  0  0
 10 11  2  0  0  0
 12 13  2  0  0  0
 14 15  2  0  0  0
 16 23  2  0  0  0
M  END
> <rmsd>
0.504761636

$$$$
MolPort-046-740-300 1772706087 MCULE-5631426479 PubChem-137334796 ZINC001772706087


 35 37  0  0  0  0  0  0  0  0999 V2000
   -1.8395   20.3991   63.0280 C   0  0  0  0  0
   -0.8484   21.0515   63.9676 C   0  0  0  0  0
    0.3970   20.1894   64.0527 C   0  0  0  0  0
   -1.4819   21.1913   65.3410 C   0  0  0  0  0
   -0.6806   22.1372   66.2232 C   0  0  0  0  0
    0.0382   21.5900   68.5803 C   0  0  0  0  0
    1.4610   21.3948   68.1467 C   0  0  0  0  0
    2.2214   22.7032   68.2298 C   0  0  0  0  0
    2.4448   19.0835   68.4839 C   0  0  0  0  0
    2.0285   18.6454   67.1109 C   0  0  0  0  0
    1.0697   17.4596   67.1676 C   0  0  0  0  0
   -0.2983   17.8928   67.5779 C   0  0  0  0  0
   -0.5887   18.1491   68.9230 C   0  0  0  0  0
   -1.8579   18.6012   69.2925 C   0  0  0  0  0
   -2.8449   18.8005   68.3227 C   0  0  0  0  0
   -2.5630   18.5015   66.9797 C   0  0  0  0  0
   -1.2940   18.0485   66.6101 C   0  0  0  0  0
   -5.0905   19.7348   67.7966 C   0  0  0  0  0
   -4.6277   20.9534   67.0102 C   0  0  0  0  0
   -3.7405   23.2750   67.4608 C   0  0  0  0  0
   -3.4468   23.4904   66.0026 C   0  0  0  0  0
   -4.5067   24.3946   65.3998 C   0  0  0  0  0
   -3.8710   25.7725   65.2874 C   0  0  0  0  0
   -2.3716   25.5492   65.3358 C   0  0  0  0  0
   -0.8835   23.5807   65.8643 C   0  0  0  0  0
   -0.9783   21.9095   67.6280 N   0  0  0  0  0
    2.1230   20.3895   68.9669 N   0  0  0  0  0
    3.2003   18.2869   66.3319 N   0  0  0  0  0
   -4.3069   22.0452   67.9167 N   0  0  0  0  0
   -2.1860   24.1930   65.8166 N   0  0  0  0  0
   -0.2654   21.5153   69.8006 O   0  0  0  0  0
    3.0734   18.2884   69.2321 O   0  0  0  0  0
   -4.0852   19.3149   68.7165 O   0  0  0  0  0
   -3.5137   24.1932   68.2934 O   0  0  0  0  0
    0.1370   24.2710   65.6011 O   0  0  0  0  0
  1  2  1  0  0  0
  2  3  1  0  0  0
  2  4  1  0  0  0
  5  4  1  0  0  0
  5 26  1  0  0  0
  5 25  1  0  0  0
  7  6  1  0  0  0
  7  8  1  0  0  0
  7 27  1  0  0  0
 10  9  1  0  0  0
 10 28  1  0  0  0
 10 11  1  0  0  0
 11 12  1  0  0  0
 13 14  1  0  0  0
 15 16  1  0  0  0
 15 33  1  0  0  0
 17 12  1  0  0  0
 18 33  1  0  0  0
 18 19  1  0  0  0
 19 29  1  0  0  0
 21 20  1  0  0  0
 21 22  1  0  0  0
 21 30  1  0  0  0
 22 23  1  0  0  0
 23 24  1  0  0  0
 24 30  1  0  0  0
 26  6  1  0  0  0
 27  9  1  0  0  0
 29 20  1  0  0  0
 30 25  1  0  0  0
  6 31  2  0  0  0
  9 32  2  0  0  0
 12 13  2  0  0  0
 14 15  2  0  0  0
 16 17  2  0  0  0
 20 34  2  0  0  0
 25 35  2  0  0  0
M  END
> <rmsd>
0.50625217

$$$$
MolPort-046-740-300 1772706087 MCULE-5631426479 PubChem-137334796 ZINC001772706087


 35 37  0  0  0  0  0  0  0  0999 V2000
   -1.8391   20.3993   63.0280 C   0  0  0  0  0
   -0.8480   21.0516   63.9677 C   0  0  0  0  0
    0.3974   20.1894   64.0529 C   0  0  0  0  0
   -1.4817   21.1914   65.3411 C   0  0  0  0  0
   -0.6804   22.1373   66.2234 C   0  0  0  0  0
    0.0382   21.5900   68.5805 C   0  0  0  0  0
    1.4611   21.3949   68.1470 C   0  0  0  0  0
    2.2214   22.7034   68.2301 C   0  0  0  0  0
    2.4448   19.0836   68.4843 C   0  0  0  0  0
    2.0285   18.6455   67.1112 C   0  0  0  0  0
    1.0698   17.4598   67.1679 C   0  0  0  0  0
   -0.2982   17.8929   67.5782 C   0  0  0  0  0
   -1.2940   18.0486   66.6103 C   0  0  0  0  0
   -2.5629   18.5017   66.9799 C   0  0  0  0  0
   -2.8449   18.8007   68.3228 C   0  0  0  0  0
   -1.8579   18.6013   69.2927 C   0  0  0  0  0
   -0.5886   18.1492   68.9232 C   0  0  0  0  0
   -5.0904   19.7350   67.7966 C   0  0  0  0  0
   -4.6276   20.9535   67.0102 C   0  0  0  0  0
   -3.7403   23.2752   67.4609 C   0  0  0  0  0
   -3.4466   23.4905   66.0026 C   0  0  0  0  0
   -4.5064   24.3947   65.3998 C   0  0  0  0  0
   -3.8708   25.7725   65.2873 C   0  0  0  0  0
   -2.3713   25.5492   65.3358 C   0  0  0  0  0
   -0.8832   23.5808   65.8644 C   0  0  0  0  0
   -0.9782   21.9096   67.6281 N   0  0  0  0  0
    2.1231   20.3897   68.9673 N   0  0  0  0  0
    3.2004   18.2871   66.3322 N   0  0  0  0  0
   -4.3069   22.0454   67.9167 N   0  0  0  0  0
   -2.1858   24.1931   65.8166 N   0  0  0  0  0
   -0.2655   21.5155   69.8007 O   0  0  0  0  0
    3.0734   18.2885   69.2325 O   0  0  0  0  0
   -4.0851   19.3151   68.7165 O   0  0  0  0  0
   -3.5136   24.1933   68.2933 O   0  0  0  0  0
    0.1372   24.2711   65.6012 O   0  0  0  0  0
  1  2  1  0  0  0
  2  3  1  0  0  0
  2  4  1  0  0  0
  5  4  1  0  0  0
  5 26  1  0  0  0
  5 25  1  0  0  0
  7  6  1  0  0  0
  7  8  1  0  0  0
  7 27  1  0  0  0
 10  9  1  0  0  0
 10 28  1  0  0  0
 10 11  1  0  0  0
 11 12  1  0  0  0
 13 14  1  0  0  0
 15 16  1  0  0  0
 15 33  1  0  0  0
 17 12  1  0  0  0
 18 33  1  0  0  0
 18 19  1  0  0  0
 19 29  1  0  0  0
 21 20  1  0  0  0
 21 22  1  0  0  0
 21 30  1  0  0  0
 22 23  1  0  0  0
 23 24  1  0  0  0
 24 30  1  0  0  0
 26  6  1  0  0  0
 27  9  1  0  0  0
 29 20  1  0  0  0
 30 25  1  0  0  0
  6 31  2  0  0  0
  9 32  2  0  0  0
 12 13  2  0  0  0
 14 15  2  0  0  0
 16 17  2  0  0  0
 20 34  2  0  0  0
 25 35  2  0  0  0
M  END
> <rmsd>
0.50639534

$$$$
MolPort-046-740-300 1772706087 MCULE-5631426479 PubChem-137334796 ZINC001772706087


 35 37  0  0  0  0  0  0  0  0999 V2000
    0.6315   19.7643   64.7289 C   0  0  0  0  0
   -0.7898   19.8287   65.2563 C   0  0  0  0  0
   -1.6661   18.9323   64.4084 C   0  0  0  0  0
   -1.3242   21.2497   65.1790 C   0  0  0  0  0
   -0.5992   22.1825   66.1413 C   0  0  0  0  0
    0.0469   21.4867   68.4880 C   0  0  0  0  0
    1.4392   21.1094   68.0638 C   0  0  0  0  0
    2.2593   22.3552   67.7915 C   0  0  0  0  0
    2.4252   18.9313   68.9344 C   0  0  0  0  0
    2.0377   18.1751   67.6983 C   0  0  0  0  0
    1.1635   16.9764   68.0540 C   0  0  0  0  0
   -0.2856   17.3289   67.9901 C   0  0  0  0  0
   -0.8108   18.3325   68.8107 C   0  0  0  0  0
   -2.1527   18.6968   68.7003 C   0  0  0  0  0
   -2.9886   18.0488   67.7778 C   0  0  0  0  0
   -2.4744   17.0074   66.9980 C   0  0  0  0  0
   -1.1249   16.6522   67.0990 C   0  0  0  0  0
   -4.8201   19.6736   68.1115 C   0  0  0  0  0
   -4.3219   20.8136   67.2415 C   0  0  0  0  0
   -3.7247   23.2534   67.4885 C   0  0  0  0  0
   -3.4344   23.3779   66.0181 C   0  0  0  0  0
   -4.5469   24.1652   65.3499 C   0  0  0  0  0
   -4.0118   25.5788   65.1725 C   0  0  0  0  0
   -2.5005   25.4664   65.2400 C   0  0  0  0  0
   -0.8855   23.6205   65.8314 C   0  0  0  0  0
   -0.9329   21.8859   67.5265 N   0  0  0  0  0
    2.0998   20.3146   69.0910 N   0  0  0  0  0
    3.2315   17.7184   67.0093 N   0  0  0  0  0
   -4.1996   22.0228   68.0379 N   0  0  0  0  0
   -2.2236   24.1509   65.7856 N   0  0  0  0  0
   -0.2677   21.4720   69.7081 O   0  0  0  0  0
    3.0505   18.3420   69.8560 O   0  0  0  0  0
   -4.3210   18.4391   67.6083 O   0  0  0  0  0
   -3.5903   24.2520   68.2450 O   0  0  0  0  0
    0.0920   24.3803   65.5986 O   0  0  0  0  0
  1  2  1  0  0  0
  2  3  1  0  0  0
  2  4  1  0  0  0
  5  4  1  0  0  0
  5 26  1  0  0  0
  5 25  1  0  0  0
  7  6  1  0  0  0
  7  8  1  0  0  0
  7 27  1  0  0  0
 10  9  1  0  0  0
 10 28  1  0  0  0
 10 11  1  0  0  0
 11 12  1  0  0  0
 13 14  1  0  0  0
 15 16  1  0  0  0
 15 33  1  0  0  0
 17 12  1  0  0  0
 18 33  1  0  0  0
 18 19  1  0  0  0
 19 29  1  0  0  0
 21 20  1  0  0  0
 21 22  1  0  0  0
 21 30  1  0  0  0
 22 23  1  0  0  0
 23 24  1  0  0  0
 24 30  1  0  0  0
 26  6  1  0  0  0
 27  9  1  0  0  0
 29 20  1  0  0  0
 30 25  1  0  0  0
  6 31  2  0  0  0
  9 32  2  0  0  0
 12 13  2  0  0  0
 14 15  2  0  0  0
 16 17  2  0  0  0
 20 34  2  0  0  0
 25 35  2  0  0  0
M  END
> <rmsd>
0.47677502

$$$$
