MolPort-027-823-128 91695671 CSSS00159614822 MCULE-7714111248 ZINC000091695671


 23 24  0  0  0  0  0  0  0  0999 V2000
   -1.0044   21.7074   66.6090 C   0  0  0  0  0
   -0.7778   20.1341   69.6399 C   0  0  0  0  0
    0.0099   19.3670   68.5869 C   0  0  0  0  0
    2.2910   19.4384   69.7022 C   0  0  0  0  0
    3.6895   19.9233   69.6804 C   0  0  0  0  0
    4.1339   20.6876   68.5973 C   0  0  0  0  0
    6.2866   20.8770   69.5572 C   0  0  0  0  0
    4.6121   19.6551   70.7096 C   0  0  0  0  0
    7.6663   21.3868   69.4861 C   0  0  0  0  0
    9.3274   22.6190   68.3079 C   0  0  0  0  0
   10.2623   22.3680   69.3138 C   0  0  0  0  0
    9.8822   21.6111   70.4227 C   0  0  0  0  0
    8.5802   21.1165   70.5135 C   0  0  0  0  0
   -1.8894   21.9962   67.7250 N   0  0  0  0  0
    1.4162   19.7471   68.6114 N   0  0  0  0  0
    5.4104   21.1465   68.5540 N   0  0  0  0  0
    5.8798   20.1357   70.6227 N   0  0  0  0  0
    8.0630   22.1286   68.4138 N   0  0  0  0  0
   -0.9802   21.8528   69.1946 S   0  0  0  0  0
    0.3640   22.5110   69.0437 O   0  0  0  0  0
   -1.7350   22.5405   70.2962 O   0  0  0  0  0
    1.8628   18.7550   70.6718 O   0  0  0  0  0
    4.2524   18.9036   71.8222 O   0  0  0  0  0
  1 14  1  0  0  0
  2  3  1  0  0  0
  3 15  1  0  0  0
  4  5  1  0  0  0
  6 16  1  0  0  0
  7 17  1  0  0  0
  7  9  1  0  0  0
  8 23  1  0  0  0
  8  5  1  0  0  0
 10 18  1  0  0  0
 11 12  1  0  0  0
 13  9  1  0  0  0
 15  4  1  0  0  0
 19 14  1  0  0  0
 19  2  1  0  0  0
  4 22  2  0  0  0
  5  6  2  0  0  0
  7 16  2  0  0  0
  8 17  2  0  0  0
  9 18  2  0  0  0
 10 11  2  0  0  0
 12 13  2  0  0  0
 19 20  2  0  0  0
 19 21  2  0  0  0
M  END
> <rmsd>
0.737227082

$$$$
MolPort-002-536-294 CSSS00160698753 LN00345131 MCULE-8434124838 PubChem-16408404


 32 34  0  0  0  0  0  0  0  0999 V2000
    9.0084   25.2394   64.8058 C   0  0  0  0  0
    8.2323   26.3665   64.4885 C   0  0  0  0  0
    8.7804   27.4604   63.8024 C   0  0  0  0  0
    7.9878   28.5698   63.4985 C   0  0  0  0  0
    6.6434   28.5950   63.8767 C   0  0  0  0  0
    6.0873   27.5109   64.5603 C   0  0  0  0  0
    6.8724   26.3885   64.8727 C   0  0  0  0  0
    6.3415   25.2840   65.5589 C   0  0  0  0  0
    7.1939   24.1918   65.8371 C   0  0  0  0  0
    6.6973   23.0775   66.5183 C   0  0  0  0  0
    5.3565   23.0344   66.9314 C   0  0  0  0  0
    4.5151   24.1156   66.6534 C   0  0  0  0  0
    5.0011   25.2343   65.9723 C   0  0  0  0  0
    5.6145   20.8032   67.9984 C   0  0  0  0  0
    6.4565   21.1251   69.1940 C   0  0  0  0  0
    6.7026   21.8131   71.5915 C   0  0  0  0  0
    4.4177   21.4977   70.6458 C   0  0  0  0  0
    3.8104   20.1007   70.6310 C   0  0  0  0  0
    2.2950   20.1856   70.4684 C   0  0  0  0  0
    1.9189   20.7503   69.0947 C   0  0  0  0  0
    0.4379   21.1165   69.0322 C   0  0  0  0  0
    0.1026   21.7192   67.6778 C   0  0  0  0  0
   10.2245   25.1864   64.4783 O   0  0  0  0  0
    4.8341   21.9315   67.6147 O   0  0  0  0  0
    7.7100   21.1229   69.0655 O   0  0  0  0  0
    4.1273   19.4497   71.8250 O   0  0  0  0  0
    1.7182   18.9242   70.6451 O   0  0  0  0  0
    2.2338   19.8277   68.0914 O   0  0  0  0  0
   -1.2769   21.8898   67.5631 O   0  0  0  0  0
    0.1338   22.0416   70.0338 O   0  0  0  0  0
    8.4672   24.2137   65.4567 O   0  0  0  0  0
    5.8627   21.4327   70.4674 N   0  0  0  0  0
  1  2  1  0  0  0
  1 31  1  0  0  0
  3  4  1  0  0  0
  5  6  1  0  0  0
  7  8  1  0  0  0
  7  2  1  0  0  0
  9 10  1  0  0  0
  9 31  1  0  0  0
 11 12  1  0  0  0
 11 24  1  0  0  0
 13  8  1  0  0  0
 14 24  1  0  0  0
 14 15  1  0  0  0
 15 32  1  0  0  0
 16 32  1  0  0  0
 17 32  1  0  0  0
 17 18  1  0  0  0
 18 26  1  0  0  0
 18 19  1  0  0  0
 19 27  1  0  0  0
 19 20  1  0  0  0
 20 28  1  0  0  0
 20 21  1  0  0  0
 21 22  1  0  0  0
 21 30  1  0  0  0
 22 29  1  0  0  0
  1 23  2  0  0  0
  2  3  2  0  0  0
  4  5  2  0  0  0
  6  7  2  0  0  0
  8  9  2  0  0  0
 10 11  2  0  0  0
 12 13  2  0  0  0
 15 25  2  0  0  0
M  END
> <rmsd>
0.556915879

$$$$
MolPort-029-943-676 MolPort-047-147-583 225503860 CSSS02125601352 MCULE-1522845571 MCULE-7367954292 PubChem-75529458 ZINC000225503860


 25 28  0  0  0  0  0  0  0  0999 V2000
    3.7152   19.2751   71.9926 O   0  0  0  0  0
    0.2780   21.6585   69.8303 O   0  0  0  0  0
    1.6099   19.2338   70.4104 O   0  0  0  0  0
    3.9173   19.8160   70.7206 C   0  0  0  0  0
    3.8726   21.3362   70.7700 C   0  0  0  0  0
    5.2622   21.9473   70.9583 C   0  0  0  0  0
    7.2819   20.7240   70.1640 C   0  0  0  0  0
    7.8784   20.5962   68.9235 C   0  0  0  0  0
    9.0888   19.7784   68.6103 C   0  0  0  0  0
   10.1052   20.6222   67.8628 C   0  0  0  0  0
   10.2956   20.3442   69.3365 C   0  0  0  0  0
    3.2041   21.8098   69.4874 C   0  0  0  0  0
    2.7754   20.5496   68.7528 C   0  0  0  0  0
    0.2842   21.2138   68.6500 C   0  0  0  0  0
   -2.1817   21.7185   68.3880 C   0  0  0  0  0
   -2.7783   20.7036   69.3450 C   0  0  0  0  0
   -4.2605   20.7001   69.0586 C   0  0  0  0  0
   -4.3762   21.0184   67.5861 C   0  0  0  0  0
   -3.1737   21.8788   67.2493 C   0  0  0  0  0
    2.8305   19.3918   69.7446 C   0  0  0  0  0
    6.2050   21.4968   69.9417 N   0  0  0  0  0
    7.1556   21.2709   68.0068 N   0  0  0  0  0
    6.1448   21.8192   68.6603 N   0  0  0  0  0
    1.4882   20.6970   68.0703 N   0  0  0  0  0
   -0.9116   21.2329   67.8687 N   0  0  0  0  0
  4  1  1  0  0  0
  4  5  1  0  0  0
  5  6  1  0  0  0
  5 12  1  0  0  0
  6 21  1  0  0  0
  8 22  1  0  0  0
  9  8  1  0  0  0
  9 10  1  0  0  0
 10 11  1  0  0  0
 11  9  1  0  0  0
 12 13  1  0  0  0
 13 24  1  0  0  0
 13 20  1  0  0  0
 14 25  1  0  0  0
 15 25  1  0  0  0
 15 16  1  0  0  0
 16 17  1  0  0  0
 17 18  1  0  0  0
 18 19  1  0  0  0
 19 15  1  0  0  0
 20  3  1  0  0  0
 20  4  1  0  0  0
 21  7  1  0  0  0
 21 23  1  0  0  0
 24 14  1  0  0  0
  7  8  2  0  0  0
 14  2  2  0  0  0
 22 23  2  0  0  0
M  END
> <rmsd>
0.745528221

$$$$
MolPort-029-943-677 MolPort-047-147-584 225503909 CSSS02125601353 MCULE-2149338079 MCULE-7729366200 PubChem-146117837 PubChem-75529459 ZINC000225503909


 30 34  0  0  0  0  0  0  0  0999 V2000
    3.7244   18.8913   71.9617 O   0  0  0  0  0
   -0.1515   22.0463   69.7574 O   0  0  0  0  0
   -5.4327   24.6008   66.9781 O   0  0  0  0  0
   -4.1156   24.5772   69.4055 O   0  0  0  0  0
    1.3429   18.5144   70.9102 O   0  0  0  0  0
    3.7243   18.7663   70.5698 C   0  0  0  0  0
    4.5495   19.8958   69.9779 C   0  0  0  0  0
    5.4341   19.3531   68.8653 C   0  0  0  0  0
    7.8394   19.9833   68.7594 C   0  0  0  0  0
    8.4946   21.1368   68.3686 C   0  0  0  0  0
    9.9753   21.3351   68.3205 C   0  0  0  0  0
   10.3580   22.5556   69.1386 C   0  0  0  0  0
   10.5636   21.1714   69.7111 C   0  0  0  0  0
    3.5712   20.9175   69.4123 C   0  0  0  0  0
    2.1759   20.4249   69.7396 C   0  0  0  0  0
    0.1261   21.4454   68.6841 C   0  0  0  0  0
   -1.9259   22.3304   67.4238 C   0  0  0  0  0
   -2.4190   23.0964   68.4925 C   0  0  0  0  0
   -3.5977   23.8319   68.3429 C   0  0  0  0  0
   -4.2779   23.8270   67.1180 C   0  0  0  0  0
   -5.7652   25.5998   67.9435 C   0  0  0  0  0
   -5.4448   25.1010   69.3543 C   0  0  0  0  0
   -3.8018   23.0553   66.0569 C   0  0  0  0  0
   -2.6284   22.3101   66.2122 C   0  0  0  0  0
    2.3210   18.9468   70.0107 C   0  0  0  0  0
    6.5354   20.2646   68.5942 N   0  0  0  0  0
    7.5898   22.0507   67.9636 N   0  0  0  0  0
    6.4006   21.4909   68.1164 N   0  0  0  0  0
    1.2974   20.6336   68.6009 N   0  0  0  0  0
   -0.7217   21.5586   67.5337 N   0  0  0  0  0
  6  1  1  0  0  0
  6  7  1  0  0  0
  7  8  1  0  0  0
  7 14  1  0  0  0
  8 26  1  0  0  0
 10 27  1  0  0  0
 11 10  1  0  0  0
 11 12  1  0  0  0
 12 13  1  0  0  0
 13 11  1  0  0  0
 14 15  1  0  0  0
 15 29  1  0  0  0
 15 25  1  0  0  0
 16 30  1  0  0  0
 18 19  1  0  0  0
 19  4  1  0  0  0
 20  3  1  0  0  0
 20 23  1  0  0  0
 21  3  1  0  0  0
 21 22  1  0  0  0
 22  4  1  0  0  0
 24 17  1  0  0  0
 25  5  1  0  0  0
 25  6  1  0  0  0
 26  9  1  0  0  0
 26 28  1  0  0  0
 29 16  1  0  0  0
 30 17  1  0  0  0
  9 10  2  0  0  0
 16  2  2  0  0  0
 17 18  2  0  0  0
 19 20  2  0  0  0
 23 24  2  0  0  0
 27 28  2  0  0  0
M  END
> <rmsd>
0.72757107

$$$$
MolPort-051-714-510


 39 41  0  0  0  0  0  0  0  0999 V2000
    4.6837   27.1307   68.4501 C   0  0  0  0  0
    3.7704   26.0241   68.9320 C   0  0  0  0  0
    2.5392   26.6376   69.5693 C   0  0  0  0  0
    3.3678   25.1527   67.7488 C   0  0  0  0  0
    3.1259   23.6917   68.1311 C   0  0  0  0  0
    1.2198   22.4371   69.2442 C   0  0  0  0  0
    1.3198   21.3000   68.2689 C   0  0  0  0  0
    2.0588   19.3375   69.6967 C   0  0  0  0  0
    3.4615   19.8723   69.7721 C   0  0  0  0  0
    4.4614   19.0591   68.9569 C   0  0  0  0  0
    4.1218   19.1327   67.4779 C   0  0  0  0  0
    5.3233   18.7465   66.6381 C   0  0  0  0  0
    6.0903   19.9900   66.2134 C   0  0  0  0  0
    7.2526   20.9797   68.2763 C   0  0  0  0  0
    6.1445   21.8836   68.6430 C   0  0  0  0  0
    6.0143   22.5204   69.8625 C   0  0  0  0  0
    4.3853   23.0359   68.6024 C   0  0  0  0  0
    4.2401   19.0086   72.0660 C   0  0  0  0  0
    4.6605   19.3617   73.4228 C   0  0  0  0  0
    4.9546   18.4381   74.3338 C   0  0  0  0  0
    5.3869   18.7805   75.6952 C   0  0  0  0  0
    5.6457   17.7462   76.6011 C   0  0  0  0  0
    6.0697   18.0381   77.9012 C   0  0  0  0  0
    6.2382   19.3676   78.3013 C   0  0  0  0  0
    5.9814   20.4061   77.4021 C   0  0  0  0  0
    5.5571   20.1146   76.1023 C   0  0  0  0  0
    0.3679   21.5112   67.0935 C   0  0  0  0  0
    0.7154   20.5702   65.9571 C   0  0  0  0  0
    2.0724   23.5775   69.1325 N   0  0  0  0  0
    1.0664   20.0211   68.9282 N   0  0  0  0  0
    7.2458   20.1949   67.0772 N   0  0  0  0  0
    5.1192   22.2118   67.8328 N   0  0  0  0  0
    3.9072   20.0591   71.1509 N   0  0  0  0  0
    0.3365   22.4179   70.1418 O   0  0  0  0  0
    1.7569   18.2582   70.2713 O   0  0  0  0  0
    8.2545   20.9060   69.0373 O   0  0  0  0  0
    4.9086   23.2214   69.7925 O   0  0  0  0  0
    4.1795   17.8008   71.7102 O   0  0  0  0  0
   -0.9592   21.3141   67.4817 O   0  0  0  0  0
  1  2  1  0  0  0
  2  3  1  0  0  0
  2  4  1  0  0  0
  5  4  1  0  0  0
  5 29  1  0  0  0
  5 17  1  0  0  0
  7  6  1  0  0  0
  7 30  1  0  0  0
  7 27  1  0  0  0
  9  8  1  0  0  0
  9 10  1  0  0  0
  9 33  1  0  0  0
 10 11  1  0  0  0
 11 12  1  0  0  0
 12 13  1  0  0  0
 13 31  1  0  0  0
 14 15  1  0  0  0
 15 32  1  0  0  0
 16 37  1  0  0  0
 17 37  1  0  0  0
 18 19  1  0  0  0
 20 21  1  0  0  0
 22 23  1  0  0  0
 24 25  1  0  0  0
 26 21  1  0  0  0
 27 28  1  0  0  0
 27 39  1  0  0  0
 29  6  1  0  0  0
 30  8  1  0  0  0
 31 14  1  0  0  0
 33 18  1  0  0  0
  6 34  2  0  0  0
  8 35  2  0  0  0
 14 36  2  0  0  0
 15 16  2  0  0  0
 17 32  2  0  0  0
 18 38  2  0  0  0
 19 20  2  0  0  0
 21 22  2  0  0  0
 23 24  2  0  0  0
 25 26  2  0  0  0
M  END
> <rmsd>
0.739586711

$$$$
MolPort-027-883-588 91907733 CSSS00159627305 MCULE-2675544204 ZINC000091907733


 28 30  0  0  0  0  0  0  0  0999 V2000
    0.6103   24.6316   69.7777 C   0  0  0  0  0
   -0.2757   23.6275   69.1342 C   0  0  0  0  0
   -1.2508   24.0373   68.2257 C   0  0  0  0  0
   -2.0604   23.0646   67.6405 C   0  0  0  0  0
   -0.9368   21.3753   68.8537 C   0  0  0  0  0
   -0.7466   19.9323   69.1752 C   0  0  0  0  0
    0.1814   19.2660   68.1666 C   0  0  0  0  0
    2.3687   19.6263   69.4104 C   0  0  0  0  0
    3.7015   20.2683   69.4545 C   0  0  0  0  0
    4.5576   20.1852   70.5698 C   0  0  0  0  0
    6.1736   21.5057   69.4526 C   0  0  0  0  0
    7.5200   22.1443   69.4380 C   0  0  0  0  0
    9.0891   20.2222   69.3230 C   0  0  0  0  0
    9.9210   19.4244   68.5298 C   0  0  0  0  0
   10.5806   18.3232   69.0834 C   0  0  0  0  0
   10.4113   18.0140   70.4358 C   0  0  0  0  0
    9.5835   18.8063   71.2355 C   0  0  0  0  0
    8.9247   19.9079   70.6823 C   0  0  0  0  0
    4.1506   20.9966   68.3475 C   0  0  0  0  0
   -2.9499   23.3995   66.8161 O   0  0  0  0  0
    1.9628   18.9222   70.3745 O   0  0  0  0  0
    4.1896   19.4809   71.7100 O   0  0  0  0  0
    8.4470   21.3197   68.7394 O   0  0  0  0  0
   -1.8890   21.7553   67.9605 N   0  0  0  0  0
    1.5322   19.8060   68.2621 N   0  0  0  0  0
    5.7677   20.8020   70.5402 N   0  0  0  0  0
    5.3691   21.5946   68.3631 N   0  0  0  0  0
   -0.1347   22.3092   69.4302 N   0  0  0  0  0
  1  2  1  0  0  0
  2 28  1  0  0  0
  3  4  1  0  0  0
  4 24  1  0  0  0
  6  5  1  0  0  0
  6  7  1  0  0  0
  7 25  1  0  0  0
  8  9  1  0  0  0
 10 22  1  0  0  0
 10 26  1  0  0  0
 11 27  1  0  0  0
 12 11  1  0  0  0
 12 23  1  0  0  0
 13 23  1  0  0  0
 14 15  1  0  0  0
 16 17  1  0  0  0
 18 13  1  0  0  0
 19  9  1  0  0  0
 24  5  1  0  0  0
 25  8  1  0  0  0
  2  3  2  0  0  0
  4 20  2  0  0  0
  5 28  2  0  0  0
  8 21  2  0  0  0
  9 10  2  0  0  0
 11 26  2  0  0  0
 13 14  2  0  0  0
 15 16  2  0  0  0
 17 18  2  0  0  0
 19 27  2  0  0  0
M  END
> <rmsd>
0.6036008

$$$$
