MolPort-019-881-562 MolPort-047-486-155 67457910 CSSS00160014138 MCULE-2254893775 MCULE-7645617880 PubChem-154884819 PubChem-56739223 ZINC000067457910


 27 29  0  0  0  0  0  0  0  0999 V2000
   -0.4888   22.0230   69.1873 C   0  0  0  0  0
   -1.7198   23.2802   67.6423 C   0  0  0  0  0
   -1.4429   23.8495   66.2609 C   0  0  0  0  0
   -3.1942   23.0625   67.8163 C   0  0  0  0  0
   -5.1375   21.4761   68.1882 C   0  0  0  0  0
   -5.4819   21.7882   69.6043 C   0  0  0  0  0
   -5.6075   21.6353   71.7196 C   0  0  0  0  0
   -6.1683   22.8419   71.3163 C   0  0  0  0  0
   -6.6780   23.9437   72.1550 C   0  0  0  0  0
   -6.6584   25.1397   74.2131 C   0  0  0  0  0
   -7.5666   26.0720   73.7084 C   0  0  0  0  0
   -8.0244   25.9346   72.3976 C   0  0  0  0  0
   -7.5764   24.8710   71.6128 C   0  0  0  0  0
   -5.5414   21.0553   73.0752 C   0  0  0  0  0
   -4.4971   20.1781   73.4006 C   0  0  0  0  0
   -4.4411   19.5819   74.6637 C   0  0  0  0  0
   -5.4382   19.8464   75.6061 C   0  0  0  0  0
   -6.4935   20.7034   75.2836 C   0  0  0  0  0
   -6.5480   21.2996   74.0205 C   0  0  0  0  0
   -0.9789   22.0383   67.8196 N   0  0  0  0  0
   -3.7261   21.7393   67.9463 N   0  0  0  0  0
   -5.1641   20.9769   70.6323 N   0  0  0  0  0
   -6.0870   22.9333   69.9757 N   0  0  0  0  0
   -6.2338   24.1103   73.4321 N   0  0  0  0  0
   -0.1129   24.2611   66.1740 O   0  0  0  0  0
   -3.9636   24.0605   67.8524 O   0  0  0  0  0
   -3.4227   18.7438   74.9722 F   0  0  0  0  0
  1 20  1  0  0  0
  2 20  1  0  0  0
  2  3  1  0  0  0
  2  4  1  0  0  0
  3 25  1  0  0  0
  4 21  1  0  0  0
  5 21  1  0  0  0
  5  6  1  0  0  0
  7 22  1  0  0  0
  7 14  1  0  0  0
  8 23  1  0  0  0
  8  9  1  0  0  0
 10 24  1  0  0  0
 11 12  1  0  0  0
 13  9  1  0  0  0
 15 16  1  0  0  0
 16 27  1  0  0  0
 17 18  1  0  0  0
 19 14  1  0  0  0
 23  6  1  0  0  0
  4 26  2  0  0  0
  6 22  2  0  0  0
  7  8  2  0  0  0
  9 24  2  0  0  0
 10 11  2  0  0  0
 12 13  2  0  0  0
 14 15  2  0  0  0
 16 17  2  0  0  0
 18 19  2  0  0  0
M  END
> <rmsd>
0.370186329

$$$$
MolPort-019-883-332 67562959 CSSS00159761912 MCULE-1031302391 PubChem-56740990 ZINC000067562959 ZINC67562959


 28 31  0  0  0  0  0  0  0  0999 V2000
   -6.9516   21.6760   76.4655 F   0  0  0  0  0
   -6.0395   21.3386   75.5229 C   0  0  0  0  0
   -4.9471   20.5363   75.8625 C   0  0  0  0  0
   -4.0118   20.1819   74.8869 C   0  0  0  0  0
   -4.1661   20.6349   73.5733 C   0  0  0  0  0
   -5.2489   21.4558   73.2278 C   0  0  0  0  0
   -6.1938   21.7889   74.2090 C   0  0  0  0  0
   -5.4198   21.8823   71.8251 C   0  0  0  0  0
   -6.0395   23.0258   71.3332 C   0  0  0  0  0
   -5.4393   21.8043   69.7020 C   0  0  0  0  0
   -5.1827   21.3447   68.3076 C   0  0  0  0  0
   -3.3413   22.9432   67.6159 C   0  0  0  0  0
   -1.9257   23.1586   67.2973 C   0  0  0  0  0
   -1.3490   24.3711   66.9762 C   0  0  0  0  0
    0.1217   22.8343   66.9484 C   0  0  0  0  0
   -6.5233   24.2021   72.0809 C   0  0  0  0  0
   -6.3988   25.6195   73.9892 C   0  0  0  0  0
   -7.3677   26.4688   73.4523 C   0  0  0  0  0
   -7.9103   26.1764   72.2007 C   0  0  0  0  0
   -7.4850   25.0427   71.5066 C   0  0  0  0  0
   -6.0502   22.9707   69.9881 N   0  0  0  0  0
   -3.8047   21.6273   67.9313 N   0  0  0  0  0
   -0.0384   24.1573   66.7537 N   0  0  0  0  0
   -1.0045   22.1788   67.2832 N   0  0  0  0  0
   -5.0315   21.1175   70.7875 N   0  0  0  0  0
   -5.9974   24.5197   73.2968 N   0  0  0  0  0
   -4.1439   23.9159   67.6080 O   0  0  0  0  0
    1.2340   22.2582   66.8272 O   0  0  0  0  0
  2  1  1  0  0  0
  3  4  1  0  0  0
  5  6  1  0  0  0
  6  8  1  0  0  0
  7  2  1  0  0  0
  8 25  1  0  0  0
  9 21  1  0  0  0
  9 16  1  0  0  0
 11 10  1  0  0  0
 11 22  1  0  0  0
 12 13  1  0  0  0
 14 23  1  0  0  0
 15 24  1  0  0  0
 17 26  1  0  0  0
 18 19  1  0  0  0
 20 16  1  0  0  0
 21 10  1  0  0  0
 22 12  1  0  0  0
 23 15  1  0  0  0
 24 13  1  0  0  0
  2  3  2  0  0  0
  4  5  2  0  0  0
  6  7  2  0  0  0
  8  9  2  0  0  0
 10 25  2  0  0  0
 12 27  2  0  0  0
 13 14  2  0  0  0
 15 28  2  0  0  0
 16 26  2  0  0  0
 17 18  2  0  0  0
 19 20  2  0  0  0
M  END
> <rmsd>
0.527924895

$$$$
MolPort-019-883-332 67562959 CSSS00159761912 MCULE-1031302391 PubChem-56740990 ZINC000067562959 ZINC67562959


 28 31  0  0  0  0  0  0  0  0999 V2000
   -4.2663   23.2776   76.3691 F   0  0  0  0  0
   -4.4775   22.2879   75.4694 C   0  0  0  0  0
   -4.3189   20.9527   75.8488 C   0  0  0  0  0
   -4.5305   19.9330   74.9172 C   0  0  0  0  0
   -4.9058   20.2489   73.6081 C   0  0  0  0  0
   -5.0854   21.5851   73.2233 C   0  0  0  0  0
   -4.8506   22.6024   74.1597 C   0  0  0  0  0
   -5.4328   21.8987   71.8231 C   0  0  0  0  0
   -6.1020   23.0099   71.3203 C   0  0  0  0  0
   -5.4451   21.8045   69.7003 C   0  0  0  0  0
   -5.1743   21.3412   68.3098 C   0  0  0  0  0
   -3.3309   22.9439   67.6323 C   0  0  0  0  0
   -1.9182   23.1577   67.2999 C   0  0  0  0  0
   -1.3396   24.3715   66.9874 C   0  0  0  0  0
    0.1229   22.8283   66.9190 C   0  0  0  0  0
   -6.8106   24.0737   72.0550 C   0  0  0  0  0
   -7.6040   26.3173   72.1046 C   0  0  0  0  0
   -8.2300   26.0951   73.3323 C   0  0  0  0  0
   -8.1511   24.8309   73.9171 C   0  0  0  0  0
   -7.4457   23.8121   73.2758 C   0  0  0  0  0
   -6.0964   22.9514   69.9761 N   0  0  0  0  0
   -3.7944   21.6268   67.9432 N   0  0  0  0  0
   -0.0330   24.1545   66.7439 N   0  0  0  0  0
   -1.0020   22.1739   67.2601 N   0  0  0  0  0
   -5.0215   21.1371   70.7920 N   0  0  0  0  0
   -6.9210   25.3110   71.4954 N   0  0  0  0  0
   -4.1313   23.9183   67.6364 O   0  0  0  0  0
    1.2302   22.2482   66.7734 O   0  0  0  0  0
  2  1  1  0  0  0
  3  4  1  0  0  0
  5  6  1  0  0  0
  6  8  1  0  0  0
  7  2  1  0  0  0
  8 25  1  0  0  0
  9 21  1  0  0  0
  9 16  1  0  0  0
 11 10  1  0  0  0
 11 22  1  0  0  0
 12 13  1  0  0  0
 14 23  1  0  0  0
 15 24  1  0  0  0
 17 26  1  0  0  0
 18 19  1  0  0  0
 20 16  1  0  0  0
 21 10  1  0  0  0
 22 12  1  0  0  0
 23 15  1  0  0  0
 24 13  1  0  0  0
  2  3  2  0  0  0
  4  5  2  0  0  0
  6  7  2  0  0  0
  8  9  2  0  0  0
 10 25  2  0  0  0
 12 27  2  0  0  0
 13 14  2  0  0  0
 15 28  2  0  0  0
 16 26  2  0  0  0
 17 18  2  0  0  0
 19 20  2  0  0  0
M  END
> <rmsd>
0.511531472

$$$$
MolPort-023-282-238 CSSS00160624766 MCULE-7800352787


 26 28  0  0  0  0  0  0  0  0999 V2000
   -7.2866   22.5372   73.6558 C   0  0  0  0  0
   -7.9433   21.4227   72.8611 C   0  0  0  0  0
   -9.0927   21.9552   72.0241 C   0  0  0  0  0
   -6.9308   20.6410   72.0191 C   0  0  0  0  0
   -6.2229   21.4320   70.9535 C   0  0  0  0  0
   -4.9591   21.9404   69.3739 C   0  0  0  0  0
   -3.5800   22.9470   67.4953 C   0  0  0  0  0
   -2.5274   22.7252   66.4648 C   0  0  0  0  0
   -1.1454   23.0779   67.0116 C   0  0  0  0  0
   -0.5431   20.7904   67.9649 C   0  0  0  0  0
   -0.6638   20.0916   66.6653 C   0  0  0  0  0
   -1.0924   18.7546   66.6930 C   0  0  0  0  0
   -1.1883   18.0035   65.5219 C   0  0  0  0  0
   -0.8402   18.5753   64.3009 C   0  0  0  0  0
   -0.4015   19.8983   64.2530 C   0  0  0  0  0
   -0.3216   20.6768   65.4142 C   0  0  0  0  0
   -0.1064   23.0727   65.9410 C   0  0  0  0  0
   -5.3049   20.8846   70.1335 N   0  0  0  0  0
   -3.9851   21.8568   68.3293 N   0  0  0  0  0
   -0.7457   22.1979   68.0983 N   0  0  0  0  0
    0.2031   22.0068   65.2647 N   0  0  0  0  0
   -5.6201   23.0646   69.7043 N   0  0  0  0  0
   -6.4206   22.7423   70.7047 N   0  0  0  0  0
   -4.0791   24.0951   67.6368 O   0  0  0  0  0
   -0.2949   20.1209   69.0033 O   0  0  0  0  0
    0.5437   24.2641   65.6510 O   0  0  0  0  0
  1  2  1  0  0  0
  2  3  1  0  0  0
  2  4  1  0  0  0
  4  5  1  0  0  0
  6 18  1  0  0  0
  6 19  1  0  0  0
  8  7  1  0  0  0
  9  8  1  0  0  0
  9 20  1  0  0  0
  9 17  1  0  0  0
 10 11  1  0  0  0
 12 13  1  0  0  0
 14 15  1  0  0  0
 16 21  1  0  0  0
 16 11  1  0  0  0
 17 26  1  0  0  0
 19  7  1  0  0  0
 20 10  1  0  0  0
 23 22  1  0  0  0
 23  5  1  0  0  0
  5 18  2  0  0  0
  6 22  2  0  0  0
  7 24  2  0  0  0
 10 25  2  0  0  0
 11 12  2  0  0  0
 13 14  2  0  0  0
 15 16  2  0  0  0
 17 21  2  0  0  0
M  END
> <rmsd>
0.609169006

$$$$
MolPort-023-280-080 CSSS00160623144 MCULE-5351402034


 25 27  0  0  0  0  0  0  0  0999 V2000
   -7.7548   19.5530   71.4191 C   0  0  0  0  0
   -6.9466   20.6857   72.0213 C   0  0  0  0  0
   -5.9651   20.1331   73.0363 C   0  0  0  0  0
   -6.2226   21.4344   70.9518 C   0  0  0  0  0
   -4.9590   21.9394   69.3729 C   0  0  0  0  0
   -3.5805   22.9477   67.4946 C   0  0  0  0  0
   -2.5275   22.7269   66.4645 C   0  0  0  0  0
   -1.1455   23.0784   67.0123 C   0  0  0  0  0
   -0.5467   20.7910   67.9682 C   0  0  0  0  0
   -0.6673   20.0913   66.6691 C   0  0  0  0  0
   -1.0976   18.7549   66.6976 C   0  0  0  0  0
   -1.1934   18.0028   65.5271 C   0  0  0  0  0
   -0.8435   18.5731   64.3059 C   0  0  0  0  0
   -0.4030   19.8955   64.2572 C   0  0  0  0  0
   -0.3232   20.6749   65.4179 C   0  0  0  0  0
   -0.1056   23.0710   65.9428 C   0  0  0  0  0
   -5.3032   20.8830   70.1324 N   0  0  0  0  0
   -3.9849   21.8570   68.3284 N   0  0  0  0  0
   -0.7478   22.1990   68.1001 N   0  0  0  0  0
    0.2031   22.0043   65.2675 N   0  0  0  0  0
   -5.6216   23.0633   69.7034 N   0  0  0  0  0
   -6.4222   22.7418   70.7042 N   0  0  0  0  0
   -4.0806   24.0953   67.6364 O   0  0  0  0  0
   -0.3005   20.1222   69.0073 O   0  0  0  0  0
    0.5462   24.2614   65.6521 O   0  0  0  0  0
  1  2  1  0  0  0
  2  3  1  0  0  0
  2  4  1  0  0  0
  5 17  1  0  0  0
  5 18  1  0  0  0
  7  6  1  0  0  0
  8  7  1  0  0  0
  8 19  1  0  0  0
  8 16  1  0  0  0
  9 10  1  0  0  0
 11 12  1  0  0  0
 13 14  1  0  0  0
 15 20  1  0  0  0
 15 10  1  0  0  0
 16 25  1  0  0  0
 18  6  1  0  0  0
 19  9  1  0  0  0
 22 21  1  0  0  0
 22  4  1  0  0  0
  4 17  2  0  0  0
  5 21  2  0  0  0
  6 23  2  0  0  0
  9 24  2  0  0  0
 10 11  2  0  0  0
 12 13  2  0  0  0
 14 15  2  0  0  0
 16 20  2  0  0  0
M  END
> <rmsd>
0.609903097

$$$$
MolPort-046-597-224 CSSS00160806302


 22 24  0  0  0  0  0  0  0  0999 V2000
    0.6209   24.3693   66.0980 O   0  0  0  0  0
   -0.6807   19.4883   68.0014 O   0  0  0  0  0
   -4.3932   24.1094   67.4054 O   0  0  0  0  0
   -0.1330   23.2076   66.0040 C   0  0  0  0  0
   -0.5278   21.1189   64.7604 C   0  0  0  0  0
   -0.9641   20.2117   65.7657 C   0  0  0  0  0
   -1.5023   18.9750   65.3747 C   0  0  0  0  0
   -1.6158   18.6313   64.0279 C   0  0  0  0  0
   -1.1762   19.5164   63.0469 C   0  0  0  0  0
   -0.6282   20.7450   63.4146 C   0  0  0  0  0
   -0.8342   20.4638   67.2187 C   0  0  0  0  0
   -1.2059   22.9790   67.0149 C   0  0  0  0  0
   -2.5938   22.9485   66.3769 C   0  0  0  0  0
   -3.6673   23.0802   67.4037 C   0  0  0  0  0
   -4.8685   22.0408   69.3854 C   0  0  0  0  0
   -6.0479   21.4671   71.0209 C   0  0  0  0  0
    0.1108   22.3773   65.0343 N   0  0  0  0  0
   -0.9252   21.7744   67.7790 N   0  0  0  0  0
   -3.8767   22.0295   68.3542 N   0  0  0  0  0
   -5.7308   23.0485   69.5958 N   0  0  0  0  0
   -6.4726   22.6842   70.6265 N   0  0  0  0  0
   -5.0288   21.0277   70.2541 N   0  0  0  0  0
  4  1  1  0  0  0
  5 17  1  0  0  0
  6  7  1  0  0  0
  6 11  1  0  0  0
  8  9  1  0  0  0
 10  5  1  0  0  0
 11 18  1  0  0  0
 12 18  1  0  0  0
 12 13  1  0  0  0
 12  4  1  0  0  0
 13 14  1  0  0  0
 14 19  1  0  0  0
 15 22  1  0  0  0
 19 15  1  0  0  0
 21 20  1  0  0  0
 21 16  1  0  0  0
  4 17  2  0  0  0
  5  6  2  0  0  0
  7  8  2  0  0  0
  9 10  2  0  0  0
 11  2  2  0  0  0
 14  3  2  0  0  0
 15 20  2  0  0  0
 16 22  2  0  0  0
M  END
> <rmsd>
0.529839694

$$$$
Molport-052-049-970


 37 39  0  0  0  0  0  0  0  0999 V2000
   -0.3199   31.6731   68.7487 C   0  0  0  0  0
    0.2879   30.1486   66.8637 C   0  0  0  0  0
    1.1280   29.1182   66.4188 C   0  0  0  0  0
    1.0243   28.6238   65.1082 C   0  0  0  0  0
    1.9180   27.4987   64.6459 C   0  0  0  0  0
    1.1613   26.1650   64.5587 C   0  0  0  0  0
    0.6935   25.6654   65.9330 C   0  0  0  0  0
   -0.5035   23.6911   66.9559 C   0  0  0  0  0
   -1.1839   22.3566   66.7919 C   0  0  0  0  0
   -2.6788   22.5164   66.4412 C   0  0  0  0  0
   -3.4648   23.2227   67.5100 C   0  0  0  0  0
   -4.3390   22.8892   69.8624 C   0  0  0  0  0
   -5.7449   23.4510   70.1349 C   0  0  0  0  0
   -4.0212   21.7134   70.7715 C   0  0  0  0  0
   -2.0806   22.7767   72.1259 C   0  0  0  0  0
   -0.5778   22.5335   72.0044 C   0  0  0  0  0
    1.0708   21.7524   70.2860 C   0  0  0  0  0
    2.1845   22.0534   71.1019 C   0  0  0  0  0
    3.4772   21.7076   70.7058 C   0  0  0  0  0
    3.6843   21.0615   69.4895 C   0  0  0  0  0
    2.6012   20.7688   68.6633 C   0  0  0  0  0
    1.2864   21.1064   69.0450 C   0  0  0  0  0
    0.1766   20.7259   68.1328 C   0  0  0  0  0
    0.0559   29.1620   64.2442 C   0  0  0  0  0
   -0.7901   30.1852   64.6834 C   0  0  0  0  0
   -0.6775   30.6793   65.9851 C   0  0  0  0  0
    0.4398   30.6111   68.1797 O   0  0  0  0  0
   -0.4288   24.2216   68.0988 O   0  0  0  0  0
   -3.4316   24.4856   67.5769 O   0  0  0  0  0
   -6.7368   22.5210   69.7794 O   0  0  0  0  0
   -4.7892   20.7092   70.7416 O   0  0  0  0  0
   -0.2390   22.0489   70.7042 O   0  0  0  0  0
    0.2889   19.6975   67.4086 O   0  0  0  0  0
    0.0224   24.3731   65.8107 N   0  0  0  0  0
   -4.2222   22.4638   68.4635 N   0  0  0  0  0
   -2.8325   21.6389   71.5856 N   0  0  0  0  0
   -0.9925   21.5381   67.9938 N   0  0  0  0  0
  1 27  1  0  0  0
  2 27  1  0  0  0
  3  4  1  0  0  0
  5  4  1  0  0  0
  5  6  1  0  0  0
  6  7  1  0  0  0
  7 34  1  0  0  0
  9  8  1  0  0  0
  9 10  1  0  0  0
  9 37  1  0  0  0
 10 11  1  0  0  0
 11 35  1  0  0  0
 12 35  1  0  0  0
 12 13  1  0  0  0
 12 14  1  0  0  0
 13 30  1  0  0  0
 14 36  1  0  0  0
 15 36  1  0  0  0
 15 16  1  0  0  0
 16 32  1  0  0  0
 17 32  1  0  0  0
 18 19  1  0  0  0
 20 21  1  0  0  0
 22 23  1  0  0  0
 22 17  1  0  0  0
 23 37  1  0  0  0
 24 25  1  0  0  0
 26  2  1  0  0  0
 34  8  1  0  0  0
  2  3  2  0  0  0
  4 24  2  0  0  0
  8 28  2  0  0  0
 11 29  2  0  0  0
 14 31  2  0  0  0
 17 18  2  0  0  0
 19 20  2  0  0  0
 21 22  2  0  0  0
 23 33  2  0  0  0
 25 26  2  0  0  0
M  END
> <rmsd>
0.511571288

$$$$
MolPort-019-848-270 41121380 CSSS03437770464 MCULE-3052587482 PubChem-52104118 ZINC000041121380 ZINC41121380


 22 25  0  0  0  0  0  0  0  0999 V2000
    1.1479   21.0801   67.1887 O   0  0  0  0  0
    0.3477   22.0368   67.0250 C   0  0  0  0  0
    0.8335   23.3139   66.4023 C   0  0  0  0  0
   -1.4471   24.2563   66.9911 C   0  0  0  0  0
   -1.9322   22.9837   67.3043 C   0  0  0  0  0
   -3.2900   22.8394   67.6028 C   0  0  0  0  0
   -5.2089   21.3388   68.3144 C   0  0  0  0  0
   -5.4416   21.8289   69.7030 C   0  0  0  0  0
   -5.3940   21.9572   71.8010 C   0  0  0  0  0
   -5.2093   21.7613   73.1673 C   0  0  0  0  0
   -5.6981   22.7560   74.0348 C   0  0  0  0  0
   -6.3467   23.9014   73.5207 C   0  0  0  0  0
   -6.5142   24.0657   72.1330 C   0  0  0  0  0
   -6.0191   23.0609   71.3057 C   0  0  0  0  0
   -3.6067   25.1662   67.2827 C   0  0  0  0  0
   -0.0575   24.4350   66.7024 N   0  0  0  0  0
   -1.0316   21.8752   67.3668 N   0  0  0  0  0
   -3.8199   21.5515   67.9325 N   0  0  0  0  0
   -5.0104   21.1529   70.7999 N   0  0  0  0  0
   -6.0615   23.0085   69.9673 N   0  0  0  0  0
   -4.0988   23.9345   67.5804 N   0  0  0  0  0
   -2.2878   25.3227   66.9948 N   0  0  0  0  0
  3  2  1  0  0  0
  3 16  1  0  0  0
  4 22  1  0  0  0
  5 17  1  0  0  0
  5  6  1  0  0  0
  6 18  1  0  0  0
  7 18  1  0  0  0
  7  8  1  0  0  0
  9 19  1  0  0  0
 10 11  1  0  0  0
 12 13  1  0  0  0
 14 20  1  0  0  0
 14  9  1  0  0  0
 15 21  1  0  0  0
 16  4  1  0  0  0
 17  2  1  0  0  0
 20  8  1  0  0  0
  2  1  2  0  0  0
  4  5  2  0  0  0
  6 21  2  0  0  0
  8 19  2  0  0  0
  9 10  2  0  0  0
 11 12  2  0  0  0
 13 14  2  0  0  0
 15 22  2  0  0  0
M  END
> <rmsd>
0.505627811

$$$$
Molport-047-044-714 643566521 MCULE-2311263192 PubChem-133075279


 35 37  0  0  0  0  0  0  0  0999 V2000
   -6.6072   22.5427   69.3905 O   0  0  0  0  0
   -3.5985   24.5079   67.9266 O   0  0  0  0  0
   -0.1124   20.0702   66.1654 O   0  0  0  0  0
   -0.6879   21.0137   70.2281 O   0  0  0  0  0
   -5.1295   20.6883   70.9980 O   0  0  0  0  0
   -0.5919   24.4677   67.8316 O   0  0  0  0  0
   -0.4070   29.8698   64.6536 O   0  0  0  0  0
   -5.6801   23.3794   70.0158 C   0  0  0  0  0
   -4.2976   22.7288   70.0572 C   0  0  0  0  0
   -3.4612   23.2705   67.7319 C   0  0  0  0  0
   -2.8501   22.7830   66.4602 C   0  0  0  0  0
   -1.3368   22.5761   66.5654 C   0  0  0  0  0
   -0.3105   20.4162   67.3631 C   0  0  0  0  0
    0.1916   19.5562   68.4631 C   0  0  0  0  0
    0.8942   18.3894   68.1175 C   0  0  0  0  0
    1.4285   17.5519   69.0967 C   0  0  0  0  0
    1.2721   17.8703   70.4435 C   0  0  0  0  0
    0.5764   19.0223   70.8087 C   0  0  0  0  0
    0.0260   19.8744   69.8346 C   0  0  0  0  0
   -0.7088   21.4720   71.5763 C   0  0  0  0  0
   -1.9550   22.2958   71.8338 C   0  0  0  0  0
   -4.2272   21.5674   71.0025 C   0  0  0  0  0
   -0.5880   23.8607   66.7257 C   0  0  0  0  0
    0.8459   25.6599   65.6654 C   0  0  0  0  0
   -0.1331   26.8213   65.7337 C   0  0  0  0  0
   -0.8802   26.9617   64.4182 C   0  0  0  0  0
   -3.2902   27.8230   64.4019 C   0  0  0  0  0
   -3.9250   29.2190   64.5008 C   0  0  0  0  0
   -2.7900   30.2463   64.5856 C   0  0  0  0  0
   -1.5775   29.4089   64.5930 C   0  0  0  0  0
   -3.8464   22.3277   68.7325 N   0  0  0  0  0
   -0.9942   21.6423   67.6315 N   0  0  0  0  0
   -3.1146   21.4188   71.8845 N   0  0  0  0  0
    0.1331   24.3901   65.6119 N   0  0  0  0  0
   -1.8631   28.0295   64.5136 N   0  0  0  0  0
  8  1  1  0  0  0
  9  8  1  0  0  0
  9 31  1  0  0  0
  9 22  1  0  0  0
 11 10  1  0  0  0
 11 12  1  0  0  0
 12 32  1  0  0  0
 12 23  1  0  0  0
 13 14  1  0  0  0
 15 16  1  0  0  0
 17 18  1  0  0  0
 19  4  1  0  0  0
 19 14  1  0  0  0
 20  4  1  0  0  0
 20 21  1  0  0  0
 21 33  1  0  0  0
 23 34  1  0  0  0
 24 34  1  0  0  0
 24 25  1  0  0  0
 25 26  1  0  0  0
 26 35  1  0  0  0
 27 35  1  0  0  0
 27 28  1  0  0  0
 28 29  1  0  0  0
 29 30  1  0  0  0
 30 35  1  0  0  0
 31 10  1  0  0  0
 32 13  1  0  0  0
 33 22  1  0  0  0
 10  2  2  0  0  0
 13  3  2  0  0  0
 14 15  2  0  0  0
 16 17  2  0  0  0
 18 19  2  0  0  0
 22  5  2  0  0  0
 23  6  2  0  0  0
 30  7  2  0  0  0
M  END
> <rmsd>
0.541345417

$$$$
MolPort-019-884-971 67673743 CSSS00159472176 MCULE-7195630988 PubChem-56742627 ZINC000067673743 ZINC67673743


 28 31  0  0  0  0  0  0  0  0999 V2000
   -4.7763   20.0600   77.2595 C   0  0  0  0  0
   -4.9422   20.5395   75.8629 C   0  0  0  0  0
   -4.0042   20.1902   74.8879 C   0  0  0  0  0
   -4.1601   20.6427   73.5744 C   0  0  0  0  0
   -5.2475   21.4572   73.2283 C   0  0  0  0  0
   -6.1960   21.7835   74.2085 C   0  0  0  0  0
   -6.0411   21.3322   75.5222 C   0  0  0  0  0
   -5.4195   21.8832   71.8257 C   0  0  0  0  0
   -6.0397   23.0261   71.3338 C   0  0  0  0  0
   -5.4396   21.8045   69.7026 C   0  0  0  0  0
   -5.1832   21.3449   68.3083 C   0  0  0  0  0
   -3.3419   22.9433   67.6164 C   0  0  0  0  0
   -1.9263   23.1586   67.2976 C   0  0  0  0  0
   -1.3496   24.3711   66.9765 C   0  0  0  0  0
    0.1211   22.8344   66.9484 C   0  0  0  0  0
   -6.5231   24.2028   72.0814 C   0  0  0  0  0
   -6.4001   25.6183   73.9912 C   0  0  0  0  0
   -7.3658   26.4702   73.4527 C   0  0  0  0  0
   -7.9059   26.1801   72.1995 C   0  0  0  0  0
   -7.4815   25.0460   71.5055 C   0  0  0  0  0
   -6.0509   22.9708   69.9887 N   0  0  0  0  0
   -3.8053   21.6274   67.9317 N   0  0  0  0  0
   -0.0390   24.1575   66.7537 N   0  0  0  0  0
   -1.0051   22.1789   67.2833 N   0  0  0  0  0
   -5.0311   21.1183   70.7881 N   0  0  0  0  0
   -5.9996   24.5181   73.2989 N   0  0  0  0  0
   -4.1443   23.9160   67.6085 O   0  0  0  0  0
    1.2334   22.2583   66.8270 O   0  0  0  0  0
  1  2  1  0  0  0
  3  4  1  0  0  0
  5  6  1  0  0  0
  5  8  1  0  0  0
  7  2  1  0  0  0
  8 25  1  0  0  0
  9 21  1  0  0  0
  9 16  1  0  0  0
 11 10  1  0  0  0
 11 22  1  0  0  0
 12 13  1  0  0  0
 14 23  1  0  0  0
 15 24  1  0  0  0
 17 26  1  0  0  0
 18 19  1  0  0  0
 20 16  1  0  0  0
 21 10  1  0  0  0
 22 12  1  0  0  0
 23 15  1  0  0  0
 24 13  1  0  0  0
  2  3  2  0  0  0
  4  5  2  0  0  0
  6  7  2  0  0  0
  8  9  2  0  0  0
 10 25  2  0  0  0
 12 27  2  0  0  0
 13 14  2  0  0  0
 15 28  2  0  0  0
 16 26  2  0  0  0
 17 18  2  0  0  0
 19 20  2  0  0  0
M  END
> <rmsd>
0.527539849

$$$$
MolPort-019-884-971 67673743 CSSS00159472176 MCULE-7195630988 PubChem-56742627 ZINC000067673743 ZINC67673743


 28 31  0  0  0  0  0  0  0  0999 V2000
   -4.7754   20.0591   77.2594 C   0  0  0  0  0
   -4.9415   20.5387   75.8628 C   0  0  0  0  0
   -6.0405   21.3313   75.5221 C   0  0  0  0  0
   -6.1955   21.7826   74.2084 C   0  0  0  0  0
   -5.2470   21.4565   73.2284 C   0  0  0  0  0
   -4.1595   20.6421   73.5743 C   0  0  0  0  0
   -4.0034   20.1896   74.8878 C   0  0  0  0  0
   -5.4190   21.8825   71.8257 C   0  0  0  0  0
   -6.0394   23.0255   71.3339 C   0  0  0  0  0
   -5.4392   21.8040   69.7027 C   0  0  0  0  0
   -5.1827   21.3445   68.3082 C   0  0  0  0  0
   -3.3417   22.9431   67.6164 C   0  0  0  0  0
   -1.9262   23.1586   67.2975 C   0  0  0  0  0
   -1.3496   24.3712   66.9764 C   0  0  0  0  0
    0.1213   22.8346   66.9482 C   0  0  0  0  0
   -6.5229   24.2020   72.0816 C   0  0  0  0  0
   -6.4000   25.6174   73.9915 C   0  0  0  0  0
   -7.3658   26.4693   73.4530 C   0  0  0  0  0
   -7.9059   26.1791   72.1998 C   0  0  0  0  0
   -7.4814   25.0452   71.5057 C   0  0  0  0  0
   -6.0506   22.9702   69.9889 N   0  0  0  0  0
   -3.8050   21.6272   67.9316 N   0  0  0  0  0
   -0.0390   24.1575   66.7537 N   0  0  0  0  0
   -1.0048   22.1790   67.2831 N   0  0  0  0  0
   -5.0306   21.1177   70.7881 N   0  0  0  0  0
   -5.9993   24.5173   73.2991 N   0  0  0  0  0
   -4.1442   23.9157   67.6086 O   0  0  0  0  0
    1.2337   22.2586   66.8268 O   0  0  0  0  0
  1  2  1  0  0  0
  3  4  1  0  0  0
  5  6  1  0  0  0
  5  8  1  0  0  0
  7  2  1  0  0  0
  8 25  1  0  0  0
  9 21  1  0  0  0
  9 16  1  0  0  0
 11 10  1  0  0  0
 11 22  1  0  0  0
 12 13  1  0  0  0
 14 23  1  0  0  0
 15 24  1  0  0  0
 17 26  1  0  0  0
 18 19  1  0  0  0
 20 16  1  0  0  0
 21 10  1  0  0  0
 22 12  1  0  0  0
 23 15  1  0  0  0
 24 13  1  0  0  0
  2  3  2  0  0  0
  4  5  2  0  0  0
  6  7  2  0  0  0
  8  9  2  0  0  0
 10 25  2  0  0  0
 12 27  2  0  0  0
 13 14  2  0  0  0
 15 28  2  0  0  0
 16 26  2  0  0  0
 17 18  2  0  0  0
 19 20  2  0  0  0
M  END
> <rmsd>
0.527401507

$$$$
MolPort-019-884-971 67673743 CSSS00159472176 MCULE-7195630988 PubChem-56742627 ZINC000067673743 ZINC67673743


 28 31  0  0  0  0  0  0  0  0999 V2000
   -4.7411   20.0733   77.2543 C   0  0  0  0  0
   -4.9167   20.5498   75.8577 C   0  0  0  0  0
   -6.0451   21.2973   75.5109 C   0  0  0  0  0
   -6.2086   21.7466   74.1975 C   0  0  0  0  0
   -5.2391   21.4643   73.2242 C   0  0  0  0  0
   -4.1215   20.6943   73.5758 C   0  0  0  0  0
   -3.9574   20.2436   74.8890 C   0  0  0  0  0
   -5.4177   21.8885   71.8221 C   0  0  0  0  0
   -6.0700   23.0143   71.3297 C   0  0  0  0  0
   -5.4430   21.8054   69.6995 C   0  0  0  0  0
   -5.1838   21.3478   68.3050 C   0  0  0  0  0
   -3.3377   22.9453   67.6236 C   0  0  0  0  0
   -1.9227   23.1573   67.3001 C   0  0  0  0  0
   -1.3429   24.3689   66.9810 C   0  0  0  0  0
    0.1215   22.8265   66.9375 C   0  0  0  0  0
   -6.5926   24.1796   72.0674 C   0  0  0  0  0
   -8.0898   26.0295   72.1300 C   0  0  0  0  0
   -7.5536   26.4548   73.3466 C   0  0  0  0  0
   -6.5088   25.7295   73.9196 C   0  0  0  0  0
   -6.0191   24.5918   73.2771 C   0  0  0  0  0
   -6.0863   22.9544   69.9855 N   0  0  0  0  0
   -3.8047   21.6291   67.9319 N   0  0  0  0  0
   -0.0344   24.1510   66.7500 N   0  0  0  0  0
   -1.0055   22.1740   67.2756 N   0  0  0  0  0
   -5.0128   21.1322   70.7848 N   0  0  0  0  0
   -7.5988   24.9173   71.5199 N   0  0  0  0  0
   -4.1366   23.9209   67.6247 O   0  0  0  0  0
    1.2306   22.2463   66.8071 O   0  0  0  0  0
  1  2  1  0  0  0
  3  4  1  0  0  0
  5  6  1  0  0  0
  5  8  1  0  0  0
  7  2  1  0  0  0
  8 25  1  0  0  0
  9 21  1  0  0  0
  9 16  1  0  0  0
 11 10  1  0  0  0
 11 22  1  0  0  0
 12 13  1  0  0  0
 14 23  1  0  0  0
 15 24  1  0  0  0
 17 26  1  0  0  0
 18 19  1  0  0  0
 20 16  1  0  0  0
 21 10  1  0  0  0
 22 12  1  0  0  0
 23 15  1  0  0  0
 24 13  1  0  0  0
  2  3  2  0  0  0
  4  5  2  0  0  0
  6  7  2  0  0  0
  8  9  2  0  0  0
 10 25  2  0  0  0
 12 27  2  0  0  0
 13 14  2  0  0  0
 15 28  2  0  0  0
 16 26  2  0  0  0
 17 18  2  0  0  0
 19 20  2  0  0  0
M  END
> <rmsd>
0.514801502

$$$$
MolPort-019-884-971 67673743 CSSS00159472176 MCULE-7195630988 PubChem-56742627 ZINC000067673743 ZINC67673743


 28 31  0  0  0  0  0  0  0  0999 V2000
   -4.0139   20.3543   77.2191 C   0  0  0  0  0
   -4.3834   20.7476   75.8346 C   0  0  0  0  0
   -4.3894   22.0965   75.4693 C   0  0  0  0  0
   -4.7373   22.4657   74.1668 C   0  0  0  0  0
   -5.0948   21.4911   73.2235 C   0  0  0  0  0
   -5.0638   20.1387   73.5924 C   0  0  0  0  0
   -4.7155   19.7681   74.8947 C   0  0  0  0  0
   -5.4161   21.8575   71.8305 C   0  0  0  0  0
   -6.0060   23.0222   71.3505 C   0  0  0  0  0
   -5.4344   21.8045   69.7066 C   0  0  0  0  0
   -5.1858   21.3539   68.3080 C   0  0  0  0  0
   -3.3461   22.9473   67.6026 C   0  0  0  0  0
   -1.9287   23.1633   67.2925 C   0  0  0  0  0
   -1.3548   24.3720   66.9524 C   0  0  0  0  0
    0.1241   22.8430   66.9725 C   0  0  0  0  0
   -6.6369   24.1213   72.1054 C   0  0  0  0  0
   -7.3142   26.4029   72.1726 C   0  0  0  0  0
   -7.9053   26.2169   73.4232 C   0  0  0  0  0
   -7.8681   24.9524   74.0114 C   0  0  0  0  0
   -7.2393   23.8968   73.3499 C   0  0  0  0  0
   -6.0033   22.9890   70.0053 N   0  0  0  0  0
   -3.8082   21.6336   67.9287 N   0  0  0  0  0
   -0.0408   24.1609   66.7486 N   0  0  0  0  0
   -1.0022   22.1885   67.3092 N   0  0  0  0  0
   -5.0586   21.0886   70.7849 N   0  0  0  0  0
   -6.7049   25.3612   71.5445 N   0  0  0  0  0
   -4.1512   23.9174   67.5775 O   0  0  0  0  0
    1.2409   22.2709   66.8768 O   0  0  0  0  0
  1  2  1  0  0  0
  3  4  1  0  0  0
  5  6  1  0  0  0
  5  8  1  0  0  0
  7  2  1  0  0  0
  8 25  1  0  0  0
  9 21  1  0  0  0
  9 16  1  0  0  0
 11 10  1  0  0  0
 11 22  1  0  0  0
 12 13  1  0  0  0
 14 23  1  0  0  0
 15 24  1  0  0  0
 17 26  1  0  0  0
 18 19  1  0  0  0
 20 16  1  0  0  0
 21 10  1  0  0  0
 22 12  1  0  0  0
 23 15  1  0  0  0
 24 13  1  0  0  0
  2  3  2  0  0  0
  4  5  2  0  0  0
  6  7  2  0  0  0
  8  9  2  0  0  0
 10 25  2  0  0  0
 12 27  2  0  0  0
 13 14  2  0  0  0
 15 28  2  0  0  0
 16 26  2  0  0  0
 17 18  2  0  0  0
 19 20  2  0  0  0
M  END
> <rmsd>
0.541026354

$$$$
MolPort-051-708-337 MCULE-3931306994


 37 40  0  0  0  0  0  0  0  0999 V2000
    2.3676   22.7541   63.8907 C   0  0  0  0  0
    1.7913   21.9827   65.0627 C   0  0  0  0  0
    1.4883   20.5699   64.5957 C   0  0  0  0  0
    0.5268   22.6421   65.6484 C   0  0  0  0  0
    0.5883   25.1444   65.1034 C   0  0  0  0  0
    0.4776   26.5016   65.6584 C   0  0  0  0  0
    1.0063   27.6356   65.0148 C   0  0  0  0  0
    0.8573   28.8991   65.6000 C   0  0  0  0  0
    0.1670   29.0428   66.8097 C   0  0  0  0  0
   -0.3787   27.9238   67.4461 C   0  0  0  0  0
   -1.7502   27.0358   69.3036 C   0  0  0  0  0
   -3.0792   27.1732   69.7187 C   0  0  0  0  0
   -3.7533   26.0880   70.2877 C   0  0  0  0  0
   -3.0929   24.8663   70.4615 C   0  0  0  0  0
   -3.8467   23.6593   70.9056 C   0  0  0  0  0
   -4.6392   23.0465   69.7482 C   0  0  0  0  0
   -3.3400   23.2854   67.5809 C   0  0  0  0  0
   -2.3274   22.7452   66.6240 C   0  0  0  0  0
   -2.9948   21.8203   65.6245 C   0  0  0  0  0
    0.0660   21.9283   66.8952 C   0  0  0  0  0
   -5.5222   21.9589   70.2594 C   0  0  0  0  0
   -7.8580   21.1101   70.6905 C   0  0  0  0  0
   -9.2139   21.3211   70.0505 C   0  0  0  0  0
   -8.2927   20.2376   69.5310 C   0  0  0  0  0
   -1.7461   24.7455   70.1093 C   0  0  0  0  0
   -1.0756   25.8270   69.5377 C   0  0  0  0  0
   -0.2085   26.6616   66.8629 C   0  0  0  0  0
    0.7598   24.0393   65.9981 N   0  0  0  0  0
   -3.7474   22.5170   68.7203 N   0  0  0  0  0
   -1.2874   22.0272   67.3455 N   0  0  0  0  0
   -6.9393   22.1288   70.2090 N   0  0  0  0  0
    0.4809   24.9552   63.8622 O   0  0  0  0  0
    1.6919   27.5197   63.8112 O   0  0  0  0  0
   -1.1350   28.0922   68.6178 O   0  0  0  0  0
   -3.8413   24.4209   67.3668 O   0  0  0  0  0
    0.8964   21.3066   67.6110 O   0  0  0  0  0
   -5.0207   20.9020   70.7325 O   0  0  0  0  0
  1  2  1  0  0  0
  2  3  1  0  0  0
  4  2  1  0  0  0
  4 28  1  0  0  0
  4 20  1  0  0  0
  5  6  1  0  0  0
  7 33  1  0  0  0
  7  8  1  0  0  0
  9 10  1  0  0  0
 10 34  1  0  0  0
 11 34  1  0  0  0
 12 13  1  0  0  0
 14 25  1  0  0  0
 15 14  1  0  0  0
 15 16  1  0  0  0
 16 29  1  0  0  0
 16 21  1  0  0  0
 18 17  1  0  0  0
 18 19  1  0  0  0
 18 30  1  0  0  0
 21 31  1  0  0  0
 22 31  1  0  0  0
 22 23  1  0  0  0
 23 24  1  0  0  0
 24 22  1  0  0  0
 26 11  1  0  0  0
 27  6  1  0  0  0
 28  5  1  0  0  0
 29 17  1  0  0  0
 30 20  1  0  0  0
  5 32  2  0  0  0
  6  7  2  0  0  0
  8  9  2  0  0  0
 10 27  2  0  0  0
 11 12  2  0  0  0
 13 14  2  0  0  0
 17 35  2  0  0  0
 20 36  2  0  0  0
 21 37  2  0  0  0
 25 26  2  0  0  0
M  END
> <rmsd>
0.590055823

$$$$
MolPort-047-075-298 Molport-047-075-299 2037972680 MCULE-4289114984 MCULE-4894116184 PubChem-155998589


 23 24  0  0  0  0  0  0  0  0999 V2000
    0.0182   24.1301   66.0445 O   0  0  0  0  0
   -0.7646   22.1497   67.9356 O   0  0  0  0  0
   -3.6569   24.3551   67.9530 O   0  0  0  0  0
   -5.5984   27.0160   72.3863 O   0  0  0  0  0
   -4.7777   21.0774   70.5466 O   0  0  0  0  0
   -4.0052   21.4676   67.6831 O   0  0  0  0  0
   -0.8542   24.3749   67.1048 C   0  0  0  0  0
   -1.6393   23.1144   67.4298 C   0  0  0  0  0
   -2.7506   23.3999   68.4489 C   0  0  0  0  0
   -3.3410   25.5842   68.5603 C   0  0  0  0  0
   -3.7344   25.5880   70.0286 C   0  0  0  0  0
   -4.0000   26.9921   70.5281 C   0  0  0  0  0
   -4.2164   26.9432   72.0334 C   0  0  0  0  0
   -6.5222   25.9780   72.2024 C   0  0  0  0  0
   -7.7411   26.0276   72.8868 C   0  0  0  0  0
   -8.6782   25.0005   72.7362 C   0  0  0  0  0
   -8.4072   23.9236   71.8865 C   0  0  0  0  0
   -7.2005   23.8704   71.1824 C   0  0  0  0  0
   -6.2620   24.8940   71.3522 C   0  0  0  0  0
   -5.8899   22.7804   69.2820 C   0  0  0  0  0
   -4.5739   22.2931   69.8915 C   0  0  0  0  0
   -3.4921   22.1048   68.8191 C   0  0  0  0  0
   -6.9702   22.7980   70.2640 N   0  0  0  0  0
  7  1  1  0  0  0
  8  7  1  0  0  0
  8  2  1  0  0  0
  8  9  1  0  0  0
  9  3  1  0  0  0
 10  3  1  0  0  0
 10 11  1  0  0  0
 11 12  1  0  0  0
 12 13  1  0  0  0
 13  4  1  0  0  0
 14  4  1  0  0  0
 14 15  1  0  0  0
 16 17  1  0  0  0
 18 19  1  0  0  0
 18 23  1  0  0  0
 20 23  1  0  0  0
 20 21  1  0  0  0
 21  5  1  0  0  0
 21 22  1  0  0  0
 22  6  1  0  0  0
 22  9  1  0  0  0
 15 16  2  0  0  0
 17 18  2  0  0  0
 19 14  2  0  0  0
M  END
> <rmsd>
0.446305245

$$$$
Molport-047-047-297 643568713 MCULE-5550764454 PubChem-133076320


 31 33  0  0  0  0  0  0  0  0999 V2000
   -6.7194   20.6213   68.5787 C   0  0  0  0  0
   -6.4511   22.0956   68.8386 C   0  0  0  0  0
   -4.9718   22.3857   69.1210 C   0  0  0  0  0
   -4.3967   21.7297   70.3466 C   0  0  0  0  0
   -2.3309   21.2240   71.7070 C   0  0  0  0  0
   -0.8463   21.5276   71.6422 C   0  0  0  0  0
    0.5907   20.2044   70.1122 C   0  0  0  0  0
    1.0305   19.3893   71.1695 C   0  0  0  0  0
    1.9764   18.3876   70.9528 C   0  0  0  0  0
    2.4993   18.1904   69.6761 C   0  0  0  0  0
    2.0713   18.9919   68.6168 C   0  0  0  0  0
    1.1119   19.9980   68.8133 C   0  0  0  0  0
    0.7085   20.8196   67.6484 C   0  0  0  0  0
   -0.8324   22.4974   66.5733 C   0  0  0  0  0
   -2.3345   22.5586   66.2831 C   0  0  0  0  0
   -3.1652   22.9650   67.4580 C   0  0  0  0  0
   -0.2319   23.8501   66.8092 C   0  0  0  0  0
    0.5869   26.0392   65.8357 C   0  0  0  0  0
    2.0691   25.9103   66.1355 C   0  0  0  0  0
    2.7446   27.2391   65.8707 C   0  0  0  0  0
    2.8592   26.1174   64.8606 C   0  0  0  0  0
   -5.1043   20.9963   71.0903 O   0  0  0  0  0
   -0.3449   21.2177   70.3458 O   0  0  0  0  0
    1.4459   20.8434   66.6242 O   0  0  0  0  0
   -3.0166   24.1044   67.9766 O   0  0  0  0  0
    0.0614   24.2237   67.9777 O   0  0  0  0  0
   -7.2496   22.5504   69.8886 O   0  0  0  0  0
   -3.0205   21.9475   70.6542 N   0  0  0  0  0
   -0.5141   21.5652   67.6508 N   0  0  0  0  0
   -4.1572   22.0673   67.9562 N   0  0  0  0  0
   -0.0136   24.7203   65.6971 N   0  0  0  0  0
  2  1  1  0  0  0
  2  3  1  0  0  0
  2 27  1  0  0  0
  3  4  1  0  0  0
  3 30  1  0  0  0
  4 28  1  0  0  0
  5 28  1  0  0  0
  5  6  1  0  0  0
  6 23  1  0  0  0
  7 23  1  0  0  0
  8  9  1  0  0  0
 10 11  1  0  0  0
 12 13  1  0  0  0
 12  7  1  0  0  0
 13 29  1  0  0  0
 14 29  1  0  0  0
 14 15  1  0  0  0
 14 17  1  0  0  0
 15 16  1  0  0  0
 16 30  1  0  0  0
 17 31  1  0  0  0
 18 31  1  0  0  0
 18 19  1  0  0  0
 19 20  1  0  0  0
 20 21  1  0  0  0
 21 19  1  0  0  0
  4 22  2  0  0  0
  7  8  2  0  0  0
  9 10  2  0  0  0
 11 12  2  0  0  0
 13 24  2  0  0  0
 16 25  2  0  0  0
 17 26  2  0  0  0
M  END
> <rmsd>
0.608889282

$$$$
MolPort-051-539-492 CSSS09880991196 MCULE-5178349963 PubChem-165418212


 31 33  0  0  0  0  0  0  0  0999 V2000
  -11.1913   25.8859   64.4725 C   0  0  0  0  0
  -10.5731   23.5382   64.9463 C   0  0  0  0  0
  -10.3479   22.2543   64.4542 C   0  0  0  0  0
   -9.9895   21.2231   65.3217 C   0  0  0  0  0
   -9.8273   21.4521   66.6964 C   0  0  0  0  0
  -10.0387   22.7664   67.1992 C   0  0  0  0  0
   -8.9074   22.5840   69.4220 C   0  0  0  0  0
   -7.5382   23.1402   69.0882 C   0  0  0  0  0
   -5.4653   21.8424   69.7192 C   0  0  0  0  0
   -5.2377   21.4271   68.2974 C   0  0  0  0  0
   -5.5964   19.9577   68.1267 C   0  0  0  0  0
   -5.5910   19.5651   66.6570 C   0  0  0  0  0
   -6.7993   20.1360   65.9323 C   0  0  0  0  0
   -7.9464   19.1382   65.9407 C   0  0  0  0  0
   -9.5702   20.2830   67.5730 C   0  0  0  0  0
   -3.3140   22.9616   67.6898 C   0  0  0  0  0
   -1.8990   23.1169   67.3358 C   0  0  0  0  0
   -1.2578   24.3146   67.0912 C   0  0  0  0  0
    0.1103   22.6992   66.8810 C   0  0  0  0  0
  -10.4220   23.7832   66.3174 C   0  0  0  0  0
  -10.9438   24.5498   64.0562 O   0  0  0  0  0
   -9.8896   23.1245   68.5469 O   0  0  0  0  0
   -4.6834   21.4450   70.6236 O   0  0  0  0  0
  -10.1787   20.1915   68.6717 O   0  0  0  0  0
   -4.0539   23.9778   67.7902 O   0  0  0  0  0
    1.1788   22.0688   66.6696 O   0  0  0  0  0
   -6.5789   22.6638   70.0703 N   0  0  0  0  0
   -8.6989   19.2090   67.1875 N   0  0  0  0  0
   -3.8487   21.6546   67.9148 N   0  0  0  0  0
    0.0281   24.0411   66.8005 N   0  0  0  0  0
   -1.0432   22.0876   67.2057 N   0  0  0  0  0
  1 21  1  0  0  0
  2 21  1  0  0  0
  3  4  1  0  0  0
  5  6  1  0  0  0
  6 22  1  0  0  0
  7 22  1  0  0  0
  7  8  1  0  0  0
  8 27  1  0  0  0
 10  9  1  0  0  0
 10 11  1  0  0  0
 10 29  1  0  0  0
 11 12  1  0  0  0
 12 13  1  0  0  0
 13 14  1  0  0  0
 14 28  1  0  0  0
 15  5  1  0  0  0
 16 17  1  0  0  0
 18 30  1  0  0  0
 19 31  1  0  0  0
 20  2  1  0  0  0
 27  9  1  0  0  0
 28 15  1  0  0  0
 29 16  1  0  0  0
 30 19  1  0  0  0
 31 17  1  0  0  0
  2  3  2  0  0  0
  4  5  2  0  0  0
  6 20  2  0  0  0
  9 23  2  0  0  0
 15 24  2  0  0  0
 16 25  2  0  0  0
 17 18  2  0  0  0
 19 26  2  0  0  0
M  END
> <rmsd>
0.45087871

$$$$
MolPort-051-539-492 CSSS09880991196 MCULE-5178349963 PubChem-165418212


 31 33  0  0  0  0  0  0  0  0999 V2000
  -14.5008   21.9269   69.0906 C   0  0  0  0  0
  -12.2970   22.5103   68.1308 C   0  0  0  0  0
  -12.6567   22.0588   66.8545 C   0  0  0  0  0
  -11.7419   22.1248   65.8029 C   0  0  0  0  0
  -10.4522   22.6359   66.0036 C   0  0  0  0  0
  -10.0949   23.1210   67.2808 C   0  0  0  0  0
   -8.2364   23.7965   68.7836 C   0  0  0  0  0
   -7.9118   22.4038   69.2950 C   0  0  0  0  0
   -5.4967   21.8534   69.7091 C   0  0  0  0  0
   -5.2798   21.5049   68.2632 C   0  0  0  0  0
   -5.7188   20.0754   67.9764 C   0  0  0  0  0
   -5.8171   19.8417   66.4710 C   0  0  0  0  0
   -7.2004   20.1660   65.9116 C   0  0  0  0  0
   -7.5438   21.6333   66.0940 C   0  0  0  0  0
   -9.5310   22.6609   64.8443 C   0  0  0  0  0
   -3.3030   22.9864   67.7027 C   0  0  0  0  0
   -1.8854   23.1031   67.3449 C   0  0  0  0  0
   -1.2018   24.2850   67.1416 C   0  0  0  0  0
    0.1046   22.6299   66.8603 C   0  0  0  0  0
  -11.0218   23.0410   68.3335 C   0  0  0  0  0
  -13.1846   22.4497   69.2084 O   0  0  0  0  0
   -8.8349   23.6936   67.4946 O   0  0  0  0  0
   -4.5905   21.6344   70.5565 O   0  0  0  0  0
   -9.9675   23.0705   63.7362 O   0  0  0  0  0
   -4.0045   24.0244   67.8474 O   0  0  0  0  0
    1.1479   21.9693   66.6175 O   0  0  0  0  0
   -6.7302   22.4331   70.1386 N   0  0  0  0  0
   -8.1882   22.1605   64.9028 N   0  0  0  0  0
   -3.8847   21.6924   67.8811 N   0  0  0  0  0
    0.0715   23.9761   66.8317 N   0  0  0  0  0
   -1.0688   22.0490   67.1696 N   0  0  0  0  0
  1 21  1  0  0  0
  2 21  1  0  0  0
  3  4  1  0  0  0
  5  6  1  0  0  0
  6 22  1  0  0  0
  7 22  1  0  0  0
  7  8  1  0  0  0
  8 27  1  0  0  0
 10  9  1  0  0  0
 10 11  1  0  0  0
 10 29  1  0  0  0
 11 12  1  0  0  0
 12 13  1  0  0  0
 13 14  1  0  0  0
 14 28  1  0  0  0
 15  5  1  0  0  0
 16 17  1  0  0  0
 18 30  1  0  0  0
 19 31  1  0  0  0
 20  2  1  0  0  0
 27  9  1  0  0  0
 28 15  1  0  0  0
 29 16  1  0  0  0
 30 19  1  0  0  0
 31 17  1  0  0  0
  2  3  2  0  0  0
  4  5  2  0  0  0
  6 20  2  0  0  0
  9 23  2  0  0  0
 15 24  2  0  0  0
 16 25  2  0  0  0
 17 18  2  0  0  0
 19 26  2  0  0  0
M  END
> <rmsd>
0.49816066

$$$$
Molport-047-047-294 643568732 MCULE-2547890879 PubChem-133078984


 36 38  0  0  0  0  0  0  0  0999 V2000
   -6.4769   21.2348   68.4792 C   0  0  0  0  0
   -5.9280   22.5576   68.9911 C   0  0  0  0  0
   -4.4421   22.4766   69.3779 C   0  0  0  0  0
   -4.1212   21.5347   70.5017 C   0  0  0  0  0
   -2.2310   20.2181   71.5290 C   0  0  0  0  0
   -2.1575   19.1236   70.4759 C   0  0  0  0  0
   -0.1728   18.7812   69.0338 C   0  0  0  0  0
    0.1034   17.5532   69.6608 C   0  0  0  0  0
    1.2296   16.8086   69.3117 C   0  0  0  0  0
    2.0992   17.2831   68.3325 C   0  0  0  0  0
    1.8373   18.4985   67.6998 C   0  0  0  0  0
    0.7029   19.2589   68.0293 C   0  0  0  0  0
    0.4927   20.5372   67.3079 C   0  0  0  0  0
   -0.9742   22.4333   66.5417 C   0  0  0  0  0
   -2.4163   22.6194   66.0611 C   0  0  0  0  0
   -3.3589   23.0203   67.1482 C   0  0  0  0  0
   -0.4448   23.6159   67.2993 C   0  0  0  0  0
    0.5443   25.9468   67.2263 C   0  0  0  0  0
    1.9583   25.6279   67.7027 C   0  0  0  0  0
    2.9182   25.5309   66.5617 C   0  0  0  0  0
    2.8640   24.4509   65.6703 C   0  0  0  0  0
    3.7843   24.3596   64.6227 C   0  0  0  0  0
    4.7643   25.3447   64.4660 C   0  0  0  0  0
    4.8266   26.4182   65.3592 C   0  0  0  0  0
    3.9068   26.5090   66.4081 C   0  0  0  0  0
   -5.0086   20.8070   71.0257 O   0  0  0  0  0
   -1.2963   19.5242   69.4139 O   0  0  0  0  0
    1.4592   21.0508   66.6780 O   0  0  0  0  0
   -3.9086   24.1528   67.1072 O   0  0  0  0  0
   -0.3561   23.5807   68.5571 O   0  0  0  0  0
   -6.6918   23.0089   70.0681 O   0  0  0  0  0
   -2.7634   21.4319   70.9326 N   0  0  0  0  0
   -0.7875   21.1817   67.2731 N   0  0  0  0  0
   -3.6241   22.1232   68.2252 N   0  0  0  0  0
   -0.0596   24.7886   66.5805 N   0  0  0  0  0
    5.6555   25.2572   63.4498 F   0  0  0  0  0
  2  1  1  0  0  0
  2  3  1  0  0  0
  2 31  1  0  0  0
  3  4  1  0  0  0
  3 34  1  0  0  0
  4 32  1  0  0  0
  5 32  1  0  0  0
  5  6  1  0  0  0
  6 27  1  0  0  0
  7 27  1  0  0  0
  8  9  1  0  0  0
 10 11  1  0  0  0
 12 13  1  0  0  0
 12  7  1  0  0  0
 13 33  1  0  0  0
 14 33  1  0  0  0
 14 15  1  0  0  0
 14 17  1  0  0  0
 15 16  1  0  0  0
 16 34  1  0  0  0
 17 35  1  0  0  0
 18 35  1  0  0  0
 18 19  1  0  0  0
 19 20  1  0  0  0
 21 22  1  0  0  0
 23 24  1  0  0  0
 23 36  1  0  0  0
 25 20  1  0  0  0
  4 26  2  0  0  0
  7  8  2  0  0  0
  9 10  2  0  0  0
 11 12  2  0  0  0
 13 28  2  0  0  0
 16 29  2  0  0  0
 17 30  2  0  0  0
 20 21  2  0  0  0
 22 23  2  0  0  0
 24 25  2  0  0  0
M  END
> <rmsd>
0.60474211

$$$$
