PubChem-90863531


 20 22  0  0  0  0  0  0  0  0999 V2000
    1.9094   18.8607   69.0783 C   0  0  0  0  0
    0.8606   20.0516   70.4605 C   0  0  0  0  0
    0.6110   20.5172   69.2205 C   0  0  0  0  0
   -0.2256   21.6091   69.0379 C   0  0  0  0  0
   -0.4889   21.7027   71.4091 C   0  0  0  0  0
   -1.4972   23.0865   67.4048 C   0  0  0  0  0
   -1.2014   24.1569   66.5510 C   0  0  0  0  0
   -3.4284   24.9292   66.7084 C   0  0  0  0  0
   -2.8213   22.9513   67.8651 C   0  0  0  0  0
   -4.5062   21.5579   69.1814 C   0  0  0  0  0
    1.6834   18.9974   70.4143 N   0  0  0  0  0
    1.2634   19.7820   68.3105 N   0  0  0  0  0
   -0.7560   22.1925   70.1559 N   0  0  0  0  0
    0.3282   20.6178   71.5702 N   0  0  0  0  0
   -0.4722   22.1361   67.7298 N   0  0  0  0  0
   -2.1649   25.0582   66.2313 N   0  0  0  0  0
   -3.7488   23.8818   67.5097 N   0  0  0  0  0
   -3.2019   21.8109   68.6480 N   0  0  0  0  0
    0.1140   24.3233   66.0306 N   0  0  0  0  0
   -5.4586   22.3630   69.0062 O   0  0  0  0  0
  2 11  1  0  0  0
  2 14  1  0  0  0
  3 12  1  0  0  0
  3  4  1  0  0  0
  4 15  1  0  0  0
  5 13  1  0  0  0
  7 16  1  0  0  0
  7 19  1  0  0  0
  8 17  1  0  0  0
  9 18  1  0  0  0
  9  6  1  0  0  0
 12  1  1  0  0  0
 15  6  1  0  0  0
 18 10  1  0  0  0
  1 11  2  0  0  0
  2  3  2  0  0  0
  4 13  2  0  0  0
  5 14  2  0  0  0
  6  7  2  0  0  0
  8 16  2  0  0  0
  9 17  2  0  0  0
 10 20  2  0  0  0
M  END
> <rmsd>
0.581685841

$$$$
PubChem-90863531


 20 22  0  0  0  0  0  0  0  0999 V2000
    1.9215   18.8701   69.0749 C   0  0  0  0  0
    0.8640   20.0516   70.4587 C   0  0  0  0  0
    0.6128   20.5183   69.2195 C   0  0  0  0  0
   -0.2294   21.6063   69.0384 C   0  0  0  0  0
   -0.4949   21.6935   71.4096 C   0  0  0  0  0
   -1.4984   23.0886   67.4067 C   0  0  0  0  0
   -2.8216   22.9551   67.8672 C   0  0  0  0  0
   -3.4376   24.9231   66.7106 C   0  0  0  0  0
   -1.2016   24.1584   66.5511 C   0  0  0  0  0
    0.5748   25.3491   65.1605 C   0  0  0  0  0
    1.6932   19.0023   70.4112 N   0  0  0  0  0
    1.2708   19.7893   68.3084 N   0  0  0  0  0
   -0.7638   22.1844   70.1572 N   0  0  0  0  0
    0.3278   20.6127   71.5691 N   0  0  0  0  0
   -0.4749   22.1363   67.7314 N   0  0  0  0  0
   -3.7545   23.8763   67.5136 N   0  0  0  0  0
   -2.1742   25.0552   66.2332 N   0  0  0  0  0
    0.1290   24.3077   66.0361 N   0  0  0  0  0
   -3.2200   21.8299   68.6445 N   0  0  0  0  0
   -0.2055   26.2516   64.7574 O   0  0  0  0  0
  2 11  1  0  0  0
  2 14  1  0  0  0
  3 12  1  0  0  0
  3  4  1  0  0  0
  4 15  1  0  0  0
  5 13  1  0  0  0
  7 16  1  0  0  0
  7 19  1  0  0  0
  8 17  1  0  0  0
  9 18  1  0  0  0
  9  6  1  0  0  0
 12  1  1  0  0  0
 15  6  1  0  0  0
 18 10  1  0  0  0
  1 11  2  0  0  0
  2  3  2  0  0  0
  4 13  2  0  0  0
  5 14  2  0  0  0
  6  7  2  0  0  0
  8 16  2  0  0  0
  9 17  2  0  0  0
 10 20  2  0  0  0
M  END
> <rmsd>
0.578224778

$$$$
PubChem-46499337 ChemDiv-4464-1037 MCULE-6249872393 MolPort-007-565-189


 21 21  0  0  0  0  0  0  0  0999 V2000
   -3.7673   22.0871   67.4513 N   0  0  0  0  0
   -0.8179   21.9700   67.8263 N   0  0  0  0  0
    1.6121   20.5366   69.3640 N   0  0  0  0  0
   -2.9266   23.1683   67.8435 C   0  0  0  0  0
   -1.4900   23.2026   67.4325 C   0  0  0  0  0
   -1.3907   23.3868   65.9282 C   0  0  0  0  0
   -0.5052   21.6587   69.1857 C   0  0  0  0  0
    0.1745   20.3765   69.5080 C   0  0  0  0  0
    2.5198   19.4611   69.5993 C   0  0  0  0  0
    4.8555   18.6478   69.6098 C   0  0  0  0  0
    4.9052   17.7787   68.3990 C   0  0  0  0  0
    4.3288   16.5043   68.4290 C   0  0  0  0  0
    4.3627   15.6935   67.2902 C   0  0  0  0  0
    4.9708   16.1573   66.1196 C   0  0  0  0  0
    5.5446   17.4322   66.0872 C   0  0  0  0  0
    5.5109   18.2431   67.2259 C   0  0  0  0  0
   -3.3998   24.1087   68.5326 O   0  0  0  0  0
   -0.0644   23.6206   65.5648 O   0  0  0  0  0
   -0.7672   22.4753   70.1087 O   0  0  0  0  0
    2.0865   18.3287   69.9494 O   0  0  0  0  0
    3.8902   19.6805   69.4425 O   0  0  0  0  0
  1  4  1  0  0  0
  2  7  1  0  0  0
  3  9  1  0  0  0
  5  4  1  0  0  0
  5  6  1  0  0  0
  5  2  1  0  0  0
  6 18  1  0  0  0
  8  7  1  0  0  0
  8  3  1  0  0  0
  9 21  1  0  0  0
 10 21  1  0  0  0
 10 11  1  0  0  0
 12 13  1  0  0  0
 14 15  1  0  0  0
 16 11  1  0  0  0
  4 17  2  0  0  0
  7 19  2  0  0  0
  9 20  2  0  0  0
 11 12  2  0  0  0
 13 14  2  0  0  0
 15 16  2  0  0  0
M  END
> <rmsd>
0.772129714

$$$$
PubChem-114463676


 19 19  0  0  0  0  0  0  0  0999 V2000
    4.4441   16.9986   69.1103 C   0  0  0  0  0
    3.9528   18.0943   70.0330 C   0  0  0  0  0
    5.1277   18.6839   70.7851 C   0  0  0  0  0
    1.9840   19.4582   69.4642 C   0  0  0  0  0
   -1.8434   22.8719   67.5911 C   0  0  0  0  0
   -2.1834   23.8795   66.7160 C   0  0  0  0  0
   -3.5131   24.1468   66.9898 C   0  0  0  0  0
   -1.3321   24.5369   65.7071 C   0  0  0  0  0
    3.3209   19.1106   69.2683 O   0  0  0  0  0
    1.2903   18.8702   70.3389 O   0  0  0  0  0
   -1.1471   19.8217   68.5566 O   0  0  0  0  0
   -0.4656   21.5023   70.2267 O   0  0  0  0  0
    1.4084   20.4890   68.6617 N   0  0  0  0  0
   -0.5619   22.2497   67.6942 N   0  0  0  0  0
   -3.9131   23.3225   67.9825 N   0  0  0  0  0
   -2.9031   22.5479   68.3498 N   0  0  0  0  0
    0.0273   24.1451   65.5465 N   0  0  0  0  0
   -0.2401   20.9878   68.8328 S   0  0  0  0  0
   -1.9308   25.7260   64.7548 S   0  0  0  0  0
  1  2  1  0  0  0
  2  3  1  0  0  0
  2  9  1  0  0  0
  4  9  1  0  0  0
  4 13  1  0  0  0
  6  7  1  0  0  0
  6  8  1  0  0  0
  8 17  1  0  0  0
 14  5  1  0  0  0
 16 15  1  0  0  0
 16  5  1  0  0  0
 18 13  1  0  0  0
 18 14  1  0  0  0
  4 10  2  0  0  0
  5  6  2  0  0  0
  7 15  2  0  0  0
  8 19  2  0  0  0
 18 11  2  0  0  0
 18 12  2  0  0  0
M  END
> <rmsd>
0.725539267

$$$$
PubChem-114463676


 19 19  0  0  0  0  0  0  0  0999 V2000
    4.4442   16.9985   69.1102 C   0  0  0  0  0
    3.9529   18.0943   70.0330 C   0  0  0  0  0
    5.1278   18.6838   70.7851 C   0  0  0  0  0
    1.9841   19.4581   69.4642 C   0  0  0  0  0
   -1.8433   22.8717   67.5912 C   0  0  0  0  0
   -2.1833   23.8794   66.7161 C   0  0  0  0  0
   -3.5131   24.1467   66.9898 C   0  0  0  0  0
   -1.3320   24.5368   65.7072 C   0  0  0  0  0
    3.3211   19.1105   69.2683 O   0  0  0  0  0
    1.2904   18.8702   70.3390 O   0  0  0  0  0
   -0.4654   21.5022   70.2267 O   0  0  0  0  0
   -1.1470   19.8216   68.5567 O   0  0  0  0  0
    1.4086   20.4889   68.6618 N   0  0  0  0  0
   -0.5618   22.2496   67.6942 N   0  0  0  0  0
   -3.9131   23.3224   67.9826 N   0  0  0  0  0
   -2.9030   22.5477   68.3498 N   0  0  0  0  0
    0.0274   24.1451   65.5466 N   0  0  0  0  0
   -0.2400   20.9876   68.8328 S   0  0  0  0  0
   -1.9307   25.7259   64.7549 S   0  0  0  0  0
  1  2  1  0  0  0
  2  3  1  0  0  0
  2  9  1  0  0  0
  4  9  1  0  0  0
  4 13  1  0  0  0
  6  7  1  0  0  0
  6  8  1  0  0  0
  8 17  1  0  0  0
 14  5  1  0  0  0
 16 15  1  0  0  0
 16  5  1  0  0  0
 18 13  1  0  0  0
 18 14  1  0  0  0
  4 10  2  0  0  0
  5  6  2  0  0  0
  7 15  2  0  0  0
  8 19  2  0  0  0
 18 11  2  0  0  0
 18 12  2  0  0  0
M  END
> <rmsd>
0.725618124

$$$$
PubChem-10076131


 39 41  0  0  0  0  0  0  0  0999 V2000
   -2.0287   19.0635   68.3683 C   0  0  0  0  0
   -0.5691   19.0903   67.9491 C   0  0  0  0  0
   -0.0930   17.6589   67.7977 C   0  0  0  0  0
    0.2865   19.8335   68.9821 C   0  0  0  0  0
   -0.1819   21.2415   69.1828 C   0  0  0  0  0
   -0.7912   23.4947   68.1862 C   0  0  0  0  0
    0.1229   24.4682   68.9480 C   0  0  0  0  0
    1.5850   24.2263   68.7401 C   0  0  0  0  0
    2.1951   24.4840   67.5070 C   0  0  0  0  0
    3.5505   24.1971   67.3206 C   0  0  0  0  0
    4.3046   23.6515   68.3646 C   0  0  0  0  0
    3.6999   23.4427   69.6145 C   0  0  0  0  0
    2.3464   23.7280   69.7997 C   0  0  0  0  0
    6.3847   22.4559   69.0050 C   0  0  0  0  0
    5.9710   21.0329   68.8211 C   0  0  0  0  0
    4.1264   19.2999   68.9434 C   0  0  0  0  0
    2.7074   19.2486   69.3894 C   0  0  0  0  0
   -1.2323   24.0446   66.8226 C   0  0  0  0  0
   -2.4899   23.3508   66.2815 C   0  0  0  0  0
   -3.6235   23.4527   67.2609 C   0  0  0  0  0
   -5.2782   22.2897   68.7912 C   0  0  0  0  0
   -6.5657   22.4772   68.0628 C   0  0  0  0  0
   -7.1097   21.4232   67.3170 C   0  0  0  0  0
   -8.3156   21.5983   66.6332 C   0  0  0  0  0
   -8.9809   22.8280   66.6940 C   0  0  0  0  0
   -8.4361   23.8830   67.4360 C   0  0  0  0  0
   -7.2281   23.7085   68.1188 C   0  0  0  0  0
   -0.5506   21.6102   70.3305 O   0  0  0  0  0
    5.6402   23.3020   68.1312 O   0  0  0  0  0
    6.7768   20.2079   68.3146 O   0  0  0  0  0
    2.4219   18.7220   70.4978 O   0  0  0  0  0
   -4.0835   24.5861   67.5706 O   0  0  0  0  0
   -0.1991   23.9576   65.8861 O   0  0  0  0  0
   -0.2342   22.1475   68.0780 N   0  0  0  0  0
    4.6555   20.6269   69.2009 N   0  0  0  0  0
    1.6870   19.8360   68.5804 N   0  0  0  0  0
   -4.1635   22.2682   67.8546 N   0  0  0  0  0
   -2.2119   22.0197   66.0102 F   0  0  0  0  0
   -2.8696   23.9674   65.1011 F   0  0  0  0  0
  1  2  1  0  0  0
  2  3  1  0  0  0
  4  2  1  0  0  0
  4  5  1  0  0  0
  4 36  1  0  0  0
  5 34  1  0  0  0
  6 34  1  0  0  0
  6  7  1  0  0  0
  6 18  1  0  0  0
  7  8  1  0  0  0
  9 10  1  0  0  0
 11 12  1  0  0  0
 11 29  1  0  0  0
 13  8  1  0  0  0
 14 29  1  0  0  0
 14 15  1  0  0  0
 15 35  1  0  0  0
 16 35  1  0  0  0
 16 17  1  0  0  0
 17 36  1  0  0  0
 18 19  1  0  0  0
 18 33  1  0  0  0
 19 20  1  0  0  0
 19 38  1  0  0  0
 19 39  1  0  0  0
 20 37  1  0  0  0
 21 37  1  0  0  0
 21 22  1  0  0  0
 23 24  1  0  0  0
 25 26  1  0  0  0
 27 22  1  0  0  0
  5 28  2  0  0  0
  8  9  2  0  0  0
 10 11  2  0  0  0
 12 13  2  0  0  0
 15 30  2  0  0  0
 17 31  2  0  0  0
 20 32  2  0  0  0
 22 23  2  0  0  0
 24 25  2  0  0  0
 26 27  2  0  0  0
M  END
> <rmsd>
0.682201564

$$$$
PubChem-7299170 ZINC04597052


 20 21  0  0  0  0  0  0  0  0999 V2000
    2.3940   23.1766   65.2587 C   0  0  0  0  0
    1.9836   23.8639   64.1285 C   0  0  0  0  0
    1.4524   23.5312   66.2015 C   0  0  0  0  0
    1.4009   23.0231   67.6025 C   0  0  0  0  0
    0.6234   21.7162   67.6730 C   0  0  0  0  0
    0.8132   21.0817   69.0129 C   0  0  0  0  0
   -1.7234   20.9215   67.1257 C   0  0  0  0  0
   -3.1582   21.2481   66.8771 C   0  0  0  0  0
   -3.2972   22.1164   65.6170 C   0  0  0  0  0
   -3.9520   23.4317   66.0349 C   0  0  0  0  0
   -4.1450   23.2621   67.4856 C   0  0  0  0  0
    0.8663   24.5633   64.4106 N   0  0  0  0  0
    0.5375   24.3580   65.6735 N   0  0  0  0  0
    1.4401   19.8037   69.0986 N   0  0  0  0  0
    1.6305   19.1746   70.3352 N   0  0  0  0  0
   -0.7919   21.9648   67.4274 N   0  0  0  0  0
   -3.6946   22.0216   67.9815 N   0  0  0  0  0
    0.4180   21.6681   70.0573 O   0  0  0  0  0
   -1.3394   19.7242   67.0484 O   0  0  0  0  0
   -4.6618   24.1383   68.2257 O   0  0  0  0  0
  1  2  1  0  0  0
  4  3  1  0  0  0
  5  4  1  0  0  0
  5  6  1  0  0  0
  5 16  1  0  0  0
  6 14  1  0  0  0
  8  7  1  0  0  0
  8  9  1  0  0  0
  8 17  1  0  0  0
  9 10  1  0  0  0
 10 11  1  0  0  0
 11 17  1  0  0  0
 13 12  1  0  0  0
 13  3  1  0  0  0
 14 15  1  0  0  0
 16  7  1  0  0  0
  2 12  2  0  0  0
  3  1  2  0  0  0
  6 18  2  0  0  0
  7 19  2  0  0  0
 11 20  2  0  0  0
M  END
> <rmsd>
0.626390934

$$$$
PubChem-123936377


 25 27  0  0  0  0  0  0  0  0999 V2000
    5.9647   20.2197   66.9141 C   0  0  0  0  0
    4.6960   20.9993   66.6211 C   0  0  0  0  0
    3.1669   19.9685   68.2735 C   0  0  0  0  0
    1.4880   18.8258   69.8038 C   0  0  0  0  0
    0.2306   18.0229   69.8865 C   0  0  0  0  0
    0.3750   16.8541   70.8327 C   0  0  0  0  0
   -1.0239   16.3514   71.1014 C   0  0  0  0  0
   -0.9201   18.8728   70.3858 C   0  0  0  0  0
   -1.5615   20.9732   69.1532 C   0  0  0  0  0
   -2.1770   21.6042   67.9504 C   0  0  0  0  0
   -1.8275   23.3814   66.5893 C   0  0  0  0  0
   -1.6261   25.7133   66.1658 C   0  0  0  0  0
   -2.4804   26.1065   67.3708 C   0  0  0  0  0
   -2.7565   24.8963   68.2619 C   0  0  0  0  0
    3.5494   20.2248   66.9542 O   0  0  0  0  0
    3.8265   20.4503   69.2353 O   0  0  0  0  0
    2.0519   19.2324   70.8567 O   0  0  0  0  0
   -1.0280   21.6903   70.0441 O   0  0  0  0  0
    2.0104   19.1601   68.5139 N   0  0  0  0  0
   -1.5512   19.5505   69.2653 N   0  0  0  0  0
   -1.1549   22.2238   67.1348 N   0  0  0  0  0
   -0.8770   24.4936   66.4528 N   0  0  0  0  0
   -2.9867   23.6991   67.4498 N   0  0  0  0  0
   -3.1357   22.6260   68.3458 N   0  0  0  0  0
   -2.1284   17.7926   71.2147 S   0  0  0  0  0
  1  2  1  0  0  0
  2 15  1  0  0  0
  3 15  1  0  0  0
  3 19  1  0  0  0
  5  4  1  0  0  0
  5  6  1  0  0  0
  6  7  1  0  0  0
  7 25  1  0  0  0
  8 25  1  0  0  0
  8 20  1  0  0  0
  8  5  1  0  0  0
 10  9  1  0  0  0
 10 21  1  0  0  0
 10 24  1  0  0  0
 11 21  1  0  0  0
 11 22  1  0  0  0
 11 23  1  0  0  0
 12 22  1  0  0  0
 12 13  1  0  0  0
 13 14  1  0  0  0
 14 23  1  0  0  0
 19  4  1  0  0  0
 20  9  1  0  0  0
 23 24  1  0  0  0
  3 16  2  0  0  0
  4 17  2  0  0  0
  9 18  2  0  0  0
M  END
> <rmsd>
0.880684316

$$$$
PubChem-4139449


 22 23  0  0  0  0  0  0  0  0999 V2000
   -9.1983   18.7858   68.0619 C   0  0  0  0  0
   -7.3642   20.4301   68.2878 C   0  0  0  0  0
   -6.9169   21.6379   68.8316 C   0  0  0  0  0
   -5.6232   22.0951   68.5653 C   0  0  0  0  0
   -4.7602   21.3482   67.7498 C   0  0  0  0  0
   -5.2077   20.1396   67.2069 C   0  0  0  0  0
   -6.5011   19.6811   67.4721 C   0  0  0  0  0
   -2.7972   22.9915   67.9109 C   0  0  0  0  0
   -1.3814   23.2811   67.5305 C   0  0  0  0  0
   -1.3018   23.5735   66.0425 C   0  0  0  0  0
   -0.1980   21.7850   69.2033 C   0  0  0  0  0
    0.6345   20.6038   69.4553 C   0  0  0  0  0
    1.0240   20.1429   70.6917 C   0  0  0  0  0
    1.8159   18.8683   69.1566 C   0  0  0  0  0
   -8.6630   19.9994   68.5720 O   0  0  0  0  0
   -3.4228   23.8250   68.6179 O   0  0  0  0  0
   -0.0271   24.0376   65.7172 O   0  0  0  0  0
   -0.6199   22.4766   70.1696 O   0  0  0  0  0
   -3.4258   21.7834   67.4570 N   0  0  0  0  0
   -0.5248   22.1478   67.8590 N   0  0  0  0  0
    1.7726   19.0427   70.4940 N   0  0  0  0  0
    1.1251   19.8123   68.4871 N   0  0  0  0  0
  1 15  1  0  0  0
  2 15  1  0  0  0
  3  4  1  0  0  0
  5  6  1  0  0  0
  5 19  1  0  0  0
  7  2  1  0  0  0
  9  8  1  0  0  0
  9 10  1  0  0  0
  9 20  1  0  0  0
 10 17  1  0  0  0
 11 12  1  0  0  0
 13 21  1  0  0  0
 14 22  1  0  0  0
 19  8  1  0  0  0
 20 11  1  0  0  0
 22 12  1  0  0  0
  2  3  2  0  0  0
  4  5  2  0  0  0
  6  7  2  0  0  0
  8 16  2  0  0  0
 11 18  2  0  0  0
 12 13  2  0  0  0
 14 21  2  0  0  0
M  END
> <rmsd>
0.699704587

$$$$
PubChem-136987926


 19 19  0  0  0  0  0  0  0  0999 V2000
    4.4427   16.9948   69.1135 C   0  0  0  0  0
    3.9515   18.0907   70.0362 C   0  0  0  0  0
    5.1263   18.6797   70.7888 C   0  0  0  0  0
    1.9835   19.4553   69.4666 C   0  0  0  0  0
   -1.8421   22.8703   67.5924 C   0  0  0  0  0
   -2.1820   23.8776   66.7177 C   0  0  0  0  0
   -3.5109   24.1468   66.9889 C   0  0  0  0  0
   -1.3369   24.5378   65.7089 C   0  0  0  0  0
    3.3204   19.1072   69.2713 O   0  0  0  0  0
    1.2892   18.8675   70.3411 O   0  0  0  0  0
   -1.1472   19.8200   68.5580 O   0  0  0  0  0
   -0.4656   21.5003   70.2283 O   0  0  0  0  0
    1.4086   20.4864   68.6641 N   0  0  0  0  0
   -0.5608   22.2479   67.6958 N   0  0  0  0  0
   -3.9119   23.3226   67.9816 N   0  0  0  0  0
   -2.9027   22.5471   68.3500 N   0  0  0  0  0
   -1.8263   25.4747   64.9661 N   0  0  0  0  0
    0.0237   24.1534   65.5410 N   0  0  0  0  0
   -0.2399   20.9857   68.8345 S   0  0  0  0  0
  1  2  1  0  0  0
  2  3  1  0  0  0
  2  9  1  0  0  0
  4  9  1  0  0  0
  4 13  1  0  0  0
  6  7  1  0  0  0
  6  8  1  0  0  0
  8 18  1  0  0  0
 14  5  1  0  0  0
 16 15  1  0  0  0
 16  5  1  0  0  0
 19 13  1  0  0  0
 19 14  1  0  0  0
  4 10  2  0  0  0
  5  6  2  0  0  0
  7 15  2  0  0  0
  8 17  2  0  0  0
 19 11  2  0  0  0
 19 12  2  0  0  0
M  END
> <rmsd>
0.725857615

$$$$
PubChem-6722771


 26 27  0  0  0  0  0  0  0  0999 V2000
   -3.7121   17.3803   67.1567 C   0  0  0  0  0
   -3.6864   17.3105   65.6326 C   0  0  0  0  0
   -3.7721   18.6953   65.0043 C   0  0  0  0  0
   -5.1308   19.3167   65.2723 C   0  0  0  0  0
   -5.0370   20.8239   65.0995 C   0  0  0  0  0
   -5.6904   21.5577   66.2711 C   0  0  0  0  0
   -4.8778   21.4958   67.5710 C   0  0  0  0  0
   -5.0057   20.1211   68.2254 C   0  0  0  0  0
   -4.3304   20.0560   69.5902 C   0  0  0  0  0
   -2.8428   19.7484   69.4732 C   0  0  0  0  0
   -2.5935   18.2724   69.1905 C   0  0  0  0  0
   -2.4466   18.0291   67.6973 C   0  0  0  0  0
   -2.8334   22.9652   67.8953 C   0  0  0  0  0
   -1.4083   23.2602   67.5588 C   0  0  0  0  0
   -1.2895   23.5939   66.0804 C   0  0  0  0  0
   -0.1338   21.8242   69.2082 C   0  0  0  0  0
    0.6568   20.6144   69.4648 C   0  0  0  0  0
    1.1878   20.2343   70.6778 C   0  0  0  0  0
    1.6976   18.7877   69.1698 C   0  0  0  0  0
   -3.4805   21.8311   67.3134 N   0  0  0  0  0
   -0.5691   22.1118   67.8747 N   0  0  0  0  0
    1.8501   19.0777   70.4812 N   0  0  0  0  0
    0.9669   19.7127   68.5162 N   0  0  0  0  0
   -3.4650   23.7415   68.6626 O   0  0  0  0  0
    0.0003   24.0431   65.7943 O   0  0  0  0  0
   -0.4220   22.6049   70.1571 O   0  0  0  0  0
  1  2  1  0  0  0
  2  3  1  0  0  0
  3  4  1  0  0  0
  4  5  1  0  0  0
  5  6  1  0  0  0
  6  7  1  0  0  0
  7  8  1  0  0  0
  7 20  1  0  0  0
  8  9  1  0  0  0
  9 10  1  0  0  0
 10 11  1  0  0  0
 11 12  1  0  0  0
 12  1  1  0  0  0
 14 13  1  0  0  0
 14 15  1  0  0  0
 14 21  1  0  0  0
 15 25  1  0  0  0
 16 17  1  0  0  0
 18 22  1  0  0  0
 19 23  1  0  0  0
 20 13  1  0  0  0
 21 16  1  0  0  0
 23 17  1  0  0  0
 13 24  2  0  0  0
 16 26  2  0  0  0
 17 18  2  0  0  0
 19 22  2  0  0  0
M  END
> <rmsd>
0.74884212

$$$$
PubChem-123623002


 33 34  0  0  0  0  0  0  0  0999 V2000
   -0.0206   22.5108   63.1052 C   0  0  0  0  0
   -0.4223   23.9388   63.4241 C   0  0  0  0  0
    0.5296   24.5412   64.4436 C   0  0  0  0  0
    0.4073   26.0579   64.4218 C   0  0  0  0  0
    0.2994   23.9497   65.8431 C   0  0  0  0  0
    1.5014   24.1438   66.7192 C   0  0  0  0  0
    1.7822   21.7089   67.0411 C   0  0  0  0  0
    1.5169   21.0413   68.3907 C   0  0  0  0  0
    0.3350   21.6717   69.0774 C   0  0  0  0  0
   -1.3947   20.7840   67.4107 C   0  0  0  0  0
   -2.6461   21.3407   66.7356 C   0  0  0  0  0
   -2.3477   22.5337   65.8241 C   0  0  0  0  0
   -2.1341   23.8292   66.5573 C   0  0  0  0  0
   -3.4457   22.6862   64.7868 C   0  0  0  0  0
   -1.6847   19.3736   67.8919 C   0  0  0  0  0
    1.3837   18.6911   69.3451 C   0  0  0  0  0
    1.1470   17.2410   69.1463 C   0  0  0  0  0
    1.1445   16.4010   70.2718 C   0  0  0  0  0
    0.9219   15.0286   70.1424 C   0  0  0  0  0
    0.6982   14.4749   68.8820 C   0  0  0  0  0
    0.6985   15.2936   67.7517 C   0  0  0  0  0
    0.9215   16.6692   67.8718 C   0  0  0  0  0
    2.8835   20.9894   66.2806 C   0  0  0  0  0
    1.8957   25.3082   66.9940 O   0  0  0  0  0
    2.1868   23.0545   67.2577 O   0  0  0  0  0
    0.5297   22.2973   70.1514 O   0  0  0  0  0
   -3.0765   24.3448   67.2156 O   0  0  0  0  0
   -3.6570   21.6216   67.6621 O   0  0  0  0  0
    1.6345   19.1295   70.5016 O   0  0  0  0  0
    0.9179   17.4431   66.7175 O   0  0  0  0  0
   -0.9936   21.6163   68.5396 N   0  0  0  0  0
   -0.8816   24.5123   66.4886 N   0  0  0  0  0
    1.3279   19.6023   68.2432 N   0  0  0  0  0
  1  2  1  0  0  0
  2  3  1  0  0  0
  3  4  1  0  0  0
  3  5  1  0  0  0
  5  6  1  0  0  0
  5 32  1  0  0  0
  6 25  1  0  0  0
  7 25  1  0  0  0
  7  8  1  0  0  0
  7 23  1  0  0  0
  8  9  1  0  0  0
  8 33  1  0  0  0
  9 31  1  0  0  0
 10 31  1  0  0  0
 10 11  1  0  0  0
 10 15  1  0  0  0
 11 12  1  0  0  0
 11 28  1  0  0  0
 12 13  1  0  0  0
 12 14  1  0  0  0
 13 32  1  0  0  0
 16 17  1  0  0  0
 18 19  1  0  0  0
 20 21  1  0  0  0
 22 30  1  0  0  0
 22 17  1  0  0  0
 33 16  1  0  0  0
  6 24  2  0  0  0
  9 26  2  0  0  0
 13 27  2  0  0  0
 16 29  2  0  0  0
 17 18  2  0  0  0
 19 20  2  0  0  0
 21 22  2  0  0  0
M  END
> <rmsd>
0.824908137

$$$$
PubChem-123907001


 37 40  0  0  0  0  0  0  0  0999 V2000
   -0.5849   17.7427   67.9247 C   0  0  0  0  0
   -0.6555   19.2502   67.7767 C   0  0  0  0  0
    0.1707   19.9208   68.8751 C   0  0  0  0  0
   -0.1753   21.3640   69.0534 C   0  0  0  0  0
   -0.6227   23.6320   68.0602 C   0  0  0  0  0
   -1.1918   24.1607   66.7385 C   0  0  0  0  0
   -2.4605   23.4306   66.2907 C   0  0  0  0  0
   -3.4837   23.3136   67.3807 C   0  0  0  0  0
   -4.0208   20.8359   66.9042 C   0  0  0  0  0
   -2.6198   20.3164   66.7550 C   0  0  0  0  0
   -4.7186   21.0609   65.5657 C   0  0  0  0  0
   -6.2147   20.8941   65.7427 C   0  0  0  0  0
   -5.3975   19.7788   65.1266 C   0  0  0  0  0
    0.5236   24.5020   68.5628 C   0  0  0  0  0
    0.0121   25.6721   69.3364 C   0  0  0  0  0
    0.2599   25.7490   70.7113 C   0  0  0  0  0
   -0.2034   26.8434   71.4477 C   0  0  0  0  0
   -0.9114   27.8665   70.8094 C   0  0  0  0  0
   -1.1540   27.7966   69.4343 C   0  0  0  0  0
   -0.6909   26.7023   68.6976 C   0  0  0  0  0
    2.5130   19.2233   69.5113 C   0  0  0  0  0
    3.9517   19.1037   69.1866 C   0  0  0  0  0
    4.4973   19.5472   67.9617 C   0  0  0  0  0
    5.8662   19.3988   67.7305 C   0  0  0  0  0
    6.6830   18.8198   68.7002 C   0  0  0  0  0
    6.1150   18.3929   69.8994 C   0  0  0  0  0
   -0.4811   21.7850   70.2010 O   0  0  0  0  0
   -3.8411   24.3441   68.0098 O   0  0  0  0  0
   -1.9909   20.4703   65.6709 O   0  0  0  0  0
   -2.0160   19.6654   67.8321 O   0  0  0  0  0
   -0.2331   24.0936   65.7254 O   0  0  0  0  0
    2.0970   18.8158   70.6303 O   0  0  0  0  0
    3.7104   20.1297   66.9752 O   0  0  0  0  0
   -0.1843   22.2500   67.9308 N   0  0  0  0  0
   -4.0658   22.0483   67.7236 N   0  0  0  0  0
    1.5896   19.7916   68.5797 N   0  0  0  0  0
    4.7807   18.5423   70.1127 N   0  0  0  0  0
  1  2  1  0  0  0
  2  3  1  0  0  0
  2 30  1  0  0  0
  3  4  1  0  0  0
  3 36  1  0  0  0
  4 34  1  0  0  0
  5 34  1  0  0  0
  5  6  1  0  0  0
  5 14  1  0  0  0
  6  7  1  0  0  0
  6 31  1  0  0  0
  7  8  1  0  0  0
  8 35  1  0  0  0
  9 35  1  0  0  0
  9 10  1  0  0  0
  9 11  1  0  0  0
 10 30  1  0  0  0
 11 12  1  0  0  0
 12 13  1  0  0  0
 13 11  1  0  0  0
 14 15  1  0  0  0
 16 17  1  0  0  0
 18 19  1  0  0  0
 20 15  1  0  0  0
 21 22  1  0  0  0
 22 37  1  0  0  0
 23 24  1  0  0  0
 23 33  1  0  0  0
 25 26  1  0  0  0
 36 21  1  0  0  0
  4 27  2  0  0  0
  8 28  2  0  0  0
 10 29  2  0  0  0
 15 16  2  0  0  0
 17 18  2  0  0  0
 19 20  2  0  0  0
 21 32  2  0  0  0
 22 23  2  0  0  0
 24 25  2  0  0  0
 26 37  2  0  0  0
M  END
> <rmsd>
0.581975698

$$$$
PubChem-123907001


 37 40  0  0  0  0  0  0  0  0999 V2000
   -0.5347   17.7247   67.9395 C   0  0  0  0  0
   -0.5696   19.2194   67.6908 C   0  0  0  0  0
    0.3422   19.9320   68.6898 C   0  0  0  0  0
   -0.0612   21.3499   68.9369 C   0  0  0  0  0
   -0.5741   23.6535   68.0417 C   0  0  0  0  0
   -1.1990   24.2186   66.7577 C   0  0  0  0  0
   -2.4805   23.4933   66.3313 C   0  0  0  0  0
   -3.4299   23.2477   67.4681 C   0  0  0  0  0
   -3.9044   20.8450   66.7515 C   0  0  0  0  0
   -2.5173   20.2938   66.6521 C   0  0  0  0  0
   -4.8780   19.7529   67.1658 C   0  0  0  0  0
   -6.2384   20.0398   66.5601 C   0  0  0  0  0
   -5.3437   18.9878   65.9419 C   0  0  0  0  0
    0.6079   24.4919   68.5263 C   0  0  0  0  0
    0.2156   25.8965   68.8469 C   0  0  0  0  0
    0.8421   26.9500   68.1751 C   0  0  0  0  0
    0.5016   28.2726   68.4717 C   0  0  0  0  0
   -0.4652   28.5438   69.4439 C   0  0  0  0  0
   -1.0877   27.4928   70.1242 C   0  0  0  0  0
   -0.7455   26.1701   69.8292 C   0  0  0  0  0
    2.7901   19.1837   68.8246 C   0  0  0  0  0
    2.6489   18.5202   70.1486 C   0  0  0  0  0
    3.5365   17.5040   70.5678 C   0  0  0  0  0
    3.3705   16.9228   71.8260 C   0  0  0  0  0
    2.3389   17.3460   72.6608 C   0  0  0  0  0
    1.4785   18.3510   72.2218 C   0  0  0  0  0
   -0.3294   21.7177   70.1113 O   0  0  0  0  0
   -3.7583   24.1973   68.2269 O   0  0  0  0  0
   -1.9066   20.3669   65.5499 O   0  0  0  0  0
   -1.9131   19.6877   67.7572 O   0  0  0  0  0
   -0.2784   24.1928   65.7091 O   0  0  0  0  0
    3.8912   19.1294   68.2148 O   0  0  0  0  0
    4.5702   17.0583   69.7527 O   0  0  0  0  0
   -0.1505   22.2728   67.8476 N   0  0  0  0  0
   -3.9694   21.9446   67.7085 N   0  0  0  0  0
    1.7128   19.8962   68.2021 N   0  0  0  0  0
    1.6504   18.9067   70.9929 N   0  0  0  0  0
  1  2  1  0  0  0
  2  3  1  0  0  0
  2 30  1  0  0  0
  3  4  1  0  0  0
  3 36  1  0  0  0
  4 34  1  0  0  0
  5 34  1  0  0  0
  5  6  1  0  0  0
  5 14  1  0  0  0
  6  7  1  0  0  0
  6 31  1  0  0  0
  7  8  1  0  0  0
  8 35  1  0  0  0
  9 35  1  0  0  0
  9 10  1  0  0  0
  9 11  1  0  0  0
 10 30  1  0  0  0
 11 12  1  0  0  0
 12 13  1  0  0  0
 13 11  1  0  0  0
 14 15  1  0  0  0
 16 17  1  0  0  0
 18 19  1  0  0  0
 20 15  1  0  0  0
 21 22  1  0  0  0
 22 37  1  0  0  0
 23 24  1  0  0  0
 23 33  1  0  0  0
 25 26  1  0  0  0
 36 21  1  0  0  0
  4 27  2  0  0  0
  8 28  2  0  0  0
 10 29  2  0  0  0
 15 16  2  0  0  0
 17 18  2  0  0  0
 19 20  2  0  0  0
 21 32  2  0  0  0
 22 23  2  0  0  0
 24 25  2  0  0  0
 26 37  2  0  0  0
M  END
> <rmsd>
0.597440362

$$$$
PubChem-11161731


 18 17  0  0  0  0  0  0  0  0999 V2000
    6.2171   19.2736   69.0833 C   0  0  0  0  0
    4.8824   18.6754   69.4742 C   0  0  0  0  0
    4.6246   17.4622   68.5972 C   0  0  0  0  0
    4.9546   18.2511   70.9309 C   0  0  0  0  0
    2.5031   19.4618   69.5447 C   0  0  0  0  0
    0.1626   20.3945   69.5583 C   0  0  0  0  0
   -0.5277   21.6657   69.2157 C   0  0  0  0  0
   -1.5868   23.1432   67.4518 C   0  0  0  0  0
   -1.4999   23.3019   65.9433 C   0  0  0  0  0
   -3.0181   23.1102   67.8794 C   0  0  0  0  0
    3.8656   19.6623   69.2844 O   0  0  0  0  0
    2.0844   18.3534   69.9792 O   0  0  0  0  0
   -0.7375   22.5236   70.1143 O   0  0  0  0  0
   -3.4605   24.0063   68.6437 O   0  0  0  0  0
    1.5886   20.5319   69.3113 N   0  0  0  0  0
   -0.9094   21.9195   67.8623 N   0  0  0  0  0
   -3.8840   22.0700   67.4343 N   0  0  0  0  0
    0.1984   23.7205   65.4526 S   0  0  0  0  0
  1  2  1  0  0  0
  2  3  1  0  0  0
  2  4  1  0  0  0
  2 11  1  0  0  0
  5 11  1  0  0  0
  5 15  1  0  0  0
  6 15  1  0  0  0
  6  7  1  0  0  0
  7 16  1  0  0  0
  8 16  1  0  0  0
  8  9  1  0  0  0
  8 10  1  0  0  0
  9 18  1  0  0  0
 10 17  1  0  0  0
  5 12  2  0  0  0
  7 13  2  0  0  0
 10 14  2  0  0  0
M  END
> <rmsd>
0.785741448

$$$$
PubChem-118677213


 17 16  0  0  0  0  0  0  0  0999 V2000
    4.2319   21.3380   70.2029 C   0  0  0  0  0
    3.3580   20.3309   70.8666 C   0  0  0  0  0
    3.5829   20.0330   72.1401 C   0  0  0  0  0
    2.2633   19.6859   70.1206 C   0  0  0  0  0
    0.9664   19.4303   67.9720 C   0  0  0  0  0
    0.9332   20.0365   66.5777 C   0  0  0  0  0
    0.5431   21.5051   66.6298 C   0  0  0  0  0
   -1.1309   23.0086   67.5165 C   0  0  0  0  0
   -0.2767   23.3613   68.7422 C   0  0  0  0  0
   -2.5901   23.1365   67.8718 C   0  0  0  0  0
    1.5162   18.8426   70.6896 O   0  0  0  0  0
   -3.0492   24.2463   68.2538 O   0  0  0  0  0
    2.0458   20.0205   68.7484 N   0  0  0  0  0
   -0.8479   21.6400   67.0588 N   0  0  0  0  0
   -0.4788   22.4024   69.8183 N   0  0  0  0  0
   -3.4673   22.0164   67.7814 N   0  0  0  0  0
   -0.8381   23.9558   66.4487 N   0  0  0  0  0
  1  2  1  0  0  0
  2  4  1  0  0  0
  4 13  1  0  0  0
  5 13  1  0  0  0
  5  6  1  0  0  0
  6  7  1  0  0  0
  7 14  1  0  0  0
  8 14  1  0  0  0
  8  9  1  0  0  0
  8 10  1  0  0  0
  8 17  1  0  0  0
  9 15  1  0  0  0
 10 16  1  0  0  0
  2  3  2  0  0  0
  4 11  2  0  0  0
 10 12  2  0  0  0
M  END
> <rmsd>
0.598953247

$$$$
