PubChem-103121933


 18 18  0  0  0  0  0  0  0  0999 V2000
    2.5924   17.7790   67.7005 C   0  0  0  0  0
    2.8938   18.6124   68.9344 C   0  0  0  0  0
    1.7088   19.4283   69.3373 C   0  0  0  0  0
    0.0315   21.2321   68.7020 C   0  0  0  0  0
    5.1754   19.5037   69.4625 C   0  0  0  0  0
    5.9860   20.4721   68.9036 C   0  0  0  0  0
    7.3092   20.9178   69.3616 C   0  0  0  0  0
    5.4123   18.7116   70.7064 C   0  0  0  0  0
    1.2159   19.2656   70.4849 O   0  0  0  0  0
   -0.5617   21.1832   69.8119 O   0  0  0  0  0
    7.9153   21.8288   68.7392 O   0  0  0  0  0
    7.9029   20.3419   70.4777 O   0  0  0  0  0
    1.1531   20.3866   68.4269 N   0  0  0  0  0
   -0.4193   22.1419   67.7062 N   0  0  0  0  0
    4.0606   19.4609   68.7140 N   0  0  0  0  0
    5.3461   20.9785   67.8286 N   0  0  0  0  0
    4.1820   20.3489   67.7383 N   0  0  0  0  0
    4.8308   19.4019   71.8435 N   0  0  0  0  0
  1  2  1  0  0  0
  2  3  1  0  0  0
  2 15  1  0  0  0
  3 13  1  0  0  0
  4 14  1  0  0  0
  6 16  1  0  0  0
  6  7  1  0  0  0
  7 12  1  0  0  0
  8  5  1  0  0  0
  8 18  1  0  0  0
 13  4  1  0  0  0
 15  5  1  0  0  0
 15 17  1  0  0  0
  3  9  2  0  0  0
  4 10  2  0  0  0
  5  6  2  0  0  0
  7 11  2  0  0  0
 16 17  2  0  0  0
M  END
> <rmsd>
0.734061718

$$$$
PubChem-106113086


 15 14  0  0  0  0  0  0  0  0999 V2000
    5.9553   18.6506   70.1721 C   0  0  0  0  0
    4.9438   19.7417   69.8664 C   0  0  0  0  0
    3.7958   19.1068   69.0837 C   0  0  0  0  0
    1.3823   19.7522   69.4427 C   0  0  0  0  0
    0.2757   20.7384   69.2657 C   0  0  0  0  0
   -0.1256   20.8043   67.8006 C   0  0  0  0  0
   -0.1224   22.2720   70.8148 C   0  0  0  0  0
    5.5827   20.8517   69.0717 C   0  0  0  0  0
    2.6842   20.0349   68.9256 N   0  0  0  0  0
   -1.3360   21.5929   67.6526 N   0  0  0  0  0
    1.1547   18.6679   70.0426 O   0  0  0  0  0
    0.6851   21.9996   69.7091 O   0  0  0  0  0
    4.9304   21.8987   68.8156 O   0  0  0  0  0
    6.8941   20.7455   68.6193 O   0  0  0  0  0
    4.4669   20.2497   71.0769 O   0  0  0  0  0
  1  2  1  0  0  0
  2  3  1  0  0  0
  2  8  1  0  0  0
  2 15  1  0  0  0
  3  9  1  0  0  0
  5  4  1  0  0  0
  5  6  1  0  0  0
  5 12  1  0  0  0
  6 10  1  0  0  0
  7 12  1  0  0  0
  8 14  1  0  0  0
  9  4  1  0  0  0
  4 11  2  0  0  0
  8 13  2  0  0  0
M  END
> <rmsd>
0.825596929

$$$$
PubChem-21157333


 15 15  0  0  0  0  0  0  0  0999 V2000
    5.7153   19.0324   71.9467 C   0  0  0  0  0
    5.4059   20.1484   70.1620 C   0  0  0  0  0
    4.1836   19.6772   70.6019 C   0  0  0  0  0
    2.8642   19.7935   69.9591 C   0  0  0  0  0
    0.5500   21.2095   68.4731 C   0  0  0  0  0
    6.3715   19.7412   71.0028 N   0  0  0  0  0
    4.3824   18.9764   71.7324 N   0  0  0  0  0
    2.7595   20.0260   68.5500 N   0  0  0  0  0
    1.5690   20.3884   67.8943 N   0  0  0  0  0
   -0.7127   21.3187   67.8281 N   0  0  0  0  0
    5.6581   21.0178   69.0526 N   0  0  0  0  0
    1.8274   19.5849   70.6442 O   0  0  0  0  0
    0.7737   21.8760   69.5177 O   0  0  0  0  0
    6.9196   21.1364   68.5777 O   0  0  0  0  0
    4.7220   21.9066   68.6471 O   0  0  0  0  0
  2  6  1  0  0  0
  2 11  1  0  0  0
  3  7  1  0  0  0
  3  4  1  0  0  0
  4  8  1  0  0  0
  5 10  1  0  0  0
  7  1  1  0  0  0
  8  9  1  0  0  0
  9  5  1  0  0  0
 11 14  1  0  0  0
 11 15  1  0  0  0
  1  6  2  0  0  0
  2  3  2  0  0  0
  4 12  2  0  0  0
  5 13  2  0  0  0
M  CHG  1  15  -1
M  END
> <rmsd>
0.802643657

$$$$
PubChem-69009693


 32 35  0  0  0  0  0  0  0  0999 V2000
    7.9196   24.1970   67.9571 C   0  0  0  0  0
    7.4704   22.8820   67.3494 C   0  0  0  0  0
    5.9038   21.4121   68.6238 C   0  0  0  0  0
    3.6165   21.0308   68.3348 C   0  0  0  0  0
    3.6049   20.1326   69.4333 C   0  0  0  0  0
    4.8211   19.8825   70.1335 C   0  0  0  0  0
    5.9619   20.5625   69.6837 C   0  0  0  0  0
    7.2814   20.5949   70.1111 C   0  0  0  0  0
    6.0607   18.5326   71.9334 C   0  0  0  0  0
    6.7431   17.4406   71.1093 C   0  0  0  0  0
    7.8721   16.8271   71.9375 C   0  0  0  0  0
    6.9314   17.3319   73.9295 C   0  0  0  0  0
    5.7003   18.0023   73.3184 C   0  0  0  0  0
    2.3177   19.4919   69.7986 C   0  0  0  0  0
   -0.1889   19.2949   69.2461 C   0  0  0  0  0
   -0.4766   18.4101   70.2972 C   0  0  0  0  0
   -1.7756   17.9352   70.4925 C   0  0  0  0  0
   -2.8020   18.3400   69.6376 C   0  0  0  0  0
   -2.5291   19.2207   68.5889 C   0  0  0  0  0
   -1.2292   19.7022   68.3891 C   0  0  0  0  0
   -0.9705   20.6480   67.2586 C   0  0  0  0  0
   -1.0053   22.8945   68.4354 C   0  0  0  0  0
   -1.7083   24.1785   68.6898 C   0  0  0  0  0
    7.1102   21.9431   68.4006 N   0  0  0  0  0
    4.7617   21.6603   67.9418 N   0  0  0  0  0
    7.9559   21.4493   69.2968 N   0  0  0  0  0
    4.8555   18.9865   71.2563 N   0  0  0  0  0
    1.1425   19.7899   69.0289 N   0  0  0  0  0
   -1.5731   21.9468   67.5292 N   0  0  0  0  0
    7.3494   16.2625   73.1159 O   0  0  0  0  0
    2.2518   18.6953   70.7730 O   0  0  0  0  0
    0.0876   22.6577   69.0147 O   0  0  0  0  0
  1  2  1  0  0  0
  2 24  1  0  0  0
  4 25  1  0  0  0
  5  6  1  0  0  0
  5 14  1  0  0  0
  6 27  1  0  0  0
  7  8  1  0  0  0
  7  3  1  0  0  0
  9 27  1  0  0  0
  9 10  1  0  0  0
 10 11  1  0  0  0
 11 30  1  0  0  0
 12 30  1  0  0  0
 12 13  1  0  0  0
 13  9  1  0  0  0
 14 28  1  0  0  0
 16 17  1  0  0  0
 18 19  1  0  0  0
 20 15  1  0  0  0
 21 20  1  0  0  0
 21 29  1  0  0  0
 23 22  1  0  0  0
 24  3  1  0  0  0
 24 26  1  0  0  0
 28 15  1  0  0  0
 29 22  1  0  0  0
  3 25  2  0  0  0
  4  5  2  0  0  0
  6  7  2  0  0  0
  8 26  2  0  0  0
 14 31  2  0  0  0
 15 16  2  0  0  0
 17 18  2  0  0  0
 19 20  2  0  0  0
 22 32  2  0  0  0
M  END
> <rmsd>
0.760090828

$$$$
PubChem-138730338


 31 33  0  0  0  0  0  0  0  0999 V2000
   -1.7902   18.8670   69.0473 C   0  0  0  0  0
   -1.9882   20.3253   68.6763 C   0  0  0  0  0
   -2.4133   21.1256   69.8974 C   0  0  0  0  0
   -0.7443   20.8977   67.9854 C   0  0  0  0  0
    0.4835   20.9113   68.8467 C   0  0  0  0  0
    2.8006   20.0056   69.2972 C   0  0  0  0  0
    3.9532   19.4694   68.4616 C   0  0  0  0  0
    5.1159   20.4078   68.5152 C   0  0  0  0  0
    6.3978   22.0444   68.1536 C   0  0  0  0  0
    6.4276   19.2236   70.3032 C   0  0  0  0  0
    5.9896   19.7322   71.6733 C   0  0  0  0  0
    3.5716   19.0584   71.5629 C   0  0  0  0  0
    2.5755   19.1070   70.4845 C   0  0  0  0  0
    0.8699   21.6761   65.3776 C   0  0  0  0  0
    1.9253   22.5837   65.5172 C   0  0  0  0  0
    3.2358   22.1810   65.2460 C   0  0  0  0  0
    3.4953   20.8684   64.8407 C   0  0  0  0  0
    2.4430   19.9581   64.7065 C   0  0  0  0  0
    1.1320   20.3613   64.9747 C   0  0  0  0  0
    0.5333   21.6343   69.8784 O   0  0  0  0  0
    3.5637   18.1104   72.3931 O   0  0  0  0  0
    1.5696   18.3473   70.5296 O   0  0  0  0  0
   -1.7498   21.2149   65.1279 O   0  0  0  0  0
   -1.0143   23.5445   65.1684 O   0  0  0  0  0
    1.6035   20.1082   68.4731 N   0  0  0  0  0
    5.2030   21.5306   67.7794 N   0  0  0  0  0
    7.0066   21.2711   69.0774 N   0  0  0  0  0
    6.2026   20.2465   69.2882 N   0  0  0  0  0
    4.5755   20.0688   71.6450 N   0  0  0  0  0
   -1.0124   22.2291   67.4599 N   0  0  0  0  0
   -0.7731   22.1778   65.7449 S   0  0  0  0  0
  1  2  1  0  0  0
  2  3  1  0  0  0
  2  4  1  0  0  0
  4  5  1  0  0  0
  4 30  1  0  0  0
  5 25  1  0  0  0
  6 25  1  0  0  0
  6  7  1  0  0  0
  6 13  1  0  0  0
  7  8  1  0  0  0
  9 26  1  0  0  0
 10 28  1  0  0  0
 10 11  1  0  0  0
 11 29  1  0  0  0
 12 13  1  0  0  0
 15 16  1  0  0  0
 17 18  1  0  0  0
 19 14  1  0  0  0
 28 27  1  0  0  0
 28  8  1  0  0  0
 29 12  1  0  0  0
 31 30  1  0  0  0
 31 14  1  0  0  0
  5 20  2  0  0  0
  8 26  2  0  0  0
  9 27  2  0  0  0
 12 21  2  0  0  0
 13 22  2  0  0  0
 14 15  2  0  0  0
 16 17  2  0  0  0
 18 19  2  0  0  0
 31 23  2  0  0  0
 31 24  2  0  0  0
M  END
> <rmsd>
0.587613702

$$$$
PubChem-103121991


 21 21  0  0  0  0  0  0  0  0999 V2000
   -5.0052   23.1168   66.8847 C   0  0  0  0  0
   -2.8944   22.6680   67.3371 C   0  0  0  0  0
   -1.6814   22.9780   68.1893 C   0  0  0  0  0
    0.0085   21.1985   68.7602 C   0  0  0  0  0
    1.7788   19.4183   69.1608 C   0  0  0  0  0
    2.8892   18.6117   68.5819 C   0  0  0  0  0
    5.0835   19.5179   69.3942 C   0  0  0  0  0
    5.9782   20.4455   68.8974 C   0  0  0  0  0
    7.2219   20.9238   69.5168 C   0  0  0  0  0
    5.1238   18.8134   70.7109 C   0  0  0  0  0
   -3.9419   23.5160   67.6930 O   0  0  0  0  0
   -0.4043   21.1611   69.9514 O   0  0  0  0  0
    1.4877   19.2869   70.3792 O   0  0  0  0  0
    7.9212   21.7922   68.9322 O   0  0  0  0  0
    7.6383   20.4254   70.7449 O   0  0  0  0  0
   -0.5910   22.0907   67.8213 N   0  0  0  0  0
    1.0795   20.3518   68.3302 N   0  0  0  0  0
    4.0970   19.4184   68.4874 N   0  0  0  0  0
    5.5113   20.8745   67.7057 N   0  0  0  0  0
    4.3684   20.2382   67.4848 N   0  0  0  0  0
    4.4748   19.6282   71.7223 N   0  0  0  0  0
  1 11  1  0  0  0
  2 11  1  0  0  0
  2  3  1  0  0  0
  3 16  1  0  0  0
  4 17  1  0  0  0
  6  5  1  0  0  0
  6 18  1  0  0  0
  8 19  1  0  0  0
  8  9  1  0  0  0
  9 15  1  0  0  0
 10  7  1  0  0  0
 10 21  1  0  0  0
 16  4  1  0  0  0
 17  5  1  0  0  0
 18  7  1  0  0  0
 18 20  1  0  0  0
  4 12  2  0  0  0
  5 13  2  0  0  0
  7  8  2  0  0  0
  9 14  2  0  0  0
 19 20  2  0  0  0
M  END
> <rmsd>
0.706944406

$$$$
PubChem-103121589


 20 20  0  0  0  0  0  0  0  0999 V2000
   -2.6409   22.7227   66.8823 C   0  0  0  0  0
   -1.5632   23.0218   67.9031 C   0  0  0  0  0
    0.0226   21.2326   68.7002 C   0  0  0  0  0
    1.7083   19.4359   69.3364 C   0  0  0  0  0
    2.8904   18.6181   68.9289 C   0  0  0  0  0
    2.5859   17.7913   67.6912 C   0  0  0  0  0
    5.1756   19.5002   69.4568 C   0  0  0  0  0
    5.9867   20.4711   68.9027 C   0  0  0  0  0
    7.3116   20.9112   69.3608 C   0  0  0  0  0
    5.4137   18.6994   70.6950 C   0  0  0  0  0
   -0.4335   22.1325   67.6905 N   0  0  0  0  0
    1.1416   20.3845   68.4227 N   0  0  0  0  0
    4.0588   19.4649   68.7109 N   0  0  0  0  0
    5.3448   20.9866   67.8332 N   0  0  0  0  0
    4.1793   20.3598   67.7413 N   0  0  0  0  0
    4.8343   19.3825   71.8375 N   0  0  0  0  0
   -0.5568   21.1899   69.8197 O   0  0  0  0  0
    1.2301   19.2860   70.4920 O   0  0  0  0  0
    7.9178   21.8259   68.7437 O   0  0  0  0  0
    7.9069   20.3265   70.4716 O   0  0  0  0  0
  1  2  1  0  0  0
  2 11  1  0  0  0
  3 12  1  0  0  0
  5  4  1  0  0  0
  5  6  1  0  0  0
  5 13  1  0  0  0
  8 14  1  0  0  0
  8  9  1  0  0  0
  9 20  1  0  0  0
 10  7  1  0  0  0
 10 16  1  0  0  0
 11  3  1  0  0  0
 12  4  1  0  0  0
 13  7  1  0  0  0
 13 15  1  0  0  0
  3 17  2  0  0  0
  4 18  2  0  0  0
  7  8  2  0  0  0
  9 19  2  0  0  0
 14 15  2  0  0  0
M  END
> <rmsd>
0.731638074

$$$$
PubChem-138731048


 34 36  0  0  0  0  0  0  0  0999 V2000
    1.3205   23.3845   66.2482 C   0  0  0  0  0
   -0.0169   23.1599   66.9300 C   0  0  0  0  0
   -0.2627   24.2369   67.9752 C   0  0  0  0  0
   -0.1237   21.7354   67.4964 C   0  0  0  0  0
    0.8798   21.4393   68.5701 C   0  0  0  0  0
    2.9362   20.1580   69.2963 C   0  0  0  0  0
    4.1396   19.5301   68.6099 C   0  0  0  0  0
    5.2660   20.5093   68.5343 C   0  0  0  0  0
    6.1567   22.4990   67.5994 C   0  0  0  0  0
    7.3337   22.3170   68.3242 C   0  0  0  0  0
    6.4528   20.3268   69.2705 C   0  0  0  0  0
    6.6387   19.1632   70.1971 C   0  0  0  0  0
    6.7417   19.6467   71.6399 C   0  0  0  0  0
    5.5236   19.2444   72.4613 C   0  0  0  0  0
    3.2108   18.9255   71.5274 C   0  0  0  0  0
    2.4033   19.2113   70.3347 C   0  0  0  0  0
   -2.5952   21.3292   67.1033 C   0  0  0  0  0
   -5.0122   20.9571   66.8340 C   0  0  0  0  0
   -6.2043   20.7208   67.6914 C   0  0  0  0  0
   -6.9437   21.8051   68.1759 C   0  0  0  0  0
   -8.0500   21.5841   69.0024 C   0  0  0  0  0
   -8.4136   20.2792   69.3498 C   0  0  0  0  0
   -7.6697   19.1954   68.8728 C   0  0  0  0  0
   -6.5635   19.4160   68.0464 C   0  0  0  0  0
    0.8010   22.0072   69.6936 O   0  0  0  0  0
    2.9524   17.9203   72.2429 O   0  0  0  0  0
    1.3049   18.6162   70.1608 O   0  0  0  0  0
   -2.4429   21.4182   65.8536 O   0  0  0  0  0
   -3.8573   21.0972   67.6487 O   0  0  0  0  0
    1.9253   20.5032   68.3049 N   0  0  0  0  0
    5.1523   21.5925   67.7188 N   0  0  0  0  0
    7.4553   21.2378   69.1403 N   0  0  0  0  0
    4.3172   19.7693   71.8463 N   0  0  0  0  0
   -1.4726   21.4601   67.9772 N   0  0  0  0  0
  1  2  1  0  0  0
  2  3  1  0  0  0
  2  4  1  0  0  0
  4  5  1  0  0  0
  4 34  1  0  0  0
  5 30  1  0  0  0
  6 30  1  0  0  0
  6  7  1  0  0  0
  6 16  1  0  0  0
  7  8  1  0  0  0
  9 31  1  0  0  0
 10 32  1  0  0  0
 11  8  1  0  0  0
 12 11  1  0  0  0
 12 13  1  0  0  0
 13 14  1  0  0  0
 14 33  1  0  0  0
 15 16  1  0  0  0
 17 29  1  0  0  0
 18 29  1  0  0  0
 18 19  1  0  0  0
 20 21  1  0  0  0
 22 23  1  0  0  0
 24 19  1  0  0  0
 33 15  1  0  0  0
 34 17  1  0  0  0
  5 25  2  0  0  0
  8 31  2  0  0  0
  9 10  2  0  0  0
 11 32  2  0  0  0
 15 26  2  0  0  0
 16 27  2  0  0  0
 17 28  2  0  0  0
 19 20  2  0  0  0
 21 22  2  0  0  0
 23 24  2  0  0  0
M  END
> <rmsd>
0.652115881

$$$$
PubChem-103121735


 21 21  0  0  0  0  0  0  0  0999 V2000
   -0.2277   24.8603   69.0155 C   0  0  0  0  0
   -1.2443   24.4354   67.9730 C   0  0  0  0  0
   -2.4614   25.3300   68.0729 C   0  0  0  0  0
   -1.6609   22.9941   68.2046 C   0  0  0  0  0
    0.0179   21.1984   68.7641 C   0  0  0  0  0
    1.7768   19.4048   69.1541 C   0  0  0  0  0
    2.8882   18.6012   68.5729 C   0  0  0  0  0
    5.0747   19.5185   69.3939 C   0  0  0  0  0
    5.9701   20.4454   68.8970 C   0  0  0  0  0
    7.2077   20.9324   69.5221 C   0  0  0  0  0
    5.1066   18.8247   70.7165 C   0  0  0  0  0
   -0.5807   22.0949   67.8286 N   0  0  0  0  0
    1.0816   20.3456   68.3284 N   0  0  0  0  0
    4.0949   19.4098   68.4808 N   0  0  0  0  0
    5.5103   20.8651   67.6992 N   0  0  0  0  0
    4.3709   20.2237   67.4747 N   0  0  0  0  0
    4.4643   19.6542   71.7201 N   0  0  0  0  0
   -0.3877   21.1647   69.9579 O   0  0  0  0  0
    1.4815   19.2641   70.3704 O   0  0  0  0  0
    7.9086   21.7986   68.9361 O   0  0  0  0  0
    7.6167   20.4445   70.7568 O   0  0  0  0  0
  1  2  1  0  0  0
  2  3  1  0  0  0
  2  4  1  0  0  0
  4 12  1  0  0  0
  5 13  1  0  0  0
  7  6  1  0  0  0
  7 14  1  0  0  0
  9 15  1  0  0  0
  9 10  1  0  0  0
 10 21  1  0  0  0
 11  8  1  0  0  0
 11 17  1  0  0  0
 12  5  1  0  0  0
 13  6  1  0  0  0
 14  8  1  0  0  0
 14 16  1  0  0  0
  5 18  2  0  0  0
  6 19  2  0  0  0
  8  9  2  0  0  0
 10 20  2  0  0  0
 15 16  2  0  0  0
M  END
> <rmsd>
0.706949115

$$$$
PubChem-4400550


 25 27  0  0  0  0  0  0  0  0999 V2000
   -2.1113   21.7363   65.1116 C   0  0  0  0  0
   -2.5059   21.5589   63.7824 C   0  0  0  0  0
   -1.5611   21.2100   62.8144 C   0  0  0  0  0
   -0.2226   21.0380   63.1755 C   0  0  0  0  0
    0.1703   21.2157   64.5049 C   0  0  0  0  0
   -0.7696   21.5679   65.4853 C   0  0  0  0  0
   -0.3759   21.7569   66.8990 C   0  0  0  0  0
    0.8902   21.6704   67.4556 C   0  0  0  0  0
    0.7186   21.9621   68.7959 C   0  0  0  0  0
    2.1666   21.4776   66.7406 C   0  0  0  0  0
    3.3246   21.0408   67.2507 C   0  0  0  0  0
    3.5594   20.5113   68.6091 C   0  0  0  0  0
    4.8344   20.6036   69.2126 C   0  0  0  0  0
    5.0118   19.9816   70.4640 C   0  0  0  0  0
    2.7758   19.2193   70.4364 C   0  0  0  0  0
   -0.5940   22.1752   69.0146 N   0  0  0  0  0
   -1.2550   22.0534   67.8741 N   0  0  0  0  0
    3.9840   19.3108   71.0433 N   0  0  0  0  0
    2.5769   19.8048   69.2302 N   0  0  0  0  0
    5.9207   21.3151   68.5857 N   0  0  0  0  0
    6.1151   20.0508   71.0675 O   0  0  0  0  0
    1.8400   18.5865   70.9900 O   0  0  0  0  0
    5.7040   22.3407   67.9078 O   0  0  0  0  0
    7.2223   20.9140   68.7815 O   0  0  0  0  0
   -2.0541   20.9876   61.1500 Cl  0  0  0  0  0
  2  3  1  0  0  0
  3 25  1  0  0  0
  4  5  1  0  0  0
  6  7  1  0  0  0
  6  1  1  0  0  0
  8  9  1  0  0  0
  8 10  1  0  0  0
 11 12  1  0  0  0
 13 14  1  0  0  0
 13 20  1  0  0  0
 14 18  1  0  0  0
 15 19  1  0  0  0
 17 16  1  0  0  0
 17  7  1  0  0  0
 18 15  1  0  0  0
 19 12  1  0  0  0
 20 24  1  0  0  0
  1  2  2  0  0  0
  3  4  2  0  0  0
  5  6  2  0  0  0
  7  8  2  0  0  0
  9 16  2  0  0  0
 10 11  2  0  0  0
 12 13  2  0  0  0
 14 21  2  0  0  0
 15 22  2  0  0  0
 20 23  2  0  0  0
M  CHG  2  20   1  24  -1
M  END
> <rmsd>
0.680920839

$$$$
PubChem-79524253


 18 19  0  0  0  0  0  0  0  0999 V2000
    1.2928   20.6875   66.8768 C   0  0  0  0  0
    0.9838   20.4848   68.3638 C   0  0  0  0  0
   -0.0229   21.5159   68.5373 C   0  0  0  0  0
    4.3702   19.6877   70.5495 C   0  0  0  0  0
    5.4842   20.3918   70.1320 C   0  0  0  0  0
    6.3335   20.3987   71.2218 C   0  0  0  0  0
    5.7575   21.0170   68.8270 C   0  0  0  0  0
   -0.6900   21.7180   69.5851 O   0  0  0  0  0
    0.7390   21.9161   66.4223 O   0  0  0  0  0
    1.9749   18.5346   70.4866 O   0  0  0  0  0
    3.2821   18.5185   68.4151 O   0  0  0  0  0
    6.8422   21.6288   68.6405 O   0  0  0  0  0
    4.8358   20.9426   67.7915 O   0  0  0  0  0
   -0.1855   22.2540   67.3579 N   0  0  0  0  0
    2.1565   20.8134   69.1594 N   0  0  0  0  0
    5.7332   19.7264   72.2258 N   0  0  0  0  0
    4.5474   19.2966   71.8221 N   0  0  0  0  0
    2.9185   19.3297   69.6277 S   0  0  0  0  0
  1  2  1  0  0  0
  1  9  1  0  0  0
  2  3  1  0  0  0
  2 15  1  0  0  0
  3 14  1  0  0  0
  5  6  1  0  0  0
  5  7  1  0  0  0
  7 13  1  0  0  0
 14  9  1  0  0  0
 17 16  1  0  0  0
 17  4  1  0  0  0
 18 15  1  0  0  0
 18  4  1  0  0  0
  3  8  2  0  0  0
  4  5  2  0  0  0
  6 16  2  0  0  0
  7 12  2  0  0  0
 18 10  2  0  0  0
 18 11  2  0  0  0
M  END
> <rmsd>
0.763083875

$$$$
PubChem-156593211


 30 32  0  0  0  0  0  0  0  0999 V2000
   -1.4192   25.8694   63.8794 C   0  0  0  0  0
   -1.4217   24.7748   64.8844 C   0  0  0  0  0
   -2.6048   24.4305   65.5381 C   0  0  0  0  0
   -2.6141   23.4013   66.4831 C   0  0  0  0  0
   -1.4243   22.7175   66.7984 C   0  0  0  0  0
   -0.2360   23.0501   66.1073 C   0  0  0  0  0
   -0.2450   24.0781   65.1603 C   0  0  0  0  0
    1.0299   22.2862   66.2959 C   0  0  0  0  0
   -0.5424   21.5180   68.8576 C   0  0  0  0  0
   -0.5432   20.2656   69.6621 C   0  0  0  0  0
    1.9225   19.4497   69.3041 C   0  0  0  0  0
    3.6914   19.3555   70.9254 C   0  0  0  0  0
    4.5672   20.2435   70.1372 C   0  0  0  0  0
    6.8289   21.2095   69.9071 C   0  0  0  0  0
    7.7852   21.9866   70.7036 C   0  0  0  0  0
    8.8772   22.6817   70.2070 C   0  0  0  0  0
    9.6066   23.3352   71.2109 C   0  0  0  0  0
    9.0996   23.1631   72.4971 C   0  0  0  0  0
    3.9652   20.8260   68.9145 C   0  0  0  0  0
   -3.8986   23.0645   67.1603 C   0  0  0  0  0
   -1.4618   21.6608   67.7704 N   0  0  0  0  0
    2.3990   18.9909   70.4236 N   0  0  0  0  0
    4.0984   18.8595   72.0476 N   0  0  0  0  0
    5.7746   20.4952   70.5673 N   0  0  0  0  0
    2.6731   20.3741   68.5075 N   0  0  0  0  0
    0.2520   22.4489   69.1570 O   0  0  0  0  0
    7.0005   21.0983   68.6630 O   0  0  0  0  0
    4.5201   21.7525   68.2693 O   0  0  0  0  0
    0.3008   18.9321   68.7569 S   0  0  0  0  0
    7.7341   22.1890   72.3674 S   0  0  0  0  0
  1  2  1  0  0  0
  3  4  1  0  0  0
  5  6  1  0  0  0
  5 21  1  0  0  0
  7  2  1  0  0  0
  8  6  1  0  0  0
 10  9  1  0  0  0
 10 29  1  0  0  0
 11 29  1  0  0  0
 12 22  1  0  0  0
 12 13  1  0  0  0
 13 19  1  0  0  0
 14 24  1  0  0  0
 14 15  1  0  0  0
 15 30  1  0  0  0
 16 17  1  0  0  0
 18 30  1  0  0  0
 19 25  1  0  0  0
 20  4  1  0  0  0
 21  9  1  0  0  0
 25 11  1  0  0  0
  2  3  2  0  0  0
  4  5  2  0  0  0
  6  7  2  0  0  0
  9 26  2  0  0  0
 11 22  2  0  0  0
 12 23  2  0  0  0
 13 24  2  0  0  0
 14 27  2  0  0  0
 15 16  2  0  0  0
 17 18  2  0  0  0
 19 28  2  0  0  0
M  END
> <rmsd>
0.795116425

$$$$
PubChem-136602722


 36 41  0  0  0  0  0  0  0  0999 V2000
   10.3405   23.5106   65.9450 C   0  0  0  0  0
   10.7211   24.6445   66.8709 C   0  0  0  0  0
    9.7575   23.5750   67.3421 C   0  0  0  0  0
    7.3212   23.4582   67.6350 C   0  0  0  0  0
    6.0802   24.0956   67.4994 C   0  0  0  0  0
    4.9133   23.4203   67.9016 C   0  0  0  0  0
    6.2068   21.5603   68.5061 C   0  0  0  0  0
    7.9098   20.2551   68.9408 C   0  0  0  0  0
    6.5229   20.3188   69.0148 C   0  0  0  0  0
    5.7347   19.3769   69.5420 C   0  0  0  0  0
    4.2654   19.4237   69.5771 C   0  0  0  0  0
    3.4054   19.5976   68.5164 C   0  0  0  0  0
    2.2691   19.2867   70.2571 C   0  0  0  0  0
    3.5832   24.0733   67.7068 C   0  0  0  0  0
    2.9422   23.5743   66.4159 C   0  0  0  0  0
    1.6870   22.8633   66.7623 C   0  0  0  0  0
    1.3594   22.8642   68.0403 C   0  0  0  0  0
    0.1488   22.1932   68.5359 C   0  0  0  0  0
   -1.9527   20.8577   68.0352 C   0  0  0  0  0
   -1.6278   19.5381   68.6508 C   0  0  0  0  0
   -1.9656   19.2926   69.9834 C   0  0  0  0  0
   -1.6790   18.0447   70.5418 C   0  0  0  0  0
   -0.7442   17.3005   68.4897 C   0  0  0  0  0
   -1.0171   18.5338   67.8937 C   0  0  0  0  0
    8.3988   24.0920   67.2703 N   0  0  0  0  0
    4.9934   22.1526   68.3996 N   0  0  0  0  0
    7.3313   22.1901   68.1475 N   0  0  0  0  0
    8.3721   21.4117   68.4020 N   0  0  0  0  0
    2.1321   19.5231   68.9349 N   0  0  0  0  0
    3.5457   19.2013   70.6896 N   0  0  0  0  0
   -0.7387   21.5461   67.6178 N   0  0  0  0  0
   -1.0778   17.0830   69.7905 N   0  0  0  0  0
    1.2839   19.1530   71.0276 O   0  0  0  0  0
    3.7706   19.7872   67.1893 O   0  0  0  0  0
   -0.1082   22.1959   69.7700 O   0  0  0  0  0
    2.4689   23.7469   69.1210 S   0  0  0  0  0
  1  2  1  0  0  0
  2  3  1  0  0  0
  3 25  1  0  0  0
  3  1  1  0  0  0
  4  5  1  0  0  0
  6 26  1  0  0  0
  7 27  1  0  0  0
  8  9  1  0  0  0
  9  7  1  0  0  0
 10 11  1  0  0  0
 12 29  1  0  0  0
 12 34  1  0  0  0
 13 30  1  0  0  0
 14  6  1  0  0  0
 14 15  1  0  0  0
 14 36  1  0  0  0
 15 16  1  0  0  0
 17 36  1  0  0  0
 17 18  1  0  0  0
 18 31  1  0  0  0
 19 31  1  0  0  0
 19 20  1  0  0  0
 21 22  1  0  0  0
 23 32  1  0  0  0
 24 20  1  0  0  0
 27 28  1  0  0  0
 27  4  1  0  0  0
 29 13  1  0  0  0
 30 11  1  0  0  0
  4 25  2  0  0  0
  5  6  2  0  0  0
  7 26  2  0  0  0
  8 28  2  0  0  0
  9 10  2  0  0  0
 11 12  2  0  0  0
 13 33  2  0  0  0
 16 17  2  0  0  0
 18 35  2  0  0  0
 20 21  2  0  0  0
 22 32  2  0  0  0
 23 24  2  0  0  0
M  END
> <rmsd>
0.700145125

$$$$
PubChem-132275418


 22 23  0  0  0  0  0  0  0  0999 V2000
   -0.4906   20.2755   65.5250 C   0  0  0  0  0
    0.2947   21.3149   66.3012 C   0  0  0  0  0
    1.5509   20.6521   66.9053 C   0  0  0  0  0
    1.5882   19.1875   66.4967 C   0  0  0  0  0
    3.0206   18.7056   66.3045 C   0  0  0  0  0
    3.7652   18.6103   67.6281 C   0  0  0  0  0
    3.2039   17.4832   68.4800 C   0  0  0  0  0
    3.8614   17.4754   69.8510 C   0  0  0  0  0
    3.3802   18.6151   70.6861 C   0  0  0  0  0
    3.9184   20.7619   71.9181 C   0  0  0  0  0
    3.1559   21.7744   71.0737 C   0  0  0  0  0
    4.0940   22.5486   70.1609 C   0  0  0  0  0
    0.2073   21.4438   68.5931 C   0  0  0  0  0
    0.6774   19.0222   64.9412 S   0  0  0  0  0
    2.1651   18.6869   71.0145 O   0  0  0  0  0
   -0.2069   21.7131   69.7500 O   0  0  0  0  0
    4.3108   19.6084   71.1197 N   0  0  0  0  0
    4.4010   21.7671   68.9762 N   0  0  0  0  0
    5.5654   21.4650   68.7193 N   0  0  0  0  0
    6.7292   21.1614   68.4620 N   0  0  0  0  0
    1.4155   20.7607   68.3509 N   0  0  0  0  0
   -0.4994   21.7922   67.4241 N   0  0  0  0  0
  1 14  1  0  0  0
  2  1  1  0  0  0
  2  3  1  0  0  0
  2 22  1  0  0  0
  3  4  1  0  0  0
  3 21  1  0  0  0
  4 14  1  0  0  0
  4  5  1  0  0  0
  5  6  1  0  0  0
  6  7  1  0  0  0
  7  8  1  0  0  0
  8  9  1  0  0  0
  9 17  1  0  0  0
 10 17  1  0  0  0
 10 11  1  0  0  0
 11 12  1  0  0  0
 12 18  1  0  0  0
 13 22  1  0  0  0
 21 13  1  0  0  0
  9 15  2  0  0  0
 13 16  2  0  0  0
 18 19  2  0  0  0
 19 20  2  0  0  0
M  CHG  2  19   1  20  -1
M  END
> <rmsd>
0.63535881

$$$$
PubChem-52952132


 21 22  0  0  0  0  0  0  0  0999 V2000
    6.1362   23.4572   64.1798 C   0  0  0  0  0
    6.8422   22.5871   65.0164 C   0  0  0  0  0
    6.1558   21.6251   65.7633 C   0  0  0  0  0
    4.7623   21.5348   65.6763 C   0  0  0  0  0
    4.0569   22.4026   64.8361 C   0  0  0  0  0
    4.7438   23.3645   64.0890 C   0  0  0  0  0
    3.6195   21.4365   68.0478 C   0  0  0  0  0
    2.5087   20.9792   69.0039 C   0  0  0  0  0
    2.9620   19.7686   69.8153 C   0  0  0  0  0
    4.3337   20.0297   70.4327 C   0  0  0  0  0
    5.2968   20.5258   69.3471 C   0  0  0  0  0
    6.6718   20.7868   69.9395 C   0  0  0  0  0
    0.0758   21.3964   68.4901 C   0  0  0  0  0
    3.8846   20.3014   66.6277 S   0  0  0  0  0
    4.8151   21.7137   68.7517 O   0  0  0  0  0
    7.5830   21.0578   68.9190 O   0  0  0  0  0
    4.8167   18.8456   70.9945 O   0  0  0  0  0
    2.0354   19.5048   70.8253 O   0  0  0  0  0
    0.0274   22.3267   69.3379 O   0  0  0  0  0
    1.2879   20.6760   68.2701 N   0  0  0  0  0
   -1.0879   21.0606   67.7448 N   0  0  0  0  0
  2  3  1  0  0  0
  4  5  1  0  0  0
  4 14  1  0  0  0
  6  1  1  0  0  0
  7 14  1  0  0  0
  7  8  1  0  0  0
  7 15  1  0  0  0
  8  9  1  0  0  0
  8 20  1  0  0  0
  9 10  1  0  0  0
  9 18  1  0  0  0
 10 11  1  0  0  0
 10 17  1  0  0  0
 11 15  1  0  0  0
 11 12  1  0  0  0
 12 16  1  0  0  0
 13 21  1  0  0  0
 20 13  1  0  0  0
  1  2  2  0  0  0
  3  4  2  0  0  0
  5  6  2  0  0  0
 13 19  2  0  0  0
M  END
> <rmsd>
0.785371125

$$$$
PubChem-76589797


 28 30  0  0  0  0  0  0  0  0999 V2000
    8.9449   21.6352   66.3682 C   0  0  0  0  0
    7.9790   22.4441   67.2125 C   0  0  0  0  0
    6.1601   21.2774   68.4650 C   0  0  0  0  0
    3.8611   21.1857   68.0548 C   0  0  0  0  0
    3.6638   20.3926   69.2147 C   0  0  0  0  0
    4.7919   20.0419   70.0118 C   0  0  0  0  0
    6.0398   20.5214   69.5887 C   0  0  0  0  0
    7.3237   20.4190   70.1042 C   0  0  0  0  0
    5.7275   18.7006   71.9926 C   0  0  0  0  0
    5.2191   18.3446   73.3867 C   0  0  0  0  0
    6.3087   17.5710   74.1302 C   0  0  0  0  0
    7.2808   16.7742   72.2518 C   0  0  0  0  0
    6.2970   17.4601   71.3038 C   0  0  0  0  0
    2.2824   19.9622   69.5409 C   0  0  0  0  0
   -0.1918   20.0197   68.9769 C   0  0  0  0  0
   -1.0531   20.2370   67.7372 C   0  0  0  0  0
   -0.7142   20.7856   70.1530 C   0  0  0  0  0
   -1.6872   20.7489   72.4117 C   0  0  0  0  0
    7.4395   21.6193   68.2825 N   0  0  0  0  0
    5.1033   21.6197   67.6923 N   0  0  0  0  0
    8.1547   21.1056   69.2759 N   0  0  0  0  0
    4.6374   19.2518   71.2020 N   0  0  0  0  0
    1.1964   20.3707   68.7017 N   0  0  0  0  0
    6.6190   16.3889   73.4325 O   0  0  0  0  0
    2.0517   19.2369   70.5463 O   0  0  0  0  0
   -0.9525   21.5535   67.2809 O   0  0  0  0  0
   -0.7114   22.0477   70.1431 O   0  0  0  0  0
   -1.1894   20.0839   71.2607 O   0  0  0  0  0
  1  2  1  0  0  0
  2 19  1  0  0  0
  4 20  1  0  0  0
  5  6  1  0  0  0
  5 14  1  0  0  0
  6 22  1  0  0  0
  7  8  1  0  0  0
  7  3  1  0  0  0
  9 22  1  0  0  0
  9 10  1  0  0  0
 10 11  1  0  0  0
 11 24  1  0  0  0
 12 24  1  0  0  0
 12 13  1  0  0  0
 13  9  1  0  0  0
 14 23  1  0  0  0
 15 23  1  0  0  0
 15 16  1  0  0  0
 15 17  1  0  0  0
 16 26  1  0  0  0
 17 28  1  0  0  0
 18 28  1  0  0  0
 19  3  1  0  0  0
 19 21  1  0  0  0
  3 20  2  0  0  0
  4  5  2  0  0  0
  6  7  2  0  0  0
  8 21  2  0  0  0
 14 25  2  0  0  0
 17 27  2  0  0  0
M  END
> <rmsd>
0.647020102

$$$$
PubChem-138730275


 31 33  0  0  0  0  0  0  0  0999 V2000
   -2.0174   18.8743   69.3049 C   0  0  0  0  0
   -2.2006   20.3131   68.8581 C   0  0  0  0  0
   -2.5557   21.1921   70.0470 C   0  0  0  0  0
   -0.9760   20.8162   68.0840 C   0  0  0  0  0
    0.2890   20.8491   68.8887 C   0  0  0  0  0
    2.6058   19.9201   69.2865 C   0  0  0  0  0
    3.7179   19.3412   68.4243 C   0  0  0  0  0
    4.8963   20.2610   68.4046 C   0  0  0  0  0
    5.0482   21.3780   67.6088 C   0  0  0  0  0
    6.2620   19.1704   70.2131 C   0  0  0  0  0
    5.8713   19.7572   71.5664 C   0  0  0  0  0
    3.4551   19.0704   71.5615 C   0  0  0  0  0
    2.4235   19.0712   70.5162 C   0  0  0  0  0
    0.5003   21.3573   65.3521 C   0  0  0  0  0
    1.5965   22.2268   65.3514 C   0  0  0  0  0
    2.8711   21.7468   65.0367 C   0  0  0  0  0
    3.0540   20.3950   64.7289 C   0  0  0  0  0
    1.9613   19.5232   64.7351 C   0  0  0  0  0
    0.6860   20.0037   65.0465 C   0  0  0  0  0
    0.3995   21.6269   69.8753 O   0  0  0  0  0
    3.4864   18.1505   72.4226 O   0  0  0  0  0
    1.4236   18.3105   70.6253 O   0  0  0  0  0
   -2.1459   21.0065   65.2688 O   0  0  0  0  0
   -1.3092   23.2971   65.1275 O   0  0  0  0  0
    1.3751   20.0023   68.5110 N   0  0  0  0  0
    6.2572   21.9003   67.9159 N   0  0  0  0  0
    6.8099   21.1400   68.8508 N   0  0  0  0  0
    6.0071   20.1359   69.1505 N   0  0  0  0  0
    4.4555   20.0875   71.5685 N   0  0  0  0  0
   -1.2377   22.1207   67.4924 N   0  0  0  0  0
   -1.0960   21.9575   65.7736 S   0  0  0  0  0
  1  2  1  0  0  0
  2  3  1  0  0  0
  2  4  1  0  0  0
  4  5  1  0  0  0
  4 30  1  0  0  0
  5 25  1  0  0  0
  6 25  1  0  0  0
  6  7  1  0  0  0
  6 13  1  0  0  0
  7  8  1  0  0  0
  9 26  1  0  0  0
 10 28  1  0  0  0
 10 11  1  0  0  0
 11 29  1  0  0  0
 12 13  1  0  0  0
 15 16  1  0  0  0
 17 18  1  0  0  0
 19 14  1  0  0  0
 28 27  1  0  0  0
 28  8  1  0  0  0
 29 12  1  0  0  0
 31 30  1  0  0  0
 31 14  1  0  0  0
  5 20  2  0  0  0
  8  9  2  0  0  0
 12 21  2  0  0  0
 13 22  2  0  0  0
 14 15  2  0  0  0
 16 17  2  0  0  0
 18 19  2  0  0  0
 26 27  2  0  0  0
 31 23  2  0  0  0
 31 24  2  0  0  0
M  END
> <rmsd>
0.671218395

$$$$
PubChem-136437868


 34 37  0  0  0  0  0  0  0  0999 V2000
    8.2550   21.7925   67.8462 C   0  0  0  0  0
    6.0938   20.9300   68.6449 C   0  0  0  0  0
    5.4372   20.0007   69.3446 C   0  0  0  0  0
    3.9655   19.9031   69.5089 C   0  0  0  0  0
    3.4763   19.4076   70.6626 C   0  0  0  0  0
    1.5476   18.7129   72.0328 C   0  0  0  0  0
    3.0629   20.2496   68.3818 C   0  0  0  0  0
    0.7966   21.1553   67.6451 C   0  0  0  0  0
   -0.4862   21.5905   67.8791 C   0  0  0  0  0
    0.9723   21.1913   66.2774 C   0  0  0  0  0
   -1.1583   21.7247   69.1792 C   0  0  0  0  0
   -1.5184   21.6782   71.2533 C   0  0  0  0  0
   -2.6382   22.1253   70.6219 C   0  0  0  0  0
   -3.7917   22.4741   71.3191 C   0  0  0  0  0
   -3.7664   22.3435   72.7211 C   0  0  0  0  0
   -2.6001   21.8843   73.3755 C   0  0  0  0  0
   -1.4523   21.5415   72.6373 C   0  0  0  0  0
   -4.9641   22.7231   73.5223 C   0  0  0  0  0
   -4.3564   24.4124   75.1047 C   0  0  0  0  0
   -5.3118   24.0328   76.2436 C   0  0  0  0  0
   -7.1435   24.2653   74.9658 C   0  0  0  0  0
   -6.3377   24.6626   73.7216 C   0  0  0  0  0
    7.4828   20.8382   68.5585 O   0  0  0  0  0
    2.1006   19.2185   70.8274 O   0  0  0  0  0
    3.4610   20.0926   67.1956 O   0  0  0  0  0
   -6.5087   24.7552   76.1179 O   0  0  0  0  0
    4.3643   19.0612   71.7292 N   0  0  0  0  0
    1.7475   20.7575   68.6392 N   0  0  0  0  0
   -1.0633   21.8766   66.6993 N   0  0  0  0  0
   -0.1828   21.6357   65.7367 N   0  0  0  0  0
   -0.5568   21.4145   70.3588 N   0  0  0  0  0
   -2.4389   22.1657   69.2972 N   0  0  0  0  0
   -4.9580   24.1592   73.7860 N   0  0  0  0  0
    5.4054   22.0192   68.0285 N   0  0  0  0  0
  1 23  1  0  0  0
  2 23  1  0  0  0
  2 34  1  0  0  0
  3  4  1  0  0  0
  4  7  1  0  0  0
  5 27  1  0  0  0
  5 24  1  0  0  0
  6 24  1  0  0  0
  7 28  1  0  0  0
  9 29  1  0  0  0
  9 11  1  0  0  0
 10  8  1  0  0  0
 12 31  1  0  0  0
 13 32  1  0  0  0
 13 14  1  0  0  0
 15 16  1  0  0  0
 17 12  1  0  0  0
 18 15  1  0  0  0
 18 33  1  0  0  0
 19 33  1  0  0  0
 19 20  1  0  0  0
 20 26  1  0  0  0
 21 26  1  0  0  0
 21 22  1  0  0  0
 22 33  1  0  0  0
 28  8  1  0  0  0
 29 30  1  0  0  0
 32 11  1  0  0  0
  2  3  2  0  0  0
  4  5  2  0  0  0
  7 25  2  0  0  0
  8  9  2  0  0  0
 10 30  2  0  0  0
 11 31  2  0  0  0
 12 13  2  0  0  0
 14 15  2  0  0  0
 16 17  2  0  0  0
M  END
> <rmsd>
0.702201903

$$$$
PubChem-166365246


 18 19  0  0  0  0  0  0  0  0999 V2000
    0.1398   19.1124   68.1991 C   0  0  0  0  0
    0.4551   20.5840   68.4215 C   0  0  0  0  0
   -0.0931   21.3933   67.2475 C   0  0  0  0  0
   -0.1884   21.0443   69.7309 C   0  0  0  0  0
    2.7820   20.1680   69.4337 C   0  0  0  0  0
    4.2279   20.4492   69.3706 C   0  0  0  0  0
    5.1476   19.9029   70.2675 C   0  0  0  0  0
    6.2064   18.8930   71.7925 C   0  0  0  0  0
    6.4605   20.1971   70.1604 C   0  0  0  0  0
    6.0607   21.5633   68.3126 C   0  0  0  0  0
   -1.4812   21.2623   67.1454 O   0  0  0  0  0
    0.1213   22.3806   69.9958 O   0  0  0  0  0
    2.3179   19.4046   70.3239 O   0  0  0  0  0
    1.9047   20.7718   68.4728 N   0  0  0  0  0
    4.9496   19.0715   71.3005 N   0  0  0  0  0
    7.1674   19.5750   71.1113 N   0  0  0  0  0
    6.9460   21.0189   69.1999 N   0  0  0  0  0
    4.7223   21.2788   68.4018 N   0  0  0  0  0
  1  2  1  0  0  0
  2  3  1  0  0  0
  2  4  1  0  0  0
  2 14  1  0  0  0
  3 11  1  0  0  0
  4 12  1  0  0  0
  5  6  1  0  0  0
  6 18  1  0  0  0
  7 15  1  0  0  0
  9 16  1  0  0  0
  9  7  1  0  0  0
 10 17  1  0  0  0
 14  5  1  0  0  0
 15  8  1  0  0  0
  5 13  2  0  0  0
  6  7  2  0  0  0
  8 16  2  0  0  0
  9 17  2  0  0  0
 10 18  2  0  0  0
M  END
> <rmsd>
0.822482228

$$$$
PubChem-16408404 LN00345131 MCULE-8434124838 MolPort-002-536-294


 32 34  0  0  0  0  0  0  0  0999 V2000
    9.0084   25.2394   64.8058 C   0  0  0  0  0
    8.2323   26.3665   64.4885 C   0  0  0  0  0
    8.7804   27.4604   63.8024 C   0  0  0  0  0
    7.9878   28.5698   63.4985 C   0  0  0  0  0
    6.6434   28.5950   63.8767 C   0  0  0  0  0
    6.0873   27.5109   64.5603 C   0  0  0  0  0
    6.8724   26.3885   64.8727 C   0  0  0  0  0
    6.3415   25.2840   65.5589 C   0  0  0  0  0
    7.1939   24.1918   65.8371 C   0  0  0  0  0
    6.6973   23.0775   66.5183 C   0  0  0  0  0
    5.3565   23.0344   66.9314 C   0  0  0  0  0
    4.5151   24.1156   66.6534 C   0  0  0  0  0
    5.0011   25.2343   65.9723 C   0  0  0  0  0
    5.6145   20.8032   67.9984 C   0  0  0  0  0
    6.4565   21.1251   69.1940 C   0  0  0  0  0
    6.7026   21.8131   71.5915 C   0  0  0  0  0
    4.4177   21.4977   70.6458 C   0  0  0  0  0
    3.8104   20.1007   70.6310 C   0  0  0  0  0
    2.2950   20.1856   70.4684 C   0  0  0  0  0
    1.9189   20.7503   69.0947 C   0  0  0  0  0
    0.4379   21.1165   69.0322 C   0  0  0  0  0
    0.1026   21.7192   67.6778 C   0  0  0  0  0
   10.2245   25.1864   64.4783 O   0  0  0  0  0
    4.8341   21.9315   67.6147 O   0  0  0  0  0
    7.7100   21.1229   69.0655 O   0  0  0  0  0
    4.1273   19.4497   71.8250 O   0  0  0  0  0
    1.7182   18.9242   70.6451 O   0  0  0  0  0
    2.2338   19.8277   68.0914 O   0  0  0  0  0
   -1.2769   21.8898   67.5631 O   0  0  0  0  0
    0.1338   22.0416   70.0338 O   0  0  0  0  0
    8.4672   24.2137   65.4567 O   0  0  0  0  0
    5.8627   21.4327   70.4674 N   0  0  0  0  0
  1  2  1  0  0  0
  1 31  1  0  0  0
  3  4  1  0  0  0
  5  6  1  0  0  0
  7  8  1  0  0  0
  7  2  1  0  0  0
  9 10  1  0  0  0
  9 31  1  0  0  0
 11 12  1  0  0  0
 11 24  1  0  0  0
 13  8  1  0  0  0
 14 24  1  0  0  0
 14 15  1  0  0  0
 15 32  1  0  0  0
 16 32  1  0  0  0
 17 32  1  0  0  0
 17 18  1  0  0  0
 18 26  1  0  0  0
 18 19  1  0  0  0
 19 27  1  0  0  0
 19 20  1  0  0  0
 20 28  1  0  0  0
 20 21  1  0  0  0
 21 22  1  0  0  0
 21 30  1  0  0  0
 22 29  1  0  0  0
  1 23  2  0  0  0
  2  3  2  0  0  0
  4  5  2  0  0  0
  6  7  2  0  0  0
  8  9  2  0  0  0
 10 11  2  0  0  0
 12 13  2  0  0  0
 15 25  2  0  0  0
M  END
> <rmsd>
0.556915879

$$$$
PubChem-92165357 1727443 ZINC000001727443


 25 26  0  0  0  0  0  0  0  0999 V2000
   -0.5459   19.3099   66.5443 C   0  0  0  0  0
   -0.8950   20.3226   67.6176 C   0  0  0  0  0
   -0.1237   20.0232   68.9020 C   0  0  0  0  0
    2.2993   19.8713   69.6523 C   0  0  0  0  0
    3.7134   20.2617   69.4412 C   0  0  0  0  0
    4.0374   21.0760   68.3508 C   0  0  0  0  0
    6.3213   21.0530   68.9507 C   0  0  0  0  0
    8.7180   21.0736   69.5160 C   0  0  0  0  0
    9.9798   21.6582   68.9887 C   0  0  0  0  0
   10.3935   22.9262   69.4107 C   0  0  0  0  0
   11.5671   23.4863   68.8964 C   0  0  0  0  0
   12.3245   22.7812   67.9557 C   0  0  0  0  0
   11.9070   21.5172   67.5271 C   0  0  0  0  0
   10.7334   20.9570   68.0411 C   0  0  0  0  0
    4.7683   19.8567   70.2858 C   0  0  0  0  0
   -0.6999   20.7804   70.0561 C   0  0  0  0  0
   -0.6199   21.6116   67.1545 O   0  0  0  0  0
    1.9712   19.1342   70.6214 O   0  0  0  0  0
    7.6295   21.4605   68.6893 O   0  0  0  0  0
   -1.2241   20.1539   71.0129 O   0  0  0  0  0
   -0.6518   22.1691   70.0849 O   0  0  0  0  0
    1.2941   20.3320   68.7426 N   0  0  0  0  0
    5.3213   21.4538   68.1263 N   0  0  0  0  0
    6.0378   20.2608   70.0197 N   0  0  0  0  0
    4.5357   19.0279   71.4211 N   0  0  0  0  0
  2  1  1  0  0  0
  2 17  1  0  0  0
  2  3  1  0  0  0
  3 22  1  0  0  0
  3 16  1  0  0  0
  4  5  1  0  0  0
  6 23  1  0  0  0
  7 19  1  0  0  0
  7 24  1  0  0  0
  8 19  1  0  0  0
  8  9  1  0  0  0
 10 11  1  0  0  0
 12 13  1  0  0  0
 14  9  1  0  0  0
 15 25  1  0  0  0
 15  5  1  0  0  0
 16 21  1  0  0  0
 22  4  1  0  0  0
  4 18  2  0  0  0
  5  6  2  0  0  0
  7 23  2  0  0  0
  9 10  2  0  0  0
 11 12  2  0  0  0
 13 14  2  0  0  0
 15 24  2  0  0  0
 16 20  2  0  0  0
M  END
> <rmsd>
0.494027317

$$$$
PubChem-131750959


 24 24  0  0  0  0  0  0  0  0999 V2000
    8.5592   17.6020   71.7259 C   0  0  0  0  0
    8.2875   18.5408   70.5697 C   0  0  0  0  0
    9.6093   19.0037   69.9870 C   0  0  0  0  0
    7.4857   19.7316   71.0702 C   0  0  0  0  0
    6.7461   20.3969   69.9517 C   0  0  0  0  0
    5.2677   20.3870   69.8904 C   0  0  0  0  0
    4.4403   19.7979   70.7490 C   0  0  0  0  0
    3.0577   20.0099   70.3437 C   0  0  0  0  0
    2.9961   20.8269   69.0950 C   0  0  0  0  0
    4.4589   21.0300   68.8479 C   0  0  0  0  0
    2.2730   22.1358   69.3136 C   0  0  0  0  0
    1.0997   22.5157   68.4623 C   0  0  0  0  0
   -0.1814   22.5700   69.2924 C   0  0  0  0  0
   -1.3299   23.2453   68.5303 C   0  0  0  0  0
   -0.9628   24.6762   68.1770 C   0  0  0  0  0
   -2.5737   23.2820   69.3991 C   0  0  0  0  0
    7.4022   20.9924   69.0557 O   0  0  0  0  0
    2.0561   19.5573   70.9591 O   0  0  0  0  0
    4.9295   21.6631   67.8652 O   0  0  0  0  0
    2.6525   22.9072   70.1832 O   0  0  0  0  0
   -1.6138   22.5406   67.3586 O   0  0  0  0  0
   -0.5435   21.2745   69.6751 O   0  0  0  0  0
    2.4280   20.0833   68.0566 O   0  0  0  0  0
    4.8245   19.0773   71.8741 O   0  0  0  0  0
  1  2  1  0  0  0
  2  3  1  0  0  0
  2  4  1  0  0  0
  4  5  1  0  0  0
  5  6  1  0  0  0
  7  8  1  0  0  0
  7 24  1  0  0  0
  9  8  1  0  0  0
  9 10  1  0  0  0
  9 11  1  0  0  0
  9 23  1  0  0  0
 10  6  1  0  0  0
 12 11  1  0  0  0
 12 13  1  0  0  0
 13 14  1  0  0  0
 13 22  1  0  0  0
 14 15  1  0  0  0
 14 16  1  0  0  0
 14 21  1  0  0  0
  5 17  2  0  0  0
  6  7  2  0  0  0
  8 18  2  0  0  0
 10 19  2  0  0  0
 11 20  2  0  0  0
M  END
> <rmsd>
0.827345848

$$$$
PubChem-145577054 PubChem-145577055


 26 27  0  0  0  0  0  0  0  0999 V2000
   -5.9233   23.0508   68.3623 B   0  0  0  0  0
   -4.4382   22.6128   68.1995 C   0  0  0  0  0
   -3.9449   22.2700   66.9383 C   0  0  0  0  0
   -2.6115   21.8761   66.7888 C   0  0  0  0  0
   -1.7606   21.8233   67.9034 C   0  0  0  0  0
   -2.2657   22.1684   69.1669 C   0  0  0  0  0
   -3.5984   22.5617   69.3144 C   0  0  0  0  0
    0.6141   21.3165   68.7335 C   0  0  0  0  0
    4.2949   20.4281   68.9612 C   0  0  0  0  0
    5.0504   19.5844   69.9600 C   0  0  0  0  0
    2.7683   19.7068   70.4197 C   0  0  0  0  0
    6.0396   20.4428   70.7689 C   0  0  0  0  0
    7.2459   20.8912   70.0026 C   0  0  0  0  0
    5.7401   18.3723   69.2884 C   0  0  0  0  0
    4.7759   17.5275   68.4667 C   0  0  0  0  0
    6.4344   17.4768   70.3037 C   0  0  0  0  0
   -0.3968   21.4129   67.7223 N   0  0  0  0  0
    1.9229   20.8785   68.3625 N   0  0  0  0  0
    2.9232   20.5601   69.2966 N   0  0  0  0  0
    3.9899   19.1290   70.8636 N   0  0  0  0  0
    8.5201   20.3386   70.3094 N   0  0  0  0  0
    0.3712   21.6481   69.9249 O   0  0  0  0  0
    4.7880   20.9059   67.9045 O   0  0  0  0  0
    1.6568   19.4296   70.9411 O   0  0  0  0  0
    7.1486   21.7834   69.1206 O   0  0  0  0  0
   -2.1489   21.5462   65.5575 F   0  0  0  0  0
  2  1  1  0  0  0
  3  4  1  0  0  0
  4 26  1  0  0  0
  5  6  1  0  0  0
  5 17  1  0  0  0
  7  2  1  0  0  0
  8 18  1  0  0  0
 10  9  1  0  0  0
 10 20  1  0  0  0
 10 12  1  0  0  0
 10 14  1  0  0  0
 11 19  1  0  0  0
 12 13  1  0  0  0
 13 21  1  0  0  0
 14 15  1  0  0  0
 14 16  1  0  0  0
 17  8  1  0  0  0
 18 19  1  0  0  0
 19  9  1  0  0  0
 20 11  1  0  0  0
  2  3  2  0  0  0
  4  5  2  0  0  0
  6  7  2  0  0  0
  8 22  2  0  0  0
  9 23  2  0  0  0
 11 24  2  0  0  0
 13 25  2  0  0  0
M  END
> <rmsd>
0.780245781

$$$$
PubChem-129515972 575421470 ZINC000575421470


 28 31  0  0  0  0  0  0  0  0999 V2000
    0.1798   22.4654   69.2001 O   0  0  0  0  0
    1.9655   18.9883   70.8490 O   0  0  0  0  0
    7.5770   21.1750   68.3633 O   0  0  0  0  0
    5.3153   22.0002   68.9311 O   0  0  0  0  0
   -5.3259   23.2259   66.5174 O   0  0  0  0  0
   -5.7375   20.8566   67.1138 O   0  0  0  0  0
    0.1163   21.4133   68.5103 C   0  0  0  0  0
    1.3837   19.3077   67.7499 C   0  0  0  0  0
    0.4904   18.9885   66.7160 C   0  0  0  0  0
    0.6904   17.8561   65.9243 C   0  0  0  0  0
    1.7925   17.0328   66.1521 C   0  0  0  0  0
    2.6913   17.3402   67.1743 C   0  0  0  0  0
    2.4936   18.4679   67.9841 C   0  0  0  0  0
    3.1381   18.9201   70.3946 C   0  0  0  0  0
    5.4412   18.7542   70.3596 C   0  0  0  0  0
    6.3117   20.0041   70.4426 C   0  0  0  0  0
    5.4998   19.5090   67.9227 C   0  0  0  0  0
    4.8793   18.5360   68.9188 C   0  0  0  0  0
   -2.2361   21.9863   67.7651 C   0  0  0  0  0
   -2.9808   21.8545   69.0964 C   0  0  0  0  0
   -4.3968   22.3721   68.9077 C   0  0  0  0  0
   -3.1789   21.5844   66.6421 C   0  0  0  0  0
    1.2273   20.5086   68.5226 N   0  0  0  0  0
    3.4424   18.7649   69.0211 N   0  0  0  0  0
    4.2791   18.9229   71.2243 N   0  0  0  0  0
   -1.0633   21.1257   67.7541 N   0  0  0  0  0
    6.2161   20.7993   68.8761 S   0  0  0  0  0
   -4.7872   22.0152   67.2245 S   0  0  0  0  0
  7 23  1  0  0  0
  7 26  1  0  0  0
  9 10  1  0  0  0
 11 12  1  0  0  0
 13 24  1  0  0  0
 13  8  1  0  0  0
 14 25  1  0  0  0
 15 25  1  0  0  0
 15 16  1  0  0  0
 16 27  1  0  0  0
 18 17  1  0  0  0
 18 24  1  0  0  0
 18 15  1  0  0  0
 19 26  1  0  0  0
 19 20  1  0  0  0
 20 21  1  0  0  0
 21 28  1  0  0  0
 22 19  1  0  0  0
 23  8  1  0  0  0
 24 14  1  0  0  0
 27 17  1  0  0  0
 28 22  1  0  0  0
  7  1  2  0  0  0
  8  9  2  0  0  0
 10 11  2  0  0  0
 12 13  2  0  0  0
 14  2  2  0  0  0
 27  3  2  0  0  0
 27  4  2  0  0  0
 28  5  2  0  0  0
 28  6  2  0  0  0
M  END
> <rmsd>
0.66414392

$$$$
PubChem-10453879


 27 29  0  0  0  0  0  0  0  0999 V2000
   -5.3599   19.6318   69.7345 C   0  0  0  0  0
   -3.9601   19.0948   69.5263 C   0  0  0  0  0
   -1.6737   18.9431   68.2348 C   0  0  0  0  0
   -0.7973   19.6597   69.2557 C   0  0  0  0  0
   -0.0972   18.5889   70.1034 C   0  0  0  0  0
    0.6487   19.1927   71.2862 C   0  0  0  0  0
    2.5533   20.1167   70.2353 C   0  0  0  0  0
    2.4433   19.6165   68.8028 C   0  0  0  0  0
    0.1644   20.6826   68.5878 C   0  0  0  0  0
    0.6420   21.6731   69.6160 C   0  0  0  0  0
    4.0329   20.3720   70.6385 C   0  0  0  0  0
    4.8154   21.4716   69.8723 C   0  0  0  0  0
    6.2490   21.4928   70.3143 C   0  0  0  0  0
    6.1772   21.1952   68.1077 C   0  0  0  0  0
    6.3759   22.1526   66.9494 C   0  0  0  0  0
    6.5373   19.7951   67.6421 C   0  0  0  0  0
    4.2363   22.8521   70.1353 C   0  0  0  0  0
   -3.2505   19.8236   68.0228 S   0  0  0  0  0
    2.0493   19.1085   71.1099 O   0  0  0  0  0
    3.2890   18.8121   68.3286 O   0  0  0  0  0
    0.0073   22.7405   69.8274 O   0  0  0  0  0
   -0.4991   21.3773   67.5715 O   0  0  0  0  0
    7.0263   21.5719   69.1626 O   0  0  0  0  0
    4.8249   21.2249   68.4984 O   0  0  0  0  0
    4.7501   19.1689   70.6648 O   0  0  0  0  0
    1.3169   19.9957   68.0058 N   0  0  0  0  0
    1.8138   21.3818   70.3835 N   0  0  0  0  0
  1  2  1  0  0  0
  2 18  1  0  0  0
  3 18  1  0  0  0
  4  3  1  0  0  0
  4  5  1  0  0  0
  5  6  1  0  0  0
  6 19  1  0  0  0
  7 19  1  0  0  0
  7  8  1  0  0  0
  7 11  1  0  0  0
  7 27  1  0  0  0
  8 26  1  0  0  0
  9 26  1  0  0  0
  9 10  1  0  0  0
  9 22  1  0  0  0
  9  4  1  0  0  0
 10 27  1  0  0  0
 11 12  1  0  0  0
 11 25  1  0  0  0
 12 13  1  0  0  0
 12 17  1  0  0  0
 12 24  1  0  0  0
 13 23  1  0  0  0
 14 23  1  0  0  0
 14 24  1  0  0  0
 14 15  1  0  0  0
 14 16  1  0  0  0
  8 20  2  0  0  0
 10 21  2  0  0  0
M  END
> <rmsd>
0.80599606

$$$$
PubChem-156592950


 29 31  0  0  0  0  0  0  0  0999 V2000
   -3.2182   24.8365   62.7835 C   0  0  0  0  0
   -2.2314   23.8477   64.8248 C   0  0  0  0  0
   -1.4014   24.9588   65.0433 C   0  0  0  0  0
   -0.5375   24.9863   66.1405 C   0  0  0  0  0
   -0.4984   23.9055   67.0246 C   0  0  0  0  0
   -1.3235   22.7899   66.8181 C   0  0  0  0  0
   -2.1849   22.7703   65.7159 C   0  0  0  0  0
   -0.5110   21.5079   68.8832 C   0  0  0  0  0
   -0.5817   20.2359   69.6544 C   0  0  0  0  0
    1.8959   19.4358   69.3038 C   0  0  0  0  0
    3.6670   19.3681   70.9241 C   0  0  0  0  0
    4.5358   20.2553   70.1273 C   0  0  0  0  0
    6.7926   21.2317   69.8851 C   0  0  0  0  0
    7.7533   22.0130   70.6703 C   0  0  0  0  0
    7.7194   22.1825   72.0383 C   0  0  0  0  0
    8.8101   22.9859   72.3217 C   0  0  0  0  0
    9.4316   23.2507   71.1132 C   0  0  0  0  0
    3.9281   20.8239   68.9009 C   0  0  0  0  0
   -3.1064   23.7885   63.7367 O   0  0  0  0  0
    0.2586   22.4243   69.2756 O   0  0  0  0  0
    6.9600   21.1176   68.6413 O   0  0  0  0  0
    8.7706   22.6525   70.1519 O   0  0  0  0  0
    4.4754   21.7497   68.2483 O   0  0  0  0  0
   -1.3079   21.6603   67.7012 N   0  0  0  0  0
    2.3767   18.9899   70.4266 N   0  0  0  0  0
    4.0786   18.8840   72.0498 N   0  0  0  0  0
    5.7426   20.5174   70.5530 N   0  0  0  0  0
    2.6387   20.3597   68.4988 N   0  0  0  0  0
    0.2772   18.9016   68.7625 S   0  0  0  0  0
  1 19  1  0  0  0
  2 19  1  0  0  0
  3  4  1  0  0  0
  5  6  1  0  0  0
  6 24  1  0  0  0
  7  2  1  0  0  0
  9  8  1  0  0  0
  9 29  1  0  0  0
 10 29  1  0  0  0
 11 25  1  0  0  0
 11 12  1  0  0  0
 12 18  1  0  0  0
 13 27  1  0  0  0
 13 14  1  0  0  0
 14 22  1  0  0  0
 15 16  1  0  0  0
 17 22  1  0  0  0
 18 28  1  0  0  0
 24  8  1  0  0  0
 28 10  1  0  0  0
  2  3  2  0  0  0
  4  5  2  0  0  0
  6  7  2  0  0  0
  8 20  2  0  0  0
 10 25  2  0  0  0
 11 26  2  0  0  0
 12 27  2  0  0  0
 13 21  2  0  0  0
 14 15  2  0  0  0
 16 17  2  0  0  0
 18 23  2  0  0  0
M  END
> <rmsd>
0.770326257

$$$$
PubChem-156593169


 28 30  0  0  0  0  0  0  0  0999 V2000
   -0.5252   24.9932   66.1523 C   0  0  0  0  0
   -1.3794   24.9717   65.0475 C   0  0  0  0  0
   -2.2006   23.8641   64.8221 C   0  0  0  0  0
   -2.1698   22.7763   65.7005 C   0  0  0  0  0
   -1.3159   22.7906   66.8137 C   0  0  0  0  0
   -0.4933   23.9071   67.0312 C   0  0  0  0  0
   -0.5104   21.5078   68.8837 C   0  0  0  0  0
   -0.5830   20.2350   69.6533 C   0  0  0  0  0
    1.8949   19.4358   69.3023 C   0  0  0  0  0
    3.6660   19.3689   70.9225 C   0  0  0  0  0
    4.5342   20.2569   70.1259 C   0  0  0  0  0
    6.7885   21.2376   69.8853 C   0  0  0  0  0
    7.7401   22.0280   70.6743 C   0  0  0  0  0
    8.8258   22.7277   70.1706 C   0  0  0  0  0
    9.5517   23.3946   71.1684 C   0  0  0  0  0
    9.0479   23.2285   72.4567 C   0  0  0  0  0
    3.9264   20.8250   68.8993 C   0  0  0  0  0
   -1.3008   21.6595   67.6974 N   0  0  0  0  0
    2.3760   18.9900   70.4251 N   0  0  0  0  0
    4.0776   18.8860   72.0487 N   0  0  0  0  0
    5.7402   20.5210   70.5524 N   0  0  0  0  0
    2.6372   20.3602   68.4973 N   0  0  0  0  0
    0.2552   22.4253   69.2814 O   0  0  0  0  0
    6.9594   21.1177   68.6420 O   0  0  0  0  0
    4.4737   21.7504   68.2462 O   0  0  0  0  0
    0.2763   18.9010   68.7612 S   0  0  0  0  0
    7.6900   22.2428   72.3366 S   0  0  0  0  0
   -2.9725   21.7086   65.4664 F   0  0  0  0  0
  2  3  1  0  0  0
  4  5  1  0  0  0
  4 28  1  0  0  0
  5 18  1  0  0  0
  6  1  1  0  0  0
  8  7  1  0  0  0
  8 26  1  0  0  0
  9 26  1  0  0  0
 10 19  1  0  0  0
 10 11  1  0  0  0
 11 17  1  0  0  0
 12 21  1  0  0  0
 12 13  1  0  0  0
 13 27  1  0  0  0
 14 15  1  0  0  0
 16 27  1  0  0  0
 17 22  1  0  0  0
 18  7  1  0  0  0
 22  9  1  0  0  0
  1  2  2  0  0  0
  3  4  2  0  0  0
  5  6  2  0  0  0
  7 23  2  0  0  0
  9 19  2  0  0  0
 10 20  2  0  0  0
 11 21  2  0  0  0
 12 24  2  0  0  0
 13 14  2  0  0  0
 15 16  2  0  0  0
 17 25  2  0  0  0
M  END
> <rmsd>
0.769359529

$$$$
PubChem-162453800


 24 26  0  0  0  0  0  0  0  0999 V2000
    4.1591   22.3143   67.4408 C   0  0  0  0  0
    5.2670   21.1506   68.9573 C   0  0  0  0  0
    6.5947   20.6109   69.4006 C   0  0  0  0  0
    6.7074   19.5493   70.4277 C   0  0  0  0  0
    5.7251   19.0440   71.1656 C   0  0  0  0  0
    6.2041   17.9971   72.1048 C   0  0  0  0  0
    7.6954   17.8813   71.8224 C   0  0  0  0  0
    8.0147   18.9225   70.7569 C   0  0  0  0  0
    3.2757   18.9867   71.8853 C   0  0  0  0  0
    1.8965   19.5541   71.7330 C   0  0  0  0  0
    1.8228   21.0644   71.9645 C   0  0  0  0  0
    2.2851   21.8364   70.7325 C   0  0  0  0  0
    1.6422   21.2695   69.4604 C   0  0  0  0  0
    0.0186   22.9902   69.2845 C   0  0  0  0  0
   -1.0711   23.2189   68.2679 C   0  0  0  0  0
   -0.3142   21.0386   68.1314 C   0  0  0  0  0
    5.4288   22.1475   67.9919 O   0  0  0  0  0
    7.6492   21.0565   68.8710 O   0  0  0  0  0
    3.4560   18.0550   72.7129 O   0  0  0  0  0
    4.3629   19.4898   71.0951 N   0  0  0  0  0
    1.9125   19.8266   69.3899 N   0  0  0  0  0
    1.2678   19.1719   70.4628 N   0  0  0  0  0
    0.2010   21.5522   69.3955 N   0  0  0  0  0
   -1.3413   21.9415   67.6355 N   0  0  0  0  0
  1 17  1  0  0  0
  2 17  1  0  0  0
  2  3  1  0  0  0
  3  4  1  0  0  0
  5 20  1  0  0  0
  6  5  1  0  0  0
  6  7  1  0  0  0
  7  8  1  0  0  0
  8  4  1  0  0  0
 10  9  1  0  0  0
 10 11  1  0  0  0
 10 22  1  0  0  0
 11 12  1  0  0  0
 12 13  1  0  0  0
 13 21  1  0  0  0
 13 23  1  0  0  0
 14 23  1  0  0  0
 14 15  1  0  0  0
 15 24  1  0  0  0
 16 24  1  0  0  0
 16 23  1  0  0  0
 20  9  1  0  0  0
 21 22  1  0  0  0
  3 18  2  0  0  0
  4  5  2  0  0  0
  9 19  2  0  0  0
M  END
> <rmsd>
0.533580184

$$$$
PubChem-156593209


 28 30  0  0  0  0  0  0  0  0999 V2000
   -1.4327   26.1124   64.1025 C   0  0  0  0  0
   -1.3925   24.9628   65.0431 C   0  0  0  0  0
   -0.5287   24.9880   66.1412 C   0  0  0  0  0
   -0.4918   23.9060   67.0255 C   0  0  0  0  0
   -1.3193   22.7914   66.8182 C   0  0  0  0  0
   -2.1802   22.7741   65.7151 C   0  0  0  0  0
   -2.2182   23.8557   64.8297 C   0  0  0  0  0
   -0.5106   21.5073   68.8832 C   0  0  0  0  0
   -0.5825   20.2346   69.6531 C   0  0  0  0  0
    1.8956   19.4357   69.3027 C   0  0  0  0  0
    3.6663   19.3690   70.9233 C   0  0  0  0  0
    4.5346   20.2570   70.1269 C   0  0  0  0  0
    6.7889   21.2379   69.8868 C   0  0  0  0  0
    7.7401   22.0285   70.6760 C   0  0  0  0  0
    8.8266   22.7274   70.1728 C   0  0  0  0  0
    9.5522   23.3944   71.1707 C   0  0  0  0  0
    9.0473   23.2293   72.4587 C   0  0  0  0  0
    3.9272   20.8247   68.9000 C   0  0  0  0  0
   -1.3060   21.6612   67.7006 N   0  0  0  0  0
    2.3765   18.9901   70.4256 N   0  0  0  0  0
    4.0778   18.8858   72.0493 N   0  0  0  0  0
    5.7404   20.5213   70.5537 N   0  0  0  0  0
    2.6380   20.3599   68.4976 N   0  0  0  0  0
    0.2590   22.4230   69.2774 O   0  0  0  0  0
    6.9603   21.1178   68.6436 O   0  0  0  0  0
    4.4747   21.7501   68.2468 O   0  0  0  0  0
    0.2772   18.9008   68.7610 S   0  0  0  0  0
    7.6890   22.2442   72.3382 S   0  0  0  0  0
  1  2  1  0  0  0
  3  4  1  0  0  0
  5  6  1  0  0  0
  5 19  1  0  0  0
  7  2  1  0  0  0
  9  8  1  0  0  0
  9 27  1  0  0  0
 10 27  1  0  0  0
 11 20  1  0  0  0
 11 12  1  0  0  0
 12 18  1  0  0  0
 13 22  1  0  0  0
 13 14  1  0  0  0
 14 28  1  0  0  0
 15 16  1  0  0  0
 17 28  1  0  0  0
 18 23  1  0  0  0
 19  8  1  0  0  0
 23 10  1  0  0  0
  2  3  2  0  0  0
  4  5  2  0  0  0
  6  7  2  0  0  0
  8 24  2  0  0  0
 10 20  2  0  0  0
 11 21  2  0  0  0
 12 22  2  0  0  0
 13 25  2  0  0  0
 14 15  2  0  0  0
 16 17  2  0  0  0
 18 26  2  0  0  0
M  END
> <rmsd>
0.769736588

$$$$
PubChem-60910639


 16 16  0  0  0  0  0  0  0  0999 V2000
    6.3785   20.2212   71.0721 C   0  0  0  0  0
    4.3789   19.5091   70.5181 C   0  0  0  0  0
    5.4289   20.2898   70.0719 C   0  0  0  0  0
    5.5611   21.0489   68.8180 C   0  0  0  0  0
    0.7849   20.3848   68.7405 C   0  0  0  0  0
    0.0348   21.6428   68.4775 C   0  0  0  0  0
    5.8954   19.4333   72.0552 N   0  0  0  0  0
    4.6878   19.0024   71.7229 N   0  0  0  0  0
    2.0153   20.6841   69.4547 N   0  0  0  0  0
   -0.2027   22.0587   67.1384 N   0  0  0  0  0
    4.6404   21.0466   67.9603 O   0  0  0  0  0
    6.7171   21.7792   68.5724 O   0  0  0  0  0
    3.1257   18.5182   68.3840 O   0  0  0  0  0
    2.0198   18.2818   70.5573 O   0  0  0  0  0
   -0.3997   22.3337   69.4358 O   0  0  0  0  0
    2.8565   19.1913   69.7011 S   0  0  0  0  0
  3  4  1  0  0  0
  3  1  1  0  0  0
  4 12  1  0  0  0
  5  9  1  0  0  0
  5  6  1  0  0  0
  6 10  1  0  0  0
  8  7  1  0  0  0
  8  2  1  0  0  0
 16  2  1  0  0  0
 16  9  1  0  0  0
  1  7  2  0  0  0
  2  3  2  0  0  0
  4 11  2  0  0  0
  6 15  2  0  0  0
 16 13  2  0  0  0
 16 14  2  0  0  0
M  END
> <rmsd>
0.830187738

$$$$
PubChem-53672370


 27 29  0  0  0  0  0  0  0  0999 V2000
   -4.0191   23.0426   71.4651 C   0  0  0  0  0
   -2.5069   22.9762   71.1660 C   0  0  0  0  0
   -3.6995   22.0581   69.4066 C   0  0  0  0  0
   -1.1606   22.0781   69.1824 C   0  0  0  0  0
    0.0558   21.1225   67.1716 C   0  0  0  0  0
   -0.2422   20.8293   65.7341 C   0  0  0  0  0
   -1.2318   19.9027   65.3702 C   0  0  0  0  0
   -1.4821   19.6359   64.0211 C   0  0  0  0  0
   -0.7438   20.2904   63.0308 C   0  0  0  0  0
    0.2456   21.2106   63.3893 C   0  0  0  0  0
    0.4966   21.4780   64.7385 C   0  0  0  0  0
    0.7708   19.9795   67.8228 C   0  0  0  0  0
    2.9071   19.0669   68.8278 C   0  0  0  0  0
    4.2925   19.4171   69.0737 C   0  0  0  0  0
    2.6763   19.1547   70.3048 C   0  0  0  0  0
   -2.3941   22.3478   69.8597 N   0  0  0  0  0
   -4.6997   22.4491   70.3188 N   0  0  0  0  0
   -1.1663   21.4544   67.8949 N   0  0  0  0  0
    2.1546   20.1174   68.1461 N   0  0  0  0  0
    4.0930   19.5243   70.5022 N   0  0  0  0  0
    4.6755   20.7138   68.5241 N   0  0  0  0  0
    5.8191   21.1412   68.6779 N   0  0  0  0  0
    6.9621   21.5689   68.8316 N   0  0  0  0  0
   -3.9563   21.5069   68.3039 O   0  0  0  0  0
   -0.0670   22.3945   69.7250 O   0  0  0  0  0
    0.1588   18.9057   68.0754 O   0  0  0  0  0
    1.6861   18.9889   71.0639 O   0  0  0  0  0
  1  2  1  0  0  0
  1 17  1  0  0  0
  2 16  1  0  0  0
  3 17  1  0  0  0
  4 18  1  0  0  0
  5 18  1  0  0  0
  5  6  1  0  0  0
  5 12  1  0  0  0
  7  8  1  0  0  0
  9 10  1  0  0  0
 11  6  1  0  0  0
 12 19  1  0  0  0
 13 19  1  0  0  0
 13 14  1  0  0  0
 13 15  1  0  0  0
 14 20  1  0  0  0
 14 21  1  0  0  0
 16  3  1  0  0  0
 16  4  1  0  0  0
 20 15  1  0  0  0
  3 24  2  0  0  0
  4 25  2  0  0  0
  6  7  2  0  0  0
  8  9  2  0  0  0
 10 11  2  0  0  0
 12 26  2  0  0  0
 15 27  2  0  0  0
 21 22  2  0  0  0
 22 23  2  0  0  0
M  CHG  2  22   1  23  -1
M  END
> <rmsd>
0.664306164

$$$$
PubChem-103111403


 20 20  0  0  0  0  0  0  0  0999 V2000
    9.2347   20.2624   72.4732 C   0  0  0  0  0
    8.9516   20.9785   71.1697 C   0  0  0  0  0
    7.2202   20.9876   69.4199 C   0  0  0  0  0
    5.9516   20.4649   68.8939 C   0  0  0  0  0
    5.1279   19.5102   69.4573 C   0  0  0  0  0
    2.9039   18.5341   68.8407 C   0  0  0  0  0
    2.5668   17.7498   67.5835 C   0  0  0  0  0
    1.7383   19.3546   69.2876 C   0  0  0  0  0
    0.1002   21.2240   68.7472 C   0  0  0  0  0
    5.2856   18.8205   70.7729 C   0  0  0  0  0
    7.7317   20.5005   70.6239 O   0  0  0  0  0
    7.8409   21.8767   68.7757 O   0  0  0  0  0
    1.2460   19.1480   70.4285 O   0  0  0  0  0
   -0.4895   21.1359   69.8565 O   0  0  0  0  0
    4.0775   19.3761   68.6302 N   0  0  0  0  0
    4.2453   20.2049   67.6101 N   0  0  0  0  0
    5.3813   20.8771   67.7422 N   0  0  0  0  0
    1.2011   20.3675   68.4267 N   0  0  0  0  0
   -0.3336   22.1900   67.7980 N   0  0  0  0  0
    4.6319   19.5951   71.8123 N   0  0  0  0  0
  1  2  1  0  0  0
  2 11  1  0  0  0
  3 11  1  0  0  0
  3  4  1  0  0  0
  4 17  1  0  0  0
  5 15  1  0  0  0
  6 15  1  0  0  0
  6  7  1  0  0  0
  6  8  1  0  0  0
  8 18  1  0  0  0
  9 19  1  0  0  0
 10  5  1  0  0  0
 10 20  1  0  0  0
 15 16  1  0  0  0
 18  9  1  0  0  0
  3 12  2  0  0  0
  4  5  2  0  0  0
  8 13  2  0  0  0
  9 14  2  0  0  0
 16 17  2  0  0  0
M  END
> <rmsd>
0.733507574

$$$$
PubChem-62092183


 19 20  0  0  0  0  0  0  0  0999 V2000
    1.4486   22.0921   66.1384 C   0  0  0  0  0
    1.5179   20.6498   66.6251 C   0  0  0  0  0
    1.1108   20.5286   68.0977 C   0  0  0  0  0
   -0.0777   21.3840   68.4415 C   0  0  0  0  0
    0.0003   22.5544   66.2006 C   0  0  0  0  0
    4.3198   19.8070   70.5577 C   0  0  0  0  0
    5.4771   20.4425   70.1484 C   0  0  0  0  0
    6.2683   20.5117   71.2780 C   0  0  0  0  0
    5.8407   20.9536   68.8170 C   0  0  0  0  0
   -0.6610   21.2210   69.5447 O   0  0  0  0  0
    1.8881   18.7340   70.4494 O   0  0  0  0  0
    3.3088   18.4994   68.4671 O   0  0  0  0  0
    5.0537   20.8369   67.8421 O   0  0  0  0  0
    7.0696   21.5735   68.6281 O   0  0  0  0  0
   -0.5174   22.4213   67.5578 N   0  0  0  0  0
    2.2333   20.8851   68.9524 N   0  0  0  0  0
    5.5941   19.9395   72.2974 N   0  0  0  0  0
    4.4168   19.5136   71.8647 N   0  0  0  0  0
    2.9089   19.4210   69.5857 S   0  0  0  0  0
  1  2  1  0  0  0
  2  3  1  0  0  0
  3  4  1  0  0  0
  3 16  1  0  0  0
  4 15  1  0  0  0
  5 15  1  0  0  0
  5  1  1  0  0  0
  7  8  1  0  0  0
  7  9  1  0  0  0
  9 14  1  0  0  0
 18 17  1  0  0  0
 18  6  1  0  0  0
 19 16  1  0  0  0
 19  6  1  0  0  0
  4 10  2  0  0  0
  6  7  2  0  0  0
  8 17  2  0  0  0
  9 13  2  0  0  0
 19 11  2  0  0  0
 19 12  2  0  0  0
M  END
> <rmsd>
0.731055975

$$$$
PubChem-156591331


 24 25  0  0  0  0  0  0  0  0999 V2000
   10.4985   24.4142   74.2763 C   0  0  0  0  0
    9.6235   23.5093   72.1470 C   0  0  0  0  0
    8.5657   22.8435   72.7865 C   0  0  0  0  0
    7.6513   22.0948   72.0408 C   0  0  0  0  0
    7.7810   22.0001   70.6484 C   0  0  0  0  0
    8.8379   22.6672   70.0123 C   0  0  0  0  0
    9.7526   23.4163   70.7579 C   0  0  0  0  0
    6.8142   21.2132   69.8627 C   0  0  0  0  0
    4.5572   20.2406   70.1194 C   0  0  0  0  0
    3.6942   19.3463   70.9145 C   0  0  0  0  0
    1.9051   19.4414   69.3153 C   0  0  0  0  0
    3.9375   20.8279   68.9079 C   0  0  0  0  0
   -0.5577   20.2592   69.6881 C   0  0  0  0  0
   -0.5302   21.5224   68.8980 C   0  0  0  0  0
   10.5544   24.2658   72.8641 O   0  0  0  0  0
    6.9672   21.0993   68.6157 O   0  0  0  0  0
    4.4817   21.7596   68.2608 O   0  0  0  0  0
    0.0813   22.5268   69.3448 O   0  0  0  0  0
    5.7696   20.4930   70.5345 N   0  0  0  0  0
    4.1167   18.8463   72.0290 N   0  0  0  0  0
    2.3972   18.9790   70.4265 N   0  0  0  0  0
    2.6412   20.3747   68.5150 N   0  0  0  0  0
   -1.2058   21.6018   67.6479 N   0  0  0  0  0
    0.2793   18.9183   68.7853 S   0  0  0  0  0
  1 15  1  0  0  0
  2 15  1  0  0  0
  3  4  1  0  0  0
  5  6  1  0  0  0
  5  8  1  0  0  0
  7  2  1  0  0  0
  8 19  1  0  0  0
  9 10  1  0  0  0
 10 21  1  0  0  0
 11 22  1  0  0  0
 11 24  1  0  0  0
 12  9  1  0  0  0
 13 24  1  0  0  0
 13 14  1  0  0  0
 14 23  1  0  0  0
 22 12  1  0  0  0
  2  3  2  0  0  0
  4  5  2  0  0  0
  6  7  2  0  0  0
  8 16  2  0  0  0
  9 19  2  0  0  0
 10 20  2  0  0  0
 11 21  2  0  0  0
 12 17  2  0  0  0
 14 18  2  0  0  0
M  END
> <rmsd>
0.764511764

$$$$
PubChem-155435777


 33 35  0  0  0  0  0  0  0  0999 V2000
    7.3113   22.8587   69.7651 C   0  0  0  0  0
    7.0036   21.4991   69.1668 C   0  0  0  0  0
    6.8968   21.2578   66.9497 C   0  0  0  0  0
    5.5513   21.0123   67.5451 C   0  0  0  0  0
    4.5084   21.8254   66.8014 C   0  0  0  0  0
    2.0645   22.1728   66.8560 C   0  0  0  0  0
    1.0414   23.6205   65.2769 C   0  0  0  0  0
   -0.3094   22.5866   66.9279 C   0  0  0  0  0
    0.8179   21.9332   67.4700 C   0  0  0  0  0
    0.7067   21.0423   68.6553 C   0  0  0  0  0
    2.5895   19.8894   70.8455 C   0  0  0  0  0
    3.6727   18.9185   71.3030 C   0  0  0  0  0
    4.4200   18.3534   70.1067 C   0  0  0  0  0
    3.0586   17.7805   72.0979 C   0  0  0  0  0
    1.1619   24.5199   64.1143 C   0  0  0  0  0
    0.0300   25.1672   63.5960 C   0  0  0  0  0
    0.1453   26.0224   62.4966 C   0  0  0  0  0
    1.3937   26.2373   61.9066 C   0  0  0  0  0
    2.5269   25.5968   62.4155 C   0  0  0  0  0
    2.4112   24.7419   63.5151 C   0  0  0  0  0
    3.8096   25.8174   61.8105 C   0  0  0  0  0
    7.3545   20.4326   70.1879 C   0  0  0  0  0
    7.7916   21.3111   68.0145 O   0  0  0  0  0
    5.6282   21.4264   68.8728 O   0  0  0  0  0
    3.2248   21.5754   67.3554 O   0  0  0  0  0
   -0.2282   21.2000   69.4861 O   0  0  0  0  0
    1.6621   19.2606   70.0059 O   0  0  0  0  0
    4.5725   19.6026   72.1188 O   0  0  0  0  0
    2.1410   23.0043   65.7819 N   0  0  0  0  0
   -0.1691   23.4045   65.8538 N   0  0  0  0  0
    1.6641   20.0029   68.8723 N   0  0  0  0  0
   -1.6126   22.3833   67.4679 N   0  0  0  0  0
    4.8440   25.9950   61.3231 N   0  0  0  0  0
  1  2  1  0  0  0
  2 23  1  0  0  0
  2 22  1  0  0  0
  2 24  1  0  0  0
  3 23  1  0  0  0
  3  4  1  0  0  0
  4 24  1  0  0  0
  4  5  1  0  0  0
  5 25  1  0  0  0
  6 25  1  0  0  0
  7 29  1  0  0  0
  7 15  1  0  0  0
  8 30  1  0  0  0
  8 32  1  0  0  0
  9 10  1  0  0  0
  9  6  1  0  0  0
 10 31  1  0  0  0
 11 27  1  0  0  0
 11 12  1  0  0  0
 12 13  1  0  0  0
 12 14  1  0  0  0
 12 28  1  0  0  0
 16 17  1  0  0  0
 18 19  1  0  0  0
 19 21  1  0  0  0
 20 15  1  0  0  0
 31 27  1  0  0  0
  6 29  2  0  0  0
  7 30  2  0  0  0
  8  9  2  0  0  0
 10 26  2  0  0  0
 15 16  2  0  0  0
 17 18  2  0  0  0
 19 20  2  0  0  0
 21 33  3  0  0  0
M  END
> <rmsd>
0.728241742

$$$$
PubChem-103126454


 21 22  0  0  0  0  0  0  0  0999 V2000
    9.1944   20.8321   71.1024 C   0  0  0  0  0
    7.4001   20.9959   69.4253 C   0  0  0  0  0
    6.0837   20.5644   68.9343 C   0  0  0  0  0
    5.2336   19.6303   69.4936 C   0  0  0  0  0
    2.9675   18.7442   68.8536 C   0  0  0  0  0
    1.8244   19.5725   69.3297 C   0  0  0  0  0
   -0.0276   21.1992   68.7102 C   0  0  0  0  0
    5.4612   18.8256   70.7383 C   0  0  0  0  0
    5.4757   17.3452   70.4412 C   0  0  0  0  0
    4.9053   16.7278   71.6841 C   0  0  0  0  0
    3.9983   17.7963   72.2523 C   0  0  0  0  0
    7.9274   20.4437   70.5941 O   0  0  0  0  0
    8.0472   21.8673   68.7828 O   0  0  0  0  0
    1.5472   19.5996   70.5581 O   0  0  0  0  0
   -0.4250   21.3234   69.8989 O   0  0  0  0  0
    4.1545   19.5719   68.6900 N   0  0  0  0  0
    4.3317   20.4252   67.6940 N   0  0  0  0  0
    5.4986   21.0435   67.8166 N   0  0  0  0  0
    1.0762   20.3474   68.3863 N   0  0  0  0  0
   -0.6851   21.9167   67.6732 N   0  0  0  0  0
    4.4213   19.0902   71.7257 N   0  0  0  0  0
  1 12  1  0  0  0
  2 12  1  0  0  0
  2  3  1  0  0  0
  3 18  1  0  0  0
  4 16  1  0  0  0
  5 16  1  0  0  0
  5  6  1  0  0  0
  6 19  1  0  0  0
  7 20  1  0  0  0
  8  4  1  0  0  0
  8  9  1  0  0  0
  8 21  1  0  0  0
  9 10  1  0  0  0
 10 11  1  0  0  0
 11 21  1  0  0  0
 16 17  1  0  0  0
 19  7  1  0  0  0
  2 13  2  0  0  0
  3  4  2  0  0  0
  6 14  2  0  0  0
  7 15  2  0  0  0
 17 18  2  0  0  0
M  END
> <rmsd>
0.682569146

$$$$
PubChem-156592979


 30 32  0  0  0  0  0  0  0  0999 V2000
   -1.5226   28.4101   64.3889 C   0  0  0  0  0
   -0.6344   27.1910   64.2553 C   0  0  0  0  0
   -1.3826   24.9636   65.0302 C   0  0  0  0  0
   -0.5147   24.9810   66.1334 C   0  0  0  0  0
   -0.4814   23.9009   67.0192 C   0  0  0  0  0
   -1.3143   22.7908   66.8155 C   0  0  0  0  0
   -2.1767   22.7762   65.7144 C   0  0  0  0  0
   -2.2113   23.8560   64.8273 C   0  0  0  0  0
   -0.5096   21.5070   68.8823 C   0  0  0  0  0
   -0.5829   20.2343   69.6520 C   0  0  0  0  0
    1.8953   19.4352   69.3030 C   0  0  0  0  0
    3.6655   19.3685   70.9243 C   0  0  0  0  0
    4.5345   20.2557   70.1277 C   0  0  0  0  0
    6.7910   21.2309   69.8854 C   0  0  0  0  0
    7.7470   22.0093   70.6795 C   0  0  0  0  0
    8.8292   22.7026   70.1792 C   0  0  0  0  0
    9.4266   23.2738   71.2893 C   0  0  0  0  0
    8.6717   22.8921   72.3855 C   0  0  0  0  0
    3.9270   20.8242   68.9009 C   0  0  0  0  0
   -1.4409   26.0278   64.1258 O   0  0  0  0  0
    0.2608   22.4220   69.2767 O   0  0  0  0  0
    6.9584   21.1167   68.6412 O   0  0  0  0  0
    7.6786   22.1384   71.9798 O   0  0  0  0  0
    4.4741   21.7505   68.2488 O   0  0  0  0  0
   -1.3048   21.6617   67.6995 N   0  0  0  0  0
    2.3758   18.9897   70.4261 N   0  0  0  0  0
    4.0766   18.8853   72.0505 N   0  0  0  0  0
    5.7414   20.5177   70.5534 N   0  0  0  0  0
    2.6380   20.3592   68.4982 N   0  0  0  0  0
    0.2772   18.9002   68.7608 S   0  0  0  0  0
  1  2  1  0  0  0
  2 20  1  0  0  0
  3 20  1  0  0  0
  4  5  1  0  0  0
  6  7  1  0  0  0
  6 25  1  0  0  0
  8  3  1  0  0  0
 10  9  1  0  0  0
 10 30  1  0  0  0
 11 30  1  0  0  0
 12 26  1  0  0  0
 12 13  1  0  0  0
 13 19  1  0  0  0
 14 28  1  0  0  0
 14 15  1  0  0  0
 15 23  1  0  0  0
 16 17  1  0  0  0
 18 23  1  0  0  0
 19 29  1  0  0  0
 25  9  1  0  0  0
 29 11  1  0  0  0
  3  4  2  0  0  0
  5  6  2  0  0  0
  7  8  2  0  0  0
  9 21  2  0  0  0
 11 26  2  0  0  0
 12 27  2  0  0  0
 13 28  2  0  0  0
 14 22  2  0  0  0
 15 16  2  0  0  0
 17 18  2  0  0  0
 19 24  2  0  0  0
M  END
> <rmsd>
0.770313561

$$$$
PubChem-154464363


 29 30  0  0  0  0  0  0  0  0999 V2000
    6.6560   18.0714   70.0619 C   0  0  0  0  0
    5.8365   18.9273   69.1077 C   0  0  0  0  0
    4.9504   18.0177   68.2676 C   0  0  0  0  0
    5.0359   20.0211   69.8532 C   0  0  0  0  0
    4.1698   20.8236   68.9123 C   0  0  0  0  0
    2.7644   19.8485   70.3458 C   0  0  0  0  0
    0.4043   21.2530   68.7529 C   0  0  0  0  0
   -2.0238   21.5007   67.9676 C   0  0  0  0  0
   -2.5549   21.7255   69.2474 C   0  0  0  0  0
   -3.9251   21.9436   69.4159 C   0  0  0  0  0
   -4.7742   21.9380   68.3062 C   0  0  0  0  0
   -4.2529   21.7138   67.0291 C   0  0  0  0  0
   -2.8821   21.4957   66.8621 C   0  0  0  0  0
    5.9474   20.9477   70.6769 C   0  0  0  0  0
    6.9208   21.7359   69.8560 C   0  0  0  0  0
    7.6890   23.9750   68.9955 C   0  0  0  0  0
    7.2810   25.4014   69.0928 C   0  0  0  0  0
    4.5934   21.4486   67.9030 O   0  0  0  0  0
    1.7032   19.4141   70.8647 O   0  0  0  0  0
    0.1379   21.4944   69.9608 O   0  0  0  0  0
    7.8624   21.1522   69.2548 O   0  0  0  0  0
    7.7965   26.1453   69.9668 O   0  0  0  0  0
    6.3025   25.9028   68.2450 O   0  0  0  0  0
    2.7968   20.7631   69.2609 N   0  0  0  0  0
    4.0546   19.4075   70.7526 N   0  0  0  0  0
    1.7524   21.0001   68.3513 N   0  0  0  0  0
   -0.6242   21.2706   67.7552 N   0  0  0  0  0
    6.7817   23.1540   69.7800 N   0  0  0  0  0
   -6.6422   22.2352   68.5341 Br  0  0  0  0  0
  1  2  1  0  0  0
  2  3  1  0  0  0
  2  4  1  0  0  0
  4  5  1  0  0  0
  4 14  1  0  0  0
  4 25  1  0  0  0
  5 24  1  0  0  0
  6 25  1  0  0  0
  7 27  1  0  0  0
  9 10  1  0  0  0
 11 12  1  0  0  0
 11 29  1  0  0  0
 13  8  1  0  0  0
 14 15  1  0  0  0
 15 28  1  0  0  0
 16 28  1  0  0  0
 16 17  1  0  0  0
 17 23  1  0  0  0
 24  6  1  0  0  0
 24 26  1  0  0  0
 26  7  1  0  0  0
 27  8  1  0  0  0
  5 18  2  0  0  0
  6 19  2  0  0  0
  7 20  2  0  0  0
  8  9  2  0  0  0
 10 11  2  0  0  0
 12 13  2  0  0  0
 15 21  2  0  0  0
 17 22  2  0  0  0
M  CHG  1  23  -1
M  END
> <rmsd>
0.76470834

$$$$
PubChem-4850373 CSC026434704 MCULE-4220299553 MolPort-005-320-512


 29 31  0  0  0  0  0  0  0  0999 V2000
   -1.2974   19.3141   68.6358 C   0  0  0  0  0
   -0.0802   20.0378   68.0748 C   0  0  0  0  0
   -0.7301   22.3865   68.8637 C   0  0  0  0  0
   -1.0003   23.7819   68.5035 C   0  0  0  0  0
   -1.3439   24.7857   69.3845 C   0  0  0  0  0
   -1.4959   25.9119   68.5946 C   0  0  0  0  0
   -1.2360   25.5202   67.2923 C   0  0  0  0  0
    1.1446   19.8853   68.9309 C   0  0  0  0  0
    4.7997   20.8014   68.7607 C   0  0  0  0  0
    6.0102   20.6790   69.5843 C   0  0  0  0  0
    7.4382   20.2173   71.2096 C   0  0  0  0  0
    6.1200   20.0986   70.8297 C   0  0  0  0  0
    9.4647   21.1926   70.1641 C   0  0  0  0  0
   10.3070   20.8639   71.2386 C   0  0  0  0  0
   11.6645   21.1951   71.2005 C   0  0  0  0  0
   12.1910   21.8573   70.0885 C   0  0  0  0  0
   11.3609   22.1886   69.0144 C   0  0  0  0  0
   10.0034   21.8576   69.0521 C   0  0  0  0  0
   -0.3811   21.4477   67.8390 N   0  0  0  0  0
    2.3901   20.3959   68.4587 N   0  0  0  0  0
    3.5541   20.2860   69.2299 N   0  0  0  0  0
    7.2208   21.1366   69.2170 N   0  0  0  0  0
    8.0695   20.8548   70.1977 N   0  0  0  0  0
   -0.8036   22.0210   70.0683 O   0  0  0  0  0
   -0.9442   24.2421   67.2799 O   0  0  0  0  0
    1.0829   19.3155   70.0550 O   0  0  0  0  0
    4.8647   21.3650   67.6353 O   0  0  0  0  0
    5.1055   19.5051   71.5700 O   0  0  0  0  0
   13.8906   22.2720   70.0409 Cl  0  0  0  0  0
  2  1  1  0  0  0
  2 19  1  0  0  0
  2  8  1  0  0  0
  3  4  1  0  0  0
  4 25  1  0  0  0
  5  6  1  0  0  0
  7 25  1  0  0  0
  8 20  1  0  0  0
  9 10  1  0  0  0
 12 28  1  0  0  0
 12 10  1  0  0  0
 14 15  1  0  0  0
 16 29  1  0  0  0
 16 17  1  0  0  0
 18 13  1  0  0  0
 19  3  1  0  0  0
 20 21  1  0  0  0
 21  9  1  0  0  0
 23 22  1  0  0  0
 23 11  1  0  0  0
 23 13  1  0  0  0
  3 24  2  0  0  0
  4  5  2  0  0  0
  6  7  2  0  0  0
  8 26  2  0  0  0
  9 27  2  0  0  0
 10 22  2  0  0  0
 11 12  2  0  0  0
 13 14  2  0  0  0
 15 16  2  0  0  0
 17 18  2  0  0  0
M  END
> <rmsd>
0.811957002

$$$$
PubChem-4850373 CSC026434704 MCULE-4220299553 MolPort-005-320-512


 29 31  0  0  0  0  0  0  0  0999 V2000
   -1.2967   19.3127   68.6366 C   0  0  0  0  0
   -0.0797   20.0366   68.0755 C   0  0  0  0  0
   -0.7322   22.3857   68.8612 C   0  0  0  0  0
   -1.0017   23.7807   68.4995 C   0  0  0  0  0
   -1.3481   24.7849   69.3789 C   0  0  0  0  0
   -1.4982   25.9107   68.5879 C   0  0  0  0  0
   -1.2345   25.5183   67.2865 C   0  0  0  0  0
    1.1447   19.8860   68.9327 C   0  0  0  0  0
    4.7996   20.8026   68.7619 C   0  0  0  0  0
    6.0109   20.6786   69.5840 C   0  0  0  0  0
    7.4410   20.2130   71.2063 C   0  0  0  0  0
    6.1223   20.0952   70.8278 C   0  0  0  0  0
    9.4662   21.1907   70.1605 C   0  0  0  0  0
   10.0026   21.8618   69.0510 C   0  0  0  0  0
   11.3599   22.1931   69.0124 C   0  0  0  0  0
   12.1922   21.8561   70.0828 C   0  0  0  0  0
   11.6681   21.1878   71.1923 C   0  0  0  0  0
   10.3107   20.8564   71.2315 C   0  0  0  0  0
   -0.3813   21.4460   67.8379 N   0  0  0  0  0
    2.3902   20.3965   68.4603 N   0  0  0  0  0
    3.5542   20.2870   69.2315 N   0  0  0  0  0
    7.2211   21.1369   69.2162 N   0  0  0  0  0
    8.0711   20.8529   70.1952 N   0  0  0  0  0
   -0.8075   22.0212   70.0660 O   0  0  0  0  0
   -0.9422   24.2403   67.2757 O   0  0  0  0  0
    1.0825   19.3185   70.0578 O   0  0  0  0  0
    4.8636   21.3678   67.6373 O   0  0  0  0  0
    5.1088   19.5000   71.5680 O   0  0  0  0  0
   13.8916   22.2710   70.0338 Cl  0  0  0  0  0
  2  1  1  0  0  0
  2 19  1  0  0  0
  2  8  1  0  0  0
  3  4  1  0  0  0
  4 25  1  0  0  0
  5  6  1  0  0  0
  7 25  1  0  0  0
  8 20  1  0  0  0
  9 10  1  0  0  0
 12 28  1  0  0  0
 12 10  1  0  0  0
 14 15  1  0  0  0
 16 29  1  0  0  0
 16 17  1  0  0  0
 18 13  1  0  0  0
 19  3  1  0  0  0
 20 21  1  0  0  0
 21  9  1  0  0  0
 23 22  1  0  0  0
 23 11  1  0  0  0
 23 13  1  0  0  0
  3 24  2  0  0  0
  4  5  2  0  0  0
  6  7  2  0  0  0
  8 26  2  0  0  0
  9 27  2  0  0  0
 10 22  2  0  0  0
 11 12  2  0  0  0
 13 14  2  0  0  0
 15 16  2  0  0  0
 17 18  2  0  0  0
M  END
> <rmsd>
0.812778592

$$$$
PubChem-57722272


 24 24  0  0  0  0  0  0  0  0999 V2000
    8.7523   15.9963   68.1274 C   0  0  0  0  0
    7.2788   16.2576   67.8723 C   0  0  0  0  0
    6.9451   15.8249   66.4604 C   0  0  0  0  0
    6.4444   15.4406   68.8425 C   0  0  0  0  0
    6.9694   17.7190   68.0141 C   0  0  0  0  0
    7.1644   18.3880   69.1572 C   0  0  0  0  0
    6.8404   19.8485   69.2830 C   0  0  0  0  0
    5.3481   20.1176   69.0795 C   0  0  0  0  0
    4.5131   19.4384   70.1688 C   0  0  0  0  0
    3.0511   19.2484   69.7496 C   0  0  0  0  0
    2.2893   20.5354   69.6500 C   0  0  0  0  0
    1.0321   22.1812   68.1956 C   0  0  0  0  0
    1.0052   22.5479   66.7132 C   0  0  0  0  0
   -0.4441   22.4177   66.2256 C   0  0  0  0  0
   -0.3912   21.9188   68.4947 C   0  0  0  0  0
    2.0878   17.2580   69.8554 C   0  0  0  0  0
    2.0675   21.2263   70.6817 O   0  0  0  0  0
   -0.8235   21.6215   69.6388 O   0  0  0  0  0
    2.4071   18.3748   70.6294 O   0  0  0  0  0
    4.6202   20.1098   71.3913 O   0  0  0  0  0
    5.1068   21.4947   69.0671 O   0  0  0  0  0
    7.5946   20.5797   68.3619 O   0  0  0  0  0
    1.8141   20.9662   68.3737 N   0  0  0  0  0
   -1.2408   22.0435   67.3771 N   0  0  0  0  0
  1  2  1  0  0  0
  2  3  1  0  0  0
  2  4  1  0  0  0
  2  5  1  0  0  0
  7  6  1  0  0  0
  7  8  1  0  0  0
  7 22  1  0  0  0
  8  9  1  0  0  0
  8 21  1  0  0  0
  9 10  1  0  0  0
  9 20  1  0  0  0
 10 11  1  0  0  0
 10 19  1  0  0  0
 11 23  1  0  0  0
 12 23  1  0  0  0
 12 13  1  0  0  0
 12 15  1  0  0  0
 13 14  1  0  0  0
 14 24  1  0  0  0
 16 19  1  0  0  0
 24 15  1  0  0  0
  5  6  2  0  0  0
 11 17  2  0  0  0
 15 18  2  0  0  0
M  END
> <rmsd>
0.819666088

$$$$
PubChem-25722492 ZINC13134902


 29 31  0  0  0  0  0  0  0  0999 V2000
    0.0612   19.2924   66.8427 C   0  0  0  0  0
   -0.0804   20.0582   68.1436 C   0  0  0  0  0
    1.1612   19.9056   68.9611 C   0  0  0  0  0
    4.8212   20.8008   68.7630 C   0  0  0  0  0
    6.0392   20.6620   69.5728 C   0  0  0  0  0
    6.1579   20.0678   70.8108 C   0  0  0  0  0
    7.4807   20.1737   71.1783 C   0  0  0  0  0
    9.5029   21.1464   70.1222 C   0  0  0  0  0
   10.0346   21.8197   69.0117 C   0  0  0  0  0
   11.3938   22.1418   68.9635 C   0  0  0  0  0
   12.2327   21.7936   70.0253 C   0  0  0  0  0
   11.7131   21.1232   71.1356 C   0  0  0  0  0
   10.3539   20.8008   71.1844 C   0  0  0  0  0
   -0.7524   22.4001   68.8495 C   0  0  0  0  0
   -0.9394   23.8109   68.4971 C   0  0  0  0  0
   -0.7367   24.3578   67.2478 C   0  0  0  0  0
   -1.0340   25.7012   67.3979 C   0  0  0  0  0
   -1.3959   25.8811   68.7222 C   0  0  0  0  0
    1.0991   19.3311   70.0802 O   0  0  0  0  0
    4.8785   21.3752   67.6426 O   0  0  0  0  0
    5.1470   19.4731   71.5552 O   0  0  0  0  0
   -0.9694   22.0184   70.0310 O   0  0  0  0  0
   -1.3266   24.7294   69.3450 O   0  0  0  0  0
    2.4064   20.4138   68.4809 N   0  0  0  0  0
    3.5769   20.2894   69.2397 N   0  0  0  0  0
    8.1058   20.8176   70.1667 N   0  0  0  0  0
    7.2490   21.1153   69.1978 N   0  0  0  0  0
   -0.3291   21.4639   67.8536 N   0  0  0  0  0
   13.9345   22.1973   69.9645 Cl  0  0  0  0  0
  2  1  1  0  0  0
  2  3  1  0  0  0
  2 28  1  0  0  0
  3 24  1  0  0  0
  4  5  1  0  0  0
  5  6  1  0  0  0
  6 21  1  0  0  0
  7 26  1  0  0  0
  9 10  1  0  0  0
 11 12  1  0  0  0
 11 29  1  0  0  0
 13  8  1  0  0  0
 14 15  1  0  0  0
 15 23  1  0  0  0
 16 17  1  0  0  0
 18 23  1  0  0  0
 24 25  1  0  0  0
 25  4  1  0  0  0
 26 27  1  0  0  0
 26  8  1  0  0  0
 28 14  1  0  0  0
  3 19  2  0  0  0
  4 20  2  0  0  0
  5 27  2  0  0  0
  6  7  2  0  0  0
  8  9  2  0  0  0
 10 11  2  0  0  0
 12 13  2  0  0  0
 14 22  2  0  0  0
 15 16  2  0  0  0
 17 18  2  0  0  0
M  END
> <rmsd>
0.837064981

$$$$
PubChem-286022 NSC143699


 25 26  0  0  0  0  0  0  0  0999 V2000
   -2.2430   19.7951   67.5795 C   0  0  0  0  0
   -0.8145   20.3055   67.5317 C   0  0  0  0  0
   -0.0887   20.0503   68.8549 C   0  0  0  0  0
   -0.6733   20.8235   70.0023 C   0  0  0  0  0
    2.3223   19.8919   69.6360 C   0  0  0  0  0
    3.7414   20.2708   69.4375 C   0  0  0  0  0
    4.0839   21.0694   68.3411 C   0  0  0  0  0
    6.3601   21.0401   68.9698 C   0  0  0  0  0
    4.7832   19.8702   70.3002 C   0  0  0  0  0
    8.7496   21.0534   69.5646 C   0  0  0  0  0
   10.0215   21.6235   69.0458 C   0  0  0  0  0
   10.4376   22.8944   69.4568 C   0  0  0  0  0
   11.6211   23.4407   68.9503 C   0  0  0  0  0
   12.3858   22.7192   68.0283 C   0  0  0  0  0
   11.9659   21.4524   67.6105 C   0  0  0  0  0
   10.7825   20.9059   68.1168 C   0  0  0  0  0
   -0.6026   22.0808   70.0336 O   0  0  0  0  0
   -1.2867   20.1427   71.0448 O   0  0  0  0  0
    1.9775   19.1707   70.6114 O   0  0  0  0  0
    7.6738   21.4364   68.7196 O   0  0  0  0  0
   -0.8020   21.6614   67.1968 O   0  0  0  0  0
    1.3312   20.3459   68.7072 N   0  0  0  0  0
    5.3728   21.4364   68.1278 N   0  0  0  0  0
    6.0584   20.2633   70.0450 N   0  0  0  0  0
    4.5315   19.0572   71.4429 N   0  0  0  0  0
  2  1  1  0  0  0
  2  3  1  0  0  0
  2 21  1  0  0  0
  3  4  1  0  0  0
  3 22  1  0  0  0
  4 18  1  0  0  0
  5  6  1  0  0  0
  7 23  1  0  0  0
  8 24  1  0  0  0
  8 20  1  0  0  0
  9 25  1  0  0  0
  9  6  1  0  0  0
 10 20  1  0  0  0
 10 11  1  0  0  0
 12 13  1  0  0  0
 14 15  1  0  0  0
 16 11  1  0  0  0
 22  5  1  0  0  0
  4 17  2  0  0  0
  5 19  2  0  0  0
  6  7  2  0  0  0
  8 23  2  0  0  0
  9 24  2  0  0  0
 11 12  2  0  0  0
 13 14  2  0  0  0
 15 16  2  0  0  0
M  END
> <rmsd>
0.450362831

$$$$
PubChem-76401831


 25 27  0  0  0  0  0  0  0  0999 V2000
    3.6923   16.0453   69.4828 C   0  0  0  0  0
    4.2143   16.8872   68.3347 C   0  0  0  0  0
    5.6307   17.3748   68.6255 C   0  0  0  0  0
    5.6758   18.6542   69.4642 C   0  0  0  0  0
    4.9251   19.7853   68.8086 C   0  0  0  0  0
    4.0783   20.3468   69.9232 C   0  0  0  0  0
    2.6241   20.1283   69.6249 C   0  0  0  0  0
    0.6363   20.6247   68.1413 C   0  0  0  0  0
    0.3851   21.2364   66.7909 C   0  0  0  0  0
   -0.7815   22.1585   67.0314 C   0  0  0  0  0
   -1.8403   21.9671   65.9808 C   0  0  0  0  0
   -3.0771   21.3763   66.2779 C   0  0  0  0  0
   -4.0299   21.2270   65.2680 C   0  0  0  0  0
   -2.5686   22.2333   63.6919 C   0  0  0  0  0
   -1.5897   22.4006   64.6740 C   0  0  0  0  0
    4.4775   19.6629   71.1506 N   0  0  0  0  0
    5.0852   18.4481   70.7785 N   0  0  0  0  0
    2.0396   20.7768   68.4930 N   0  0  0  0  0
   -1.2783   21.8716   68.3715 N   0  0  0  0  0
   -0.1952   21.3436   69.0962 N   0  0  0  0  0
   -3.7583   21.6545   64.0060 N   0  0  0  0  0
    5.8497   20.7923   68.3034 N   0  0  0  0  0
    1.9206   19.3847   70.3630 O   0  0  0  0  0
    6.6656   21.3549   69.0635 O   0  0  0  0  0
    5.8186   21.1287   66.9713 O   0  0  0  0  0
  1  2  1  0  0  0
  2  3  1  0  0  0
  4  3  1  0  0  0
  4  5  1  0  0  0
  4 17  1  0  0  0
  5  6  1  0  0  0
  5 22  1  0  0  0
  6 16  1  0  0  0
  6  7  1  0  0  0
  7 18  1  0  0  0
  8 18  1  0  0  0
  8  9  1  0  0  0
  8 20  1  0  0  0
  9 10  1  0  0  0
 10 19  1  0  0  0
 10 11  1  0  0  0
 12 13  1  0  0  0
 14 21  1  0  0  0
 15 11  1  0  0  0
 16 17  1  0  0  0
 19 20  1  0  0  0
 22 25  1  0  0  0
  7 23  2  0  0  0
 11 12  2  0  0  0
 13 21  2  0  0  0
 14 15  2  0  0  0
 22 24  2  0  0  0
M  CHG  2  22   1  25  -1
M  END
> <rmsd>
0.802533388

$$$$
PubChem-156590782


 27 29  0  0  0  0  0  0  0  0999 V2000
   -4.2494   23.6325   66.6793 C   0  0  0  0  0
   -3.4909   23.8334   67.9868 C   0  0  0  0  0
   -2.0036   24.0446   67.7062 C   0  0  0  0  0
   -1.4113   22.8683   66.9201 C   0  0  0  0  0
   -2.2086   22.6218   65.6370 C   0  0  0  0  0
   -3.6947   22.4230   65.9341 C   0  0  0  0  0
   -0.5320   21.5138   68.8768 C   0  0  0  0  0
   -0.5654   20.2511   69.6652 C   0  0  0  0  0
    1.9065   19.4440   69.3082 C   0  0  0  0  0
    3.6795   19.3597   70.9255 C   0  0  0  0  0
    4.5507   20.2482   70.1329 C   0  0  0  0  0
    6.8100   21.2184   69.8934 C   0  0  0  0  0
    7.7698   21.9959   70.6847 C   0  0  0  0  0
    7.7389   22.1591   72.0608 C   0  0  0  0  0
    8.7865   22.9617   72.5357 C   0  0  0  0  0
    9.6447   23.4351   71.5454 C   0  0  0  0  0
    3.9435   20.8266   68.9108 C   0  0  0  0  0
   -1.3778   21.6580   67.7338 N   0  0  0  0  0
    2.3872   18.9894   70.4275 N   0  0  0  0  0
    4.0905   18.8680   72.0481 N   0  0  0  0  0
    5.7589   20.5035   70.5586 N   0  0  0  0  0
    2.6514   20.3702   68.5079 N   0  0  0  0  0
    0.2582   22.4362   69.2117 O   0  0  0  0  0
    6.9760   21.1076   68.6489 O   0  0  0  0  0
    4.4936   21.7541   68.2628 O   0  0  0  0  0
    0.2859   18.9177   68.7653 S   0  0  0  0  0
    9.0828   22.8423   70.0747 S   0  0  0  0  0
  1  2  1  0  0  0
  2  3  1  0  0  0
  3  4  1  0  0  0
  4  5  1  0  0  0
  4 18  1  0  0  0
  5  6  1  0  0  0
  6  1  1  0  0  0
  8  7  1  0  0  0
  8 26  1  0  0  0
  9 26  1  0  0  0
 10 19  1  0  0  0
 10 11  1  0  0  0
 11 17  1  0  0  0
 12 21  1  0  0  0
 12 13  1  0  0  0
 13 27  1  0  0  0
 14 15  1  0  0  0
 16 27  1  0  0  0
 17 22  1  0  0  0
 18  7  1  0  0  0
 22  9  1  0  0  0
  7 23  2  0  0  0
  9 19  2  0  0  0
 10 20  2  0  0  0
 11 21  2  0  0  0
 12 24  2  0  0  0
 13 14  2  0  0  0
 15 16  2  0  0  0
 17 25  2  0  0  0
M  END
> <rmsd>
0.782445908

$$$$
PubChem-156592961


 30 32  0  0  0  0  0  0  0  0999 V2000
   -4.4882   20.2084   64.3363 C   0  0  0  0  0
   -3.7700   21.5406   64.3004 C   0  0  0  0  0
   -2.1066   22.7654   65.6665 C   0  0  0  0  0
   -2.1179   23.8663   64.7933 C   0  0  0  0  0
   -1.3131   24.9789   65.0459 C   0  0  0  0  0
   -0.4900   25.0015   66.1724 C   0  0  0  0  0
   -0.4729   23.9117   67.0453 C   0  0  0  0  0
   -1.2788   22.7884   66.8020 C   0  0  0  0  0
   -0.5053   21.5074   68.8871 C   0  0  0  0  0
   -0.5863   20.2331   69.6537 C   0  0  0  0  0
    1.8917   19.4336   69.3034 C   0  0  0  0  0
    3.6638   19.3686   70.9227 C   0  0  0  0  0
    4.5313   20.2561   70.1249 C   0  0  0  0  0
    6.7870   21.2345   69.8807 C   0  0  0  0  0
    7.7475   22.0171   70.6650 C   0  0  0  0  0
    7.7143   22.1874   72.0329 C   0  0  0  0  0
    8.8044   22.9920   72.3153 C   0  0  0  0  0
    9.4250   23.2567   71.1062 C   0  0  0  0  0
    3.9224   20.8234   68.8985 C   0  0  0  0  0
   -2.9071   21.6431   65.4248 O   0  0  0  0  0
    0.2468   22.4285   69.3015 O   0  0  0  0  0
    6.9538   21.1199   68.6370 O   0  0  0  0  0
    8.7639   22.6573   70.1456 O   0  0  0  0  0
    4.4684   21.7494   68.2449 O   0  0  0  0  0
   -1.2724   21.6561   67.6852 N   0  0  0  0  0
    2.3736   18.9889   70.4262 N   0  0  0  0  0
    4.0765   18.8858   72.0485 N   0  0  0  0  0
    5.7381   20.5197   70.5497 N   0  0  0  0  0
    2.6331   20.3576   68.4973 N   0  0  0  0  0
    0.2731   18.8979   68.7634 S   0  0  0  0  0
  1  2  1  0  0  0
  2 20  1  0  0  0
  3 20  1  0  0  0
  4  5  1  0  0  0
  6  7  1  0  0  0
  8 25  1  0  0  0
  8  3  1  0  0  0
 10  9  1  0  0  0
 10 30  1  0  0  0
 11 30  1  0  0  0
 12 26  1  0  0  0
 12 13  1  0  0  0
 13 19  1  0  0  0
 14 28  1  0  0  0
 14 15  1  0  0  0
 15 23  1  0  0  0
 16 17  1  0  0  0
 18 23  1  0  0  0
 19 29  1  0  0  0
 25  9  1  0  0  0
 29 11  1  0  0  0
  3  4  2  0  0  0
  5  6  2  0  0  0
  7  8  2  0  0  0
  9 21  2  0  0  0
 11 26  2  0  0  0
 12 27  2  0  0  0
 13 28  2  0  0  0
 14 22  2  0  0  0
 15 16  2  0  0  0
 17 18  2  0  0  0
 19 24  2  0  0  0
M  END
> <rmsd>
0.766248226

$$$$
PubChem-156592961


 30 32  0  0  0  0  0  0  0  0999 V2000
   -3.3551   20.3337   63.4620 C   0  0  0  0  0
   -3.7556   21.5366   64.2901 C   0  0  0  0  0
   -2.0988   22.7644   65.6629 C   0  0  0  0  0
   -2.1077   23.8648   64.7891 C   0  0  0  0  0
   -1.3034   24.9775   65.0432 C   0  0  0  0  0
   -0.4832   25.0005   66.1719 C   0  0  0  0  0
   -0.4685   23.9110   67.0453 C   0  0  0  0  0
   -1.2740   22.7877   66.8005 C   0  0  0  0  0
   -0.5050   21.5069   68.8873 C   0  0  0  0  0
   -0.5867   20.2325   69.6533 C   0  0  0  0  0
    1.8918   19.4336   69.3034 C   0  0  0  0  0
    3.6636   19.3691   70.9228 C   0  0  0  0  0
    4.5310   20.2568   70.1252 C   0  0  0  0  0
    6.7861   21.2350   69.8812 C   0  0  0  0  0
    7.7414   22.0151   70.6745 C   0  0  0  0  0
    8.8220   22.7101   70.1733 C   0  0  0  0  0
    9.4192   23.2824   71.2830 C   0  0  0  0  0
    8.6658   22.8995   72.3798 C   0  0  0  0  0
    3.9219   20.8241   68.8987 C   0  0  0  0  0
   -2.8989   21.6419   65.4192 O   0  0  0  0  0
    0.2457   22.4285   69.3036 O   0  0  0  0  0
    6.9529   21.1207   68.6368 O   0  0  0  0  0
    7.6736   22.1442   71.9748 O   0  0  0  0  0
    4.4676   21.7504   68.2454 O   0  0  0  0  0
   -1.2696   21.6556   67.6839 N   0  0  0  0  0
    2.3736   18.9890   70.4262 N   0  0  0  0  0
    4.0763   18.8864   72.0488 N   0  0  0  0  0
    5.7378   20.5205   70.5500 N   0  0  0  0  0
    2.6329   20.3579   68.4975 N   0  0  0  0  0
    0.2733   18.8974   68.7632 S   0  0  0  0  0
  1  2  1  0  0  0
  2 20  1  0  0  0
  3 20  1  0  0  0
  4  5  1  0  0  0
  6  7  1  0  0  0
  8 25  1  0  0  0
  8  3  1  0  0  0
 10  9  1  0  0  0
 10 30  1  0  0  0
 11 30  1  0  0  0
 12 26  1  0  0  0
 12 13  1  0  0  0
 13 19  1  0  0  0
 14 28  1  0  0  0
 14 15  1  0  0  0
 15 23  1  0  0  0
 16 17  1  0  0  0
 18 23  1  0  0  0
 19 29  1  0  0  0
 25  9  1  0  0  0
 29 11  1  0  0  0
  3  4  2  0  0  0
  5  6  2  0  0  0
  7  8  2  0  0  0
  9 21  2  0  0  0
 11 26  2  0  0  0
 12 27  2  0  0  0
 13 28  2  0  0  0
 14 22  2  0  0  0
 15 16  2  0  0  0
 17 18  2  0  0  0
 19 24  2  0  0  0
M  END
> <rmsd>
0.766247451

$$$$
PubChem-58098806


 26 27  0  0  0  0  0  0  0  0999 V2000
   -1.2375   19.2524   68.4355 C   0  0  0  0  0
   -0.0782   20.1700   68.0985 C   0  0  0  0  0
   -0.4790   21.5963   68.3006 C   0  0  0  0  0
    2.3884   20.3243   68.6920 C   0  0  0  0  0
    3.8636   21.5810   67.3200 C   0  0  0  0  0
    4.7154   20.5213   69.2535 C   0  0  0  0  0
    3.4516   20.0099   69.5646 C   0  0  0  0  0
    3.2934   19.1760   70.7801 C   0  0  0  0  0
    5.2705   22.9929   65.6955 C   0  0  0  0  0
    6.4806   22.8416   66.3883 C   0  0  0  0  0
    7.6579   23.4415   65.9178 C   0  0  0  0  0
    7.6162   24.1981   64.7427 C   0  0  0  0  0
    6.4153   24.3544   64.0458 C   0  0  0  0  0
    5.2472   23.7531   64.5221 C   0  0  0  0  0
    9.1425   22.5713   67.8170 C   0  0  0  0  0
   10.5122   22.5368   68.3916 C   0  0  0  0  0
   -0.8013   22.0159   69.4439 O   0  0  0  0  0
    2.1730   18.6993   71.1010 O   0  0  0  0  0
    8.2119   21.9578   68.4028 O   0  0  0  0  0
   -0.4891   22.4881   67.1925 N   0  0  0  0  0
    1.0645   19.8370   68.9390 N   0  0  0  0  0
    2.6263   21.0975   67.5972 N   0  0  0  0  0
    4.8983   21.2891   68.1503 N   0  0  0  0  0
    4.4195   18.9011   71.6094 N   0  0  0  0  0
    4.0505   22.3920   66.1522 N   0  0  0  0  0
    8.9081   23.3027   66.6069 N   0  0  0  0  0
  2  1  1  0  0  0
  2  3  1  0  0  0
  2 21  1  0  0  0
  3 20  1  0  0  0
  5 22  1  0  0  0
  5 25  1  0  0  0
  6 23  1  0  0  0
  7  8  1  0  0  0
  7  4  1  0  0  0
  8 24  1  0  0  0
 10 11  1  0  0  0
 11 26  1  0  0  0
 12 13  1  0  0  0
 14  9  1  0  0  0
 16 15  1  0  0  0
 21  4  1  0  0  0
 25  9  1  0  0  0
 26 15  1  0  0  0
  3 17  2  0  0  0
  4 22  2  0  0  0
  5 23  2  0  0  0
  6  7  2  0  0  0
  8 18  2  0  0  0
  9 10  2  0  0  0
 11 12  2  0  0  0
 13 14  2  0  0  0
 15 19  2  0  0  0
M  END
> <rmsd>
0.765161991

$$$$
PubChem-137315464


 23 23  0  0  0  0  0  0  0  0999 V2000
    2.1329   18.5091   75.1252 C   0  0  0  0  0
    3.1295   19.1980   74.2175 C   0  0  0  0  0
    4.0447   18.1621   73.5931 C   0  0  0  0  0
    5.0418   18.8314   72.6656 C   0  0  0  0  0
    4.9459   20.0029   70.3494 C   0  0  0  0  0
    6.3386   20.2270   70.2228 C   0  0  0  0  0
    6.8208   20.9238   69.1055 C   0  0  0  0  0
    4.0962   20.4865   69.3280 C   0  0  0  0  0
    2.6234   20.3112   69.3429 C   0  0  0  0  0
    0.4141   20.9813   68.2631 C   0  0  0  0  0
   -1.4877   20.0619   69.6289 C   0  0  0  0  0
    6.4252   22.0992   66.9936 C   0  0  0  0  0
    7.3265   19.7349   71.2337 C   0  0  0  0  0
    4.3638   19.3097   71.4701 N   0  0  0  0  0
    5.9483   21.3721   68.1602 N   0  0  0  0  0
    4.6399   21.1550   68.2770 N   0  0  0  0  0
    1.8438   20.8879   68.2872 N   0  0  0  0  0
   -0.1701   21.1796   67.1204 N   0  0  0  0  0
   -1.5542   21.3575   67.0029 N   0  0  0  0  0
   -0.3420   20.9446   69.4843 N   0  0  0  0  0
    0.0670   21.7103   70.5833 N   0  0  0  0  0
    8.0598   21.1341   68.9760 O   0  0  0  0  0
    2.0580   19.6343   70.2436 O   0  0  0  0  0
  1  2  1  0  0  0
  2  3  1  0  0  0
  3  4  1  0  0  0
  4 14  1  0  0  0
  6  7  1  0  0  0
  7 15  1  0  0  0
  8  9  1  0  0  0
  8  5  1  0  0  0
  9 17  1  0  0  0
 10 20  1  0  0  0
 11 20  1  0  0  0
 12 15  1  0  0  0
 13  6  1  0  0  0
 14  5  1  0  0  0
 15 16  1  0  0  0
 17 10  1  0  0  0
 19 18  1  0  0  0
 20 21  1  0  0  0
  5  6  2  0  0  0
  7 22  2  0  0  0
  8 16  2  0  0  0
  9 23  2  0  0  0
 10 18  2  0  0  0
M  END
> <rmsd>
0.843057036

$$$$
PubChem-137315464


 23 23  0  0  0  0  0  0  0  0999 V2000
    5.4717   16.2176   74.3810 C   0  0  0  0  0
    4.7527   17.5001   74.7557 C   0  0  0  0  0
    4.0528   18.0892   73.5442 C   0  0  0  0  0
    5.0595   18.7458   72.6190 C   0  0  0  0  0
    4.9483   19.9967   70.3472 C   0  0  0  0  0
    6.3411   20.2223   70.2193 C   0  0  0  0  0
    6.8213   20.9239   69.1040 C   0  0  0  0  0
    4.0966   20.4886   69.3312 C   0  0  0  0  0
    2.6238   20.3144   69.3473 C   0  0  0  0  0
    0.4147   20.9800   68.2634 C   0  0  0  0  0
   -1.4883   20.0651   69.6308 C   0  0  0  0  0
    6.4220   22.1084   66.9980 C   0  0  0  0  0
    7.3309   19.7355   71.2311 C   0  0  0  0  0
    4.3684   19.2953   71.4643 N   0  0  0  0  0
    5.9472   21.3767   68.1626 N   0  0  0  0  0
    4.6388   21.1611   68.2820 N   0  0  0  0  0
    1.8444   20.8871   68.2893 N   0  0  0  0  0
   -0.1685   21.1737   67.1194 N   0  0  0  0  0
   -1.5525   21.3508   66.9998 N   0  0  0  0  0
   -0.3426   20.9475   69.4839 N   0  0  0  0  0
    0.0644   21.7184   70.5800 N   0  0  0  0  0
    8.0600   21.1351   68.9733 O   0  0  0  0  0
    2.0580   19.6419   70.2511 O   0  0  0  0  0
  1  2  1  0  0  0
  2  3  1  0  0  0
  3  4  1  0  0  0
  4 14  1  0  0  0
  6  7  1  0  0  0
  7 15  1  0  0  0
  8  9  1  0  0  0
  8  5  1  0  0  0
  9 17  1  0  0  0
 10 20  1  0  0  0
 11 20  1  0  0  0
 12 15  1  0  0  0
 13  6  1  0  0  0
 14  5  1  0  0  0
 15 16  1  0  0  0
 17 10  1  0  0  0
 19 18  1  0  0  0
 20 21  1  0  0  0
  5  6  2  0  0  0
  7 22  2  0  0  0
  8 16  2  0  0  0
  9 23  2  0  0  0
 10 18  2  0  0  0
M  END
> <rmsd>
0.84313482

$$$$
PubChem-162845656


 26 28  0  0  0  0  0  0  0  0999 V2000
    0.6420   20.1811   66.3300 C   0  0  0  0  0
    0.4834   19.3303   67.5847 C   0  0  0  0  0
    0.3060   20.2022   68.8340 C   0  0  0  0  0
   -0.6611   21.3288   68.5994 C   0  0  0  0  0
   -0.6488   20.9531   66.0981 C   0  0  0  0  0
    2.6270   19.9404   69.8175 C   0  0  0  0  0
    3.9308   20.5776   70.1771 C   0  0  0  0  0
    4.1513   20.6138   71.6963 C   0  0  0  0  0
    5.8085   18.9583   71.5874 C   0  0  0  0  0
    5.6255   18.7743   70.0825 C   0  0  0  0  0
    6.9706   21.8415   70.5331 C   0  0  0  0  0
    8.1094   21.2701   71.1134 C   0  0  0  0  0
    8.6629   21.8278   72.2696 C   0  0  0  0  0
    8.0811   22.9603   72.8467 C   0  0  0  0  0
    6.9481   23.5375   72.2659 C   0  0  0  0  0
    6.3945   22.9797   71.1098 C   0  0  0  0  0
   -1.1425   21.9485   69.5834 O   0  0  0  0  0
    2.4427   18.7085   70.0157 O   0  0  0  0  0
    7.3677   20.4915   68.2759 O   0  0  0  0  0
    5.6745   22.2417   68.2475 O   0  0  0  0  0
   -0.9839   21.7541   67.2708 N   0  0  0  0  0
    1.5911   20.7464   69.2536 N   0  0  0  0  0
    4.5318   19.2991   72.1954 N   0  0  0  0  0
    5.0439   19.9608   69.4329 N   0  0  0  0  0
    6.2742   21.1412   69.0778 S   0  0  0  0  0
    8.6170   23.5003   73.9673 F   0  0  0  0  0
  1  2  1  0  0  0
  2  3  1  0  0  0
  3  4  1  0  0  0
  3 22  1  0  0  0
  4 21  1  0  0  0
  5 21  1  0  0  0
  5  1  1  0  0  0
  7  6  1  0  0  0
  7  8  1  0  0  0
  7 24  1  0  0  0
  8 23  1  0  0  0
  9 23  1  0  0  0
  9 10  1  0  0  0
 10 24  1  0  0  0
 12 13  1  0  0  0
 14 15  1  0  0  0
 14 26  1  0  0  0
 16 11  1  0  0  0
 22  6  1  0  0  0
 25 24  1  0  0  0
 25 11  1  0  0  0
  4 17  2  0  0  0
  6 18  2  0  0  0
 11 12  2  0  0  0
 13 14  2  0  0  0
 15 16  2  0  0  0
 25 19  2  0  0  0
 25 20  2  0  0  0
M  END
> <rmsd>
0.843653977

$$$$
PubChem-162453741


 27 31  0  0  0  0  0  0  0  0999 V2000
    2.7910   21.6024   71.2118 C   0  0  0  0  0
    1.6357   22.1656   70.3953 C   0  0  0  0  0
    1.1840   21.1589   69.3166 C   0  0  0  0  0
    2.3925   20.2469   71.8171 C   0  0  0  0  0
    3.5911   19.3273   72.0851 C   0  0  0  0  0
    5.1048   19.7872   70.2839 C   0  0  0  0  0
    5.5797   19.3477   68.9121 C   0  0  0  0  0
    6.6460   20.3006   68.3596 C   0  0  0  0  0
    7.6743   20.7687   69.3650 C   0  0  0  0  0
    6.3218   19.9605   71.1751 C   0  0  0  0  0
    5.8697   20.2089   72.5800 C   0  0  0  0  0
    7.1332   22.4083   67.9518 C   0  0  0  0  0
   -0.6344   20.3050   68.0462 C   0  0  0  0  0
   -1.5995   21.0172   67.1320 C   0  0  0  0  0
   -0.5706   22.5475   68.5201 C   0  0  0  0  0
    1.5858   19.7821   69.6613 N   0  0  0  0  0
    1.3546   19.5589   71.0344 N   0  0  0  0  0
    4.1968   18.7985   70.8524 N   0  0  0  0  0
    7.0879   21.0954   70.6737 N   0  0  0  0  0
   -0.2654   21.2422   69.0957 N   0  0  0  0  0
   -1.6533   22.4012   67.5603 N   0  0  0  0  0
    6.6907   20.6165   73.4430 O   0  0  0  0  0
    4.5467   19.9509   72.9541 O   0  0  0  0  0
    8.1646   21.9438   68.8019 O   0  0  0  0  0
    6.0964   21.4598   67.8327 O   0  0  0  0  0
    6.6144   23.5802   68.4699 F   0  0  0  0  0
    7.6583   22.6686   66.6996 F   0  0  0  0  0
  1  2  1  0  0  0
  2  3  1  0  0  0
  3 16  1  0  0  0
  3 20  1  0  0  0
  4 17  1  0  0  0
  4  5  1  0  0  0
  4  1  1  0  0  0
  5 18  1  0  0  0
  5 23  1  0  0  0
  6 18  1  0  0  0
  6  7  1  0  0  0
  7  8  1  0  0  0
  8  9  1  0  0  0
  8 25  1  0  0  0
  9 19  1  0  0  0
  9 24  1  0  0  0
 10 19  1  0  0  0
 10 11  1  0  0  0
 10  6  1  0  0  0
 11 23  1  0  0  0
 12 24  1  0  0  0
 12 25  1  0  0  0
 12 26  1  0  0  0
 12 27  1  0  0  0
 13 20  1  0  0  0
 13 14  1  0  0  0
 14 21  1  0  0  0
 15 21  1  0  0  0
 15 20  1  0  0  0
 16 17  1  0  0  0
 11 22  2  0  0  0
M  END
> <rmsd>
0.891047835

$$$$
