PubChem-73329568


 30 32  0  0  0  0  0  0  0  0999 V2000
   -6.3855   19.9380   66.7125 C   0  0  0  0  0
   -4.9909   20.4192   68.6977 C   0  0  0  0  0
   -4.8850   20.4490   70.0917 C   0  0  0  0  0
   -3.6952   20.8569   70.6996 C   0  0  0  0  0
   -2.6046   21.2381   69.9143 C   0  0  0  0  0
   -2.6957   21.2150   68.5147 C   0  0  0  0  0
   -3.8901   20.8035   67.9143 C   0  0  0  0  0
   -0.3082   22.0527   68.1076 C   0  0  0  0  0
    0.7424   22.3548   67.0959 C   0  0  0  0  0
    2.3968   20.2065   67.3086 C   0  0  0  0  0
    4.3603   20.6477   68.5613 C   0  0  0  0  0
    3.7140   20.4580   69.9356 C   0  0  0  0  0
    2.3431   19.8594   69.8060 C   0  0  0  0  0
    5.0561   20.0198   72.0285 C   0  0  0  0  0
    5.8995   19.1124   72.8255 C   0  0  0  0  0
    6.3866   19.5127   74.0788 C   0  0  0  0  0
    7.1860   18.6503   74.8347 C   0  0  0  0  0
    7.5044   17.3815   74.3430 C   0  0  0  0  0
    7.0236   16.9748   73.0956 C   0  0  0  0  0
    6.2237   17.8370   72.3397 C   0  0  0  0  0
   -6.1936   20.0049   68.1191 O   0  0  0  0  0
   -0.0512   22.2222   69.3287 O   0  0  0  0  0
    1.7080   19.5068   70.8342 O   0  0  0  0  0
    4.7737   21.1685   72.4676 O   0  0  0  0  0
   -1.5959   21.5927   67.6758 N   0  0  0  0  0
    3.4026   21.2226   67.6225 N   0  0  0  0  0
    1.7338   19.7284   68.5198 N   0  0  0  0  0
    4.5554   19.5992   70.7566 N   0  0  0  0  0
    5.5092   21.5284   68.6775 N   0  0  0  0  0
    1.1671   20.8648   66.1301 S   0  0  0  0  0
  1 21  1  0  0  0
  2 21  1  0  0  0
  3  4  1  0  0  0
  5  6  1  0  0  0
  6 25  1  0  0  0
  7  2  1  0  0  0
  9  8  1  0  0  0
  9 30  1  0  0  0
 10 30  1  0  0  0
 10 26  1  0  0  0
 10 27  1  0  0  0
 11 26  1  0  0  0
 11 12  1  0  0  0
 11 29  1  0  0  0
 12 13  1  0  0  0
 12 28  1  0  0  0
 13 27  1  0  0  0
 14 15  1  0  0  0
 16 17  1  0  0  0
 18 19  1  0  0  0
 20 15  1  0  0  0
 25  8  1  0  0  0
 28 14  1  0  0  0
  2  3  2  0  0  0
  4  5  2  0  0  0
  6  7  2  0  0  0
  8 22  2  0  0  0
 13 23  2  0  0  0
 14 24  2  0  0  0
 15 16  2  0  0  0
 17 18  2  0  0  0
 19 20  2  0  0  0
M  END
> <rmsd>
0.60502249

$$$$
PubChem-73329639


 31 33  0  0  0  0  0  0  0  0999 V2000
   -5.7943   23.5760   65.7956 C   0  0  0  0  0
   -6.0954   22.5843   64.8589 C   0  0  0  0  0
   -5.4242   21.3596   64.8982 C   0  0  0  0  0
   -4.4510   21.1195   65.8739 C   0  0  0  0  0
   -4.1518   22.1161   66.8219 C   0  0  0  0  0
   -4.8232   23.3427   66.7730 C   0  0  0  0  0
   -3.1049   21.9090   67.8642 C   0  0  0  0  0
   -0.5970   22.0323   68.0644 C   0  0  0  0  0
    0.7211   22.2919   67.4244 C   0  0  0  0  0
    2.4173   20.1962   67.4578 C   0  0  0  0  0
    4.4532   20.5715   68.6118 C   0  0  0  0  0
    3.8638   20.4429   70.0179 C   0  0  0  0  0
    2.4638   19.9025   69.9640 C   0  0  0  0  0
    5.2840   19.9971   72.0568 C   0  0  0  0  0
    6.1340   19.0775   72.8324 C   0  0  0  0  0
    6.7155   19.4950   74.0389 C   0  0  0  0  0
    7.5261   18.6235   74.7719 C   0  0  0  0  0
    7.7600   17.3275   74.3043 C   0  0  0  0  0
    7.1847   16.9032   73.1036 C   0  0  0  0  0
    6.3747   17.7753   72.3701 C   0  0  0  0  0
   -1.7944   22.1995   67.3062 N   0  0  0  0  0
    3.4797   21.1718   67.7061 N   0  0  0  0  0
    1.7923   19.7684   68.7088 N   0  0  0  0  0
    4.7043   19.5672   70.8219 N   0  0  0  0  0
    5.6465   21.3983   68.6546 N   0  0  0  0  0
   -0.6444   21.6441   69.2622 O   0  0  0  0  0
    1.8628   19.5970   71.0275 O   0  0  0  0  0
    5.0673   21.1656   72.4808 O   0  0  0  0  0
    1.1668   20.9019   66.3329 S   0  0  0  0  0
    8.5468   16.4835   75.0136 F   0  0  0  0  0
   -3.6285   19.5667   65.8798 Cl  0  0  0  0  0
  2  3  1  0  0  0
  4  5  1  0  0  0
  4 31  1  0  0  0
  6  1  1  0  0  0
  7  5  1  0  0  0
  7 21  1  0  0  0
  9  8  1  0  0  0
  9 29  1  0  0  0
 10 29  1  0  0  0
 10 22  1  0  0  0
 10 23  1  0  0  0
 11 22  1  0  0  0
 11 12  1  0  0  0
 11 25  1  0  0  0
 12 13  1  0  0  0
 12 24  1  0  0  0
 13 23  1  0  0  0
 14 15  1  0  0  0
 16 17  1  0  0  0
 18 19  1  0  0  0
 18 30  1  0  0  0
 20 15  1  0  0  0
 21  8  1  0  0  0
 24 14  1  0  0  0
  1  2  2  0  0  0
  3  4  2  0  0  0
  5  6  2  0  0  0
  8 26  2  0  0  0
 13 27  2  0  0  0
 14 28  2  0  0  0
 15 16  2  0  0  0
 17 18  2  0  0  0
 19 20  2  0  0  0
M  END
> <rmsd>
0.737639904

$$$$
PubChem-135701331


 27 28  0  0  0  0  0  0  0  0999 V2000
    8.6027   22.8041   68.1741 C   0  0  0  0  0
    7.8723   21.9278   69.1789 C   0  0  0  0  0
    6.4461   21.6756   68.7966 C   0  0  0  0  0
    4.2682   20.5111   69.4488 C   0  0  0  0  0
    3.5881   19.7106   70.3871 C   0  0  0  0  0
    2.2851   19.2976   70.0802 C   0  0  0  0  0
    2.3508   20.5130   68.0556 C   0  0  0  0  0
    0.9114   22.5739   67.3158 C   0  0  0  0  0
   -0.3334   22.2998   68.0879 C   0  0  0  0  0
    5.0005   20.0693   72.4766 C   0  0  0  0  0
    5.8028   19.4374   73.5381 C   0  0  0  0  0
    5.8113   18.0424   73.6844 C   0  0  0  0  0
    6.5744   17.4416   74.6898 C   0  0  0  0  0
    7.3349   18.2315   75.5561 C   0  0  0  0  0
    7.3329   19.6220   75.4171 C   0  0  0  0  0
    6.5698   20.2228   74.4116 C   0  0  0  0  0
    5.9627   22.1688   67.7406 O   0  0  0  0  0
    1.6502   18.5506   70.8711 O   0  0  0  0  0
   -0.3502   22.4807   69.3327 O   0  0  0  0  0
    4.9832   21.3258   72.3646 O   0  0  0  0  0
    5.6423   20.8646   69.6604 N   0  0  0  0  0
    1.6935   19.7109   68.9307 N   0  0  0  0  0
    3.6277   20.8945   68.3113 N   0  0  0  0  0
   -1.5071   21.8492   67.4210 N   0  0  0  0  0
    4.2062   19.2580   71.6015 N   0  0  0  0  0
    1.5433   21.0471   66.5523 S   0  0  0  0  0
    8.0742   17.6493   76.5302 F   0  0  0  0  0
  1  2  1  0  0  0
  2  3  1  0  0  0
  3 21  1  0  0  0
  4 23  1  0  0  0
  5  6  1  0  0  0
  5 25  1  0  0  0
  6 22  1  0  0  0
  7 26  1  0  0  0
  8 26  1  0  0  0
  8  9  1  0  0  0
  9 24  1  0  0  0
 10 11  1  0  0  0
 12 13  1  0  0  0
 14 15  1  0  0  0
 14 27  1  0  0  0
 16 11  1  0  0  0
 21  4  1  0  0  0
 22  7  1  0  0  0
 25 10  1  0  0  0
  3 17  2  0  0  0
  4  5  2  0  0  0
  6 18  2  0  0  0
  7 23  2  0  0  0
  9 19  2  0  0  0
 10 20  2  0  0  0
 11 12  2  0  0  0
 13 14  2  0  0  0
 15 16  2  0  0  0
M  END
> <rmsd>
0.543343365

$$$$
PubChem-46264421


 22 24  0  0  0  0  0  0  0  0999 V2000
    0.7250   19.5922   65.7324 C   0  0  0  0  0
   -0.7912   19.7432   65.8619 C   0  0  0  0  0
   -1.1893   21.2030   66.0056 C   0  0  0  0  0
   -0.1176   21.4155   68.3431 C   0  0  0  0  0
    1.0316   20.4671   68.0808 C   0  0  0  0  0
    1.5190   20.5318   66.6415 C   0  0  0  0  0
    2.5710   19.8398   69.9805 C   0  0  0  0  0
    3.6909   20.1706   70.8791 C   0  0  0  0  0
    4.7230   21.0775   70.6910 C   0  0  0  0  0
    4.8883   20.2351   72.6475 C   0  0  0  0  0
    5.0789   21.8403   69.4818 C   0  0  0  0  0
    6.3730   23.7398   68.4425 C   0  0  0  0  0
    7.8176   23.4220   68.1163 C   0  0  0  0  0
    7.4715   24.6960   68.8566 C   0  0  0  0  0
   -1.1952   21.5966   67.4108 N   0  0  0  0  0
    2.1475   20.7560   68.9700 N   0  0  0  0  0
    5.4695   21.1176   71.8089 N   0  0  0  0  0
    3.8038   19.6394   72.1095 N   0  0  0  0  0
    5.9596   22.9598   69.5971 N   0  0  0  0  0
   -0.1953   21.9898   69.4619 O   0  0  0  0  0
    1.9441   18.7592   70.1505 O   0  0  0  0  0
    4.6592   21.4851   68.3483 O   0  0  0  0  0
  1  2  1  0  0  0
  2  3  1  0  0  0
  3 15  1  0  0  0
  5  4  1  0  0  0
  5  6  1  0  0  0
  5 16  1  0  0  0
  6  1  1  0  0  0
  7  8  1  0  0  0
  9 17  1  0  0  0
  9 11  1  0  0  0
 10 18  1  0  0  0
 11 19  1  0  0  0
 12 19  1  0  0  0
 12 13  1  0  0  0
 13 14  1  0  0  0
 14 12  1  0  0  0
 15  4  1  0  0  0
 16  7  1  0  0  0
 18  8  1  0  0  0
  4 20  2  0  0  0
  7 21  2  0  0  0
  8  9  2  0  0  0
 10 17  2  0  0  0
 11 22  2  0  0  0
M  END
> <rmsd>
0.675355852

$$$$
PubChem-70832889


 28 30  0  0  0  0  0  0  0  0999 V2000
    7.3990   23.8816   71.4870 C   0  0  0  0  0
    7.7128   22.8262   70.4428 C   0  0  0  0  0
    6.0792   22.4047   68.5786 C   0  0  0  0  0
    4.5934   21.2381   69.5505 C   0  0  0  0  0
    3.5102   20.4551   69.9229 C   0  0  0  0  0
    4.4163   20.3913   72.1348 C   0  0  0  0  0
    5.5398   21.5584   70.4580 C   0  0  0  0  0
    1.3912   19.2307   69.2158 C   0  0  0  0  0
    0.4122   18.9714   68.1213 C   0  0  0  0  0
   -0.7068   20.0000   68.1495 C   0  0  0  0  0
   -0.2013   22.4039   68.6971 C   0  0  0  0  0
    0.4836   24.7218   69.2063 C   0  0  0  0  0
    1.6595   24.5530   70.1078 C   0  0  0  0  0
    1.5046   23.9470   71.3597 C   0  0  0  0  0
    2.6089   23.7861   72.2016 C   0  0  0  0  0
    3.8695   24.2299   71.7920 C   0  0  0  0  0
    4.0277   24.8276   70.5378 C   0  0  0  0  0
    2.9240   24.9858   69.6946 C   0  0  0  0  0
    6.4838   22.2993   69.8689 N   0  0  0  0  0
    4.9015   21.7571   68.3469 N   0  0  0  0  0
    3.4456   20.0471   71.2273 N   0  0  0  0  0
    5.4842   21.1541   71.7502 N   0  0  0  0  0
    2.5149   20.0815   68.9632 N   0  0  0  0  0
   -0.1900   21.3094   67.7817 N   0  0  0  0  0
    4.3243   20.0003   73.3268 O   0  0  0  0  0
    1.2002   18.7236   70.3531 O   0  0  0  0  0
   -0.7216   22.2708   69.8393 O   0  0  0  0  0
    0.3763   23.6166   68.3165 O   0  0  0  0  0
  1  2  1  0  0  0
  2 19  1  0  0  0
  4 20  1  0  0  0
  5 21  1  0  0  0
  5 23  1  0  0  0
  6 22  1  0  0  0
  7 19  1  0  0  0
  7  4  1  0  0  0
  9  8  1  0  0  0
  9 10  1  0  0  0
 10 24  1  0  0  0
 11 28  1  0  0  0
 12 28  1  0  0  0
 12 13  1  0  0  0
 14 15  1  0  0  0
 16 17  1  0  0  0
 18 13  1  0  0  0
 19  3  1  0  0  0
 21  6  1  0  0  0
 23  8  1  0  0  0
 24 11  1  0  0  0
  3 20  2  0  0  0
  4  5  2  0  0  0
  6 25  2  0  0  0
  7 22  2  0  0  0
  8 26  2  0  0  0
 11 27  2  0  0  0
 13 14  2  0  0  0
 15 16  2  0  0  0
 17 18  2  0  0  0
M  END
> <rmsd>
0.78908813

$$$$
PubChem-15971605


 33 35  0  0  0  0  0  0  0  0999 V2000
   -1.9474   23.5565   68.7357 C   0  0  0  0  0
   -0.9975   22.4188   68.8369 C   0  0  0  0  0
    0.1572   20.4570   67.6694 C   0  0  0  0  0
   -0.3233   19.3673   68.6336 C   0  0  0  0  0
    0.4439   18.0908   68.4799 C   0  0  0  0  0
    1.1202   17.5220   69.5601 C   0  0  0  0  0
    1.8334   16.3675   69.4346 C   0  0  0  0  0
    1.9247   15.6738   68.2312 C   0  0  0  0  0
    1.2410   16.2116   67.1242 C   0  0  0  0  0
    0.5032   17.4110   67.2467 C   0  0  0  0  0
    1.9805   17.0353   71.4127 C   0  0  0  0  0
    2.3908   17.1064   72.8452 C   0  0  0  0  0
    3.8297   17.6048   72.9961 C   0  0  0  0  0
    4.0108   19.1091   72.7563 C   0  0  0  0  0
    3.9926   20.7268   70.7841 C   0  0  0  0  0
    3.6505   20.9727   69.3511 C   0  0  0  0  0
    1.5747   20.9091   67.8905 C   0  0  0  0  0
    4.5513   20.1411   68.4421 C   0  0  0  0  0
    5.9231   20.7221   68.3665 C   0  0  0  0  0
    3.1896   19.9409   73.6960 C   0  0  0  0  0
    3.1206   21.4978   75.5988 C   0  0  0  0  0
   -0.4153   22.1899   69.9302 O   0  0  0  0  0
    2.3675   16.0749   70.5896 O   0  0  0  0  0
    4.5239   21.6450   71.4637 O   0  0  0  0  0
    2.1588   21.5531   66.9783 O   0  0  0  0  0
    6.1024   21.8643   67.8684 O   0  0  0  0  0
    7.0078   19.9943   68.8363 O   0  0  0  0  0
    1.9337   19.9851   73.5774 O   0  0  0  0  0
    3.8363   20.6761   74.6890 O   0  0  0  0  0
   -0.7568   21.5959   67.6901 N   0  0  0  0  0
    1.1928   17.9731   70.8245 N   0  0  0  0  0
    3.7354   19.4457   71.3649 N   0  0  0  0  0
    2.2537   20.6285   69.1193 N   0  0  0  0  0
  1  2  1  0  0  0
  2 30  1  0  0  0
  3 30  1  0  0  0
  3  4  1  0  0  0
  3 17  1  0  0  0
  4  5  1  0  0  0
  5  6  1  0  0  0
  6 31  1  0  0  0
  7  8  1  0  0  0
  7 23  1  0  0  0
  9 10  1  0  0  0
 11 23  1  0  0  0
 12 11  1  0  0  0
 12 13  1  0  0  0
 13 14  1  0  0  0
 14 32  1  0  0  0
 14 20  1  0  0  0
 16 15  1  0  0  0
 16 33  1  0  0  0
 16 18  1  0  0  0
 18 19  1  0  0  0
 19 27  1  0  0  0
 20 29  1  0  0  0
 21 29  1  0  0  0
 32 15  1  0  0  0
 33 17  1  0  0  0
  2 22  2  0  0  0
  6  7  2  0  0  0
  8  9  2  0  0  0
 10  5  2  0  0  0
 11 31  2  0  0  0
 15 24  2  0  0  0
 17 25  2  0  0  0
 19 26  2  0  0  0
 20 28  2  0  0  0
M  END
> <rmsd>
0.665546358

$$$$
PubChem-53382059


 31 32  0  0  0  0  0  0  0  0999 V2000
    0.9019   19.7810   72.1087 C   0  0  0  0  0
    1.5354   17.7069   71.1831 C   0  0  0  0  0
    2.5057   19.6977   70.2851 C   0  0  0  0  0
    3.6349   19.9707   71.3096 C   0  0  0  0  0
    4.7402   20.8507   70.7228 C   0  0  0  0  0
    4.1216   22.0119   69.9339 C   0  0  0  0  0
    2.1561   20.9890   69.5277 C   0  0  0  0  0
   -0.1318   21.3451   68.5334 C   0  0  0  0  0
   -2.4069   21.5490   67.3701 C   0  0  0  0  0
   -2.9376   22.4740   68.2804 C   0  0  0  0  0
   -4.2457   22.9533   68.1334 C   0  0  0  0  0
   -5.0127   22.5264   67.0416 C   0  0  0  0  0
   -4.4898   21.6164   66.1134 C   0  0  0  0  0
   -3.1922   21.1195   66.2963 C   0  0  0  0  0
   -5.3404   21.1152   64.9827 C   0  0  0  0  0
   -4.7895   23.9763   69.0877 C   0  0  0  0  0
    5.1957   22.9146   69.3374 C   0  0  0  0  0
    1.2905   19.1064   70.8747 N   0  0  0  0  0
    1.1490   20.7161   68.5135 N   0  0  0  0  0
   -1.0786   21.0262   67.5061 N   0  0  0  0  0
    3.3032   21.5100   68.9080 O   0  0  0  0  0
   -0.4178   22.1661   69.4469 O   0  0  0  0  0
    5.9692   22.2133   68.4098 O   0  0  0  0  0
    5.5337   21.3448   71.7601 O   0  0  0  0  0
    4.1903   18.7691   71.7516 O   0  0  0  0  0
   -6.0381   19.9962   65.3973 F   0  0  0  0  0
   -6.2415   22.0890   64.5878 F   0  0  0  0  0
   -4.5508   20.7789   63.8966 F   0  0  0  0  0
   -6.1633   23.8489   69.2002 F   0  0  0  0  0
   -4.2275   23.8136   70.3423 F   0  0  0  0  0
   -4.4902   25.2420   68.6196 F   0  0  0  0  0
  1 18  1  0  0  0
  2 18  1  0  0  0
  3 18  1  0  0  0
  3  4  1  0  0  0
  4  5  1  0  0  0
  4 25  1  0  0  0
  5  6  1  0  0  0
  5 24  1  0  0  0
  6 21  1  0  0  0
  6 17  1  0  0  0
  7 21  1  0  0  0
  7 19  1  0  0  0
  7  3  1  0  0  0
  8 20  1  0  0  0
 10 11  1  0  0  0
 12 13  1  0  0  0
 14  9  1  0  0  0
 15 13  1  0  0  0
 15 26  1  0  0  0
 15 27  1  0  0  0
 15 28  1  0  0  0
 16 11  1  0  0  0
 16 29  1  0  0  0
 16 30  1  0  0  0
 16 31  1  0  0  0
 17 23  1  0  0  0
 19  8  1  0  0  0
 20  9  1  0  0  0
  8 22  2  0  0  0
  9 10  2  0  0  0
 11 12  2  0  0  0
 13 14  2  0  0  0
M  END
> <rmsd>
0.770093918

$$$$
PubChem-114133738


 18 19  0  0  0  0  0  0  0  0999 V2000
    0.3664   21.2711   66.1061 C   0  0  0  0  0
    0.1675   21.4145   67.5740 C   0  0  0  0  0
    0.8664   20.7600   68.5599 C   0  0  0  0  0
    0.3203   21.2283   69.7426 C   0  0  0  0  0
    0.6705   20.8419   71.1356 C   0  0  0  0  0
    3.7564   20.3166   70.4763 C   0  0  0  0  0
    4.2958   21.4818   69.9845 C   0  0  0  0  0
    4.8784   22.1045   71.0672 C   0  0  0  0  0
    4.3326   21.9473   68.5699 C   0  0  0  0  0
   -0.6515   22.1158   69.4532 N   0  0  0  0  0
   -0.7437   22.2309   68.1349 N   0  0  0  0  0
    1.9170   19.8096   68.3389 N   0  0  0  0  0
    4.6668   21.3276   72.1514 N   0  0  0  0  0
    3.9901   20.2446   71.7964 N   0  0  0  0  0
    2.9054   19.0822   69.5618 S   0  0  0  0  0
    3.9176   18.1886   68.9036 O   0  0  0  0  0
    2.0451   18.2544   70.4743 O   0  0  0  0  0
    5.4114   21.3596   67.9101 O   0  0  0  0  0
  1  2  1  0  0  0
  3  4  1  0  0  0
  3 12  1  0  0  0
  5  4  1  0  0  0
  7  8  1  0  0  0
  9  7  1  0  0  0
  9 18  1  0  0  0
 11 10  1  0  0  0
 11  2  1  0  0  0
 14 13  1  0  0  0
 14  6  1  0  0  0
 15 12  1  0  0  0
 15  6  1  0  0  0
  2  3  2  0  0  0
  4 10  2  0  0  0
  6  7  2  0  0  0
  8 13  2  0  0  0
 15 16  2  0  0  0
 15 17  2  0  0  0
M  END
> <rmsd>
0.595158279

$$$$
PubChem-73329717


 30 32  0  0  0  0  0  0  0  0999 V2000
   -3.9599   20.3374   66.8404 C   0  0  0  0  0
   -3.7914   20.7000   68.2768 C   0  0  0  0  0
   -4.8420   20.4437   69.1638 C   0  0  0  0  0
   -4.7174   20.7689   70.5164 C   0  0  0  0  0
   -3.5392   21.3507   70.9875 C   0  0  0  0  0
   -2.4863   21.6070   70.1057 C   0  0  0  0  0
   -2.5996   21.2848   68.7443 C   0  0  0  0  0
   -0.2279   22.0604   68.1412 C   0  0  0  0  0
    0.7462   22.3284   67.0465 C   0  0  0  0  0
    2.3760   20.1556   67.2616 C   0  0  0  0  0
    4.3559   20.6225   68.4882 C   0  0  0  0  0
    3.7200   20.4726   69.8708 C   0  0  0  0  0
    2.3572   19.8524   69.7681 C   0  0  0  0  0
    4.9523   20.0701   72.0364 C   0  0  0  0  0
    5.8692   19.2394   72.8360 C   0  0  0  0  0
    6.4077   18.0597   72.3003 C   0  0  0  0  0
    7.2778   17.2715   73.0592 C   0  0  0  0  0
    7.6149   17.6578   74.3595 C   0  0  0  0  0
    7.0825   18.8317   74.9012 C   0  0  0  0  0
    6.2137   19.6202   74.1417 C   0  0  0  0  0
   -1.5287   21.5474   67.8229 N   0  0  0  0  0
    3.3910   21.1738   67.5424 N   0  0  0  0  0
    1.7390   19.6849   68.4906 N   0  0  0  0  0
    4.5788   19.6591   70.7186 N   0  0  0  0  0
    5.5091   21.5009   68.5697 N   0  0  0  0  0
    0.1093   22.2925   69.3318 O   0  0  0  0  0
    1.7354   19.5136   70.8098 O   0  0  0  0  0
    4.4916   21.1430   72.5167 O   0  0  0  0  0
    1.1190   20.8064   66.1081 S   0  0  0  0  0
    8.7031   16.6701   75.3091 Cl  0  0  0  0  0
  1  2  1  0  0  0
  3  4  1  0  0  0
  5  6  1  0  0  0
  7 21  1  0  0  0
  7  2  1  0  0  0
  9  8  1  0  0  0
  9 29  1  0  0  0
 10 29  1  0  0  0
 10 22  1  0  0  0
 10 23  1  0  0  0
 11 22  1  0  0  0
 11 12  1  0  0  0
 11 25  1  0  0  0
 12 13  1  0  0  0
 12 24  1  0  0  0
 13 23  1  0  0  0
 14 15  1  0  0  0
 16 17  1  0  0  0
 18 19  1  0  0  0
 18 30  1  0  0  0
 20 15  1  0  0  0
 21  8  1  0  0  0
 24 14  1  0  0  0
  2  3  2  0  0  0
  4  5  2  0  0  0
  6  7  2  0  0  0
  8 26  2  0  0  0
 13 27  2  0  0  0
 14 28  2  0  0  0
 15 16  2  0  0  0
 17 18  2  0  0  0
 19 20  2  0  0  0
M  END
> <rmsd>
0.631451964

$$$$
PubChem-73329571


 31 34  0  0  0  0  0  0  0  0999 V2000
    1.2162   21.0281   66.2222 S   0  0  0  0  0
    2.4299   20.2928   67.3694 C   0  0  0  0  0
    4.4115   20.6420   68.6203 C   0  0  0  0  0
    3.7667   20.4592   69.9956 C   0  0  0  0  0
    5.1939   19.9850   72.0232 C   0  0  0  0  0
    6.0102   19.0393   72.8041 C   0  0  0  0  0
    6.1646   17.7137   72.3731 C   0  0  0  0  0
    6.9392   16.8153   73.1129 C   0  0  0  0  0
    7.5657   17.2361   74.2889 C   0  0  0  0  0
    7.4177   18.5554   74.7256 C   0  0  0  0  0
    6.6427   19.4537   73.9860 C   0  0  0  0  0
    2.3783   19.9033   69.8621 C   0  0  0  0  0
    0.7413   22.4058   67.3195 C   0  0  0  0  0
   -0.4616   22.0448   68.1202 C   0  0  0  0  0
   -2.9184   21.3178   68.0581 C   0  0  0  0  0
   -4.0458   21.1219   67.2376 C   0  0  0  0  0
   -5.2198   20.6753   67.8379 C   0  0  0  0  0
   -7.3427   19.9710   68.2712 C   0  0  0  0  0
   -5.2995   20.4288   69.1696 C   0  0  0  0  0
   -4.2129   20.6074   70.0207 C   0  0  0  0  0
   -3.0095   21.0571   69.4485 C   0  0  0  0  0
    3.4705   21.2678   67.6979 N   0  0  0  0  0
    5.5950   21.4747   68.7402 N   0  0  0  0  0
    4.5838   19.5631   70.8008 N   0  0  0  0  0
    1.7618   19.8072   68.5759 N   0  0  0  0  0
   -1.6973   21.7607   67.4511 N   0  0  0  0  0
    5.0352   21.1685   72.4305 O   0  0  0  0  0
    1.7362   19.5553   70.8874 O   0  0  0  0  0
   -0.3774   22.0134   69.3763 O   0  0  0  0  0
   -6.4399   20.4122   67.2475 O   0  0  0  0  0
   -6.5733   19.9979   69.4820 O   0  0  0  0  0
  2  1  1  0  0  0
  2 22  1  0  0  0
  2 25  1  0  0  0
  3 22  1  0  0  0
  3 23  1  0  0  0
  3  4  1  0  0  0
  4 24  1  0  0  0
  4 12  1  0  0  0
  5  6  1  0  0  0
  7  8  1  0  0  0
  9 10  1  0  0  0
 11  6  1  0  0  0
 12 25  1  0  0  0
 13  1  1  0  0  0
 13 14  1  0  0  0
 14 26  1  0  0  0
 16 17  1  0  0  0
 17 30  1  0  0  0
 18 30  1  0  0  0
 18 31  1  0  0  0
 19 31  1  0  0  0
 19 20  1  0  0  0
 21 15  1  0  0  0
 24  5  1  0  0  0
 26 15  1  0  0  0
  5 27  2  0  0  0
  6  7  2  0  0  0
  8  9  2  0  0  0
 10 11  2  0  0  0
 12 28  2  0  0  0
 14 29  2  0  0  0
 15 16  2  0  0  0
 19 17  2  0  0  0
 20 21  2  0  0  0
M  END
> <rmsd>
0.629841208

$$$$
PubChem-136334581


 33 35  0  0  0  0  0  0  0  0999 V2000
    1.2418   21.3634   66.3348 C   0  0  0  0  0
    0.2099   21.1686   67.4313 C   0  0  0  0  0
    0.8733   21.2457   68.7730 C   0  0  0  0  0
    2.7131   20.3117   70.2634 C   0  0  0  0  0
    3.4560   21.4701   70.5676 C   0  0  0  0  0
    4.4801   20.3500   72.3926 C   0  0  0  0  0
    2.9218   19.1735   71.0519 C   0  0  0  0  0
    5.4425   20.3631   73.5094 C   0  0  0  0  0
    6.1356   21.5389   73.8347 C   0  0  0  0  0
    7.0642   21.5467   74.8793 C   0  0  0  0  0
    7.3072   20.3785   75.6064 C   0  0  0  0  0
    6.6210   19.2032   75.2905 C   0  0  0  0  0
    5.6923   19.1954   74.2458 C   0  0  0  0  0
    3.4687   22.6585   69.6593 C   0  0  0  0  0
    4.6914   22.6065   68.8130 C   0  0  0  0  0
    7.2095   22.6644   68.8848 C   0  0  0  0  0
    7.5533   21.4451   69.6724 C   0  0  0  0  0
    7.0402   20.1968   69.2996 C   0  0  0  0  0
    7.3076   19.0678   70.0797 C   0  0  0  0  0
    8.0844   19.1858   71.2363 C   0  0  0  0  0
    8.5939   20.4319   71.6126 C   0  0  0  0  0
    8.3235   21.5618   70.8347 C   0  0  0  0  0
   -1.9735   21.5313   66.6736 C   0  0  0  0  0
    0.5670   22.1582   69.5890 O   0  0  0  0  0
    2.3055   18.1039   70.8023 O   0  0  0  0  0
    4.6673   21.9922   67.7131 O   0  0  0  0  0
    1.8229   20.2385   69.1389 N   0  0  0  0  0
    4.3141   21.4569   71.6214 N   0  0  0  0  0
    3.7899   19.2171   72.0946 N   0  0  0  0  0
    5.9098   23.1621   69.3087 N   0  0  0  0  0
   -0.8336   22.1754   67.3026 N   0  0  0  0  0
    8.2090   20.3856   76.6167 F   0  0  0  0  0
    8.3421   18.0928   71.9937 F   0  0  0  0  0
  2  1  1  0  0  0
  2  3  1  0  0  0
  2 31  1  0  0  0
  3 27  1  0  0  0
  5 28  1  0  0  0
  6 29  1  0  0  0
  6  8  1  0  0  0
  7  4  1  0  0  0
  9 10  1  0  0  0
 11 12  1  0  0  0
 11 32  1  0  0  0
 13  8  1  0  0  0
 14  5  1  0  0  0
 14 15  1  0  0  0
 15 30  1  0  0  0
 16 30  1  0  0  0
 16 17  1  0  0  0
 18 19  1  0  0  0
 20 21  1  0  0  0
 20 33  1  0  0  0
 22 17  1  0  0  0
 23 31  1  0  0  0
 27  4  1  0  0  0
 29  7  1  0  0  0
  3 24  2  0  0  0
  4  5  2  0  0  0
  6 28  2  0  0  0
  7 25  2  0  0  0
  8  9  2  0  0  0
 10 11  2  0  0  0
 12 13  2  0  0  0
 15 26  2  0  0  0
 17 18  2  0  0  0
 19 20  2  0  0  0
 21 22  2  0  0  0
M  END
> <rmsd>
0.740493476

$$$$
PubChem-140652519


 28 29  0  0  0  0  0  0  0  0999 V2000
    5.0034   17.9648   68.6075 C   0  0  0  0  0
    5.7967   18.7987   69.6047 C   0  0  0  0  0
    6.4823   17.8650   70.5910 C   0  0  0  0  0
    4.9311   19.8643   70.3197 C   0  0  0  0  0
    4.2063   20.7435   69.3272 C   0  0  0  0  0
    2.6124   19.7103   70.5018 C   0  0  0  0  0
    0.4995   21.2618   68.7112 C   0  0  0  0  0
   -1.8028   21.6085   67.6373 C   0  0  0  0  0
   -2.4933   21.7597   68.8499 C   0  0  0  0  0
   -3.8713   21.9943   68.8543 C   0  0  0  0  0
   -4.5685   22.0787   67.6463 C   0  0  0  0  0
   -3.8879   21.9281   66.4352 C   0  0  0  0  0
   -2.5096   21.6935   66.4323 C   0  0  0  0  0
    5.7739   20.7054   71.3031 C   0  0  0  0  0
    6.9270   21.4301   70.6182 C   0  0  0  0  0
    8.9956   22.7176   71.2546 C   0  0  0  0  0
    9.8798   23.2628   72.3169 C   0  0  0  0  0
    4.7671   21.4270   68.4289 O   0  0  0  0  0
    1.4867   19.2679   70.8497 O   0  0  0  0  0
    0.0816   21.4331   69.8877 O   0  0  0  0  0
    9.2859   22.9069   70.0434 O   0  0  0  0  0
    4.9741   21.6260   71.9876 O   0  0  0  0  0
    2.7988   20.6887   69.4902 N   0  0  0  0  0
    3.8320   19.2175   71.0453 N   0  0  0  0  0
    1.8849   21.0060   68.4712 N   0  0  0  0  0
   -0.3902   21.3641   67.5924 N   0  0  0  0  0
    7.8261   21.9848   71.6171 N   0  0  0  0  0
   -6.4466   22.3984   67.6506 Br  0  0  0  0  0
  1  2  1  0  0  0
  2  3  1  0  0  0
  2  4  1  0  0  0
  4  5  1  0  0  0
  4 14  1  0  0  0
  4 24  1  0  0  0
  5 23  1  0  0  0
  6 24  1  0  0  0
  7 26  1  0  0  0
  9 10  1  0  0  0
 11 12  1  0  0  0
 11 28  1  0  0  0
 13  8  1  0  0  0
 14 15  1  0  0  0
 14 22  1  0  0  0
 15 27  1  0  0  0
 17 16  1  0  0  0
 23  6  1  0  0  0
 23 25  1  0  0  0
 25  7  1  0  0  0
 26  8  1  0  0  0
 27 16  1  0  0  0
  5 18  2  0  0  0
  6 19  2  0  0  0
  7 20  2  0  0  0
  8  9  2  0  0  0
 10 11  2  0  0  0
 12 13  2  0  0  0
 16 21  2  0  0  0
M  END
> <rmsd>
0.677128136

$$$$
PubChem-73329795


 32 34  0  0  0  0  0  0  0  0999 V2000
   -4.6740   26.5462   70.8865 C   0  0  0  0  0
   -4.2543   25.3187   70.1619 C   0  0  0  0  0
   -4.4490   25.2207   68.7805 C   0  0  0  0  0
   -4.0534   24.0657   68.0988 C   0  0  0  0  0
   -3.4652   23.0058   68.7986 C   0  0  0  0  0
   -3.2682   23.1067   70.1804 C   0  0  0  0  0
   -3.6637   24.2619   70.8616 C   0  0  0  0  0
   -3.0263   21.7810   68.0698 C   0  0  0  0  0
   -0.5057   22.0388   68.0783 C   0  0  0  0  0
    0.7445   22.3280   67.3240 C   0  0  0  0  0
    2.4226   20.2112   67.4063 C   0  0  0  0  0
    4.4251   20.5989   68.6143 C   0  0  0  0  0
    3.8036   20.4466   70.0042 C   0  0  0  0  0
    2.4150   19.8838   69.9083 C   0  0  0  0  0
    5.2236   20.0143   72.0465 C   0  0  0  0  0
    6.0566   19.0925   72.8380 C   0  0  0  0  0
    6.6442   19.5191   74.0380 C   0  0  0  0  0
    7.4354   18.6446   74.7890 C   0  0  0  0  0
    7.6446   17.3346   74.3440 C   0  0  0  0  0
    7.0624   16.9027   73.1494 C   0  0  0  0  0
    6.2715   17.7780   72.3995 C   0  0  0  0  0
   -1.7593   22.0199   67.3920 N   0  0  0  0  0
    3.4661   21.1971   67.6919 N   0  0  0  0  0
    1.7765   19.7555   68.6358 N   0  0  0  0  0
    4.6375   19.5741   70.8185 N   0  0  0  0  0
    5.6056   21.4409   68.6951 N   0  0  0  0  0
   -0.4463   21.8007   69.3140 O   0  0  0  0  0
    1.7918   19.5587   70.9529 O   0  0  0  0  0
    5.0266   21.1932   72.4509 O   0  0  0  0  0
    1.1856   20.9126   66.2629 S   0  0  0  0  0
    8.4101   16.4813   75.0671 F   0  0  0  0  0
    7.9964   19.0710   75.9465 F   0  0  0  0  0
  1  2  1  0  0  0
  3  4  1  0  0  0
  5  6  1  0  0  0
  7  2  1  0  0  0
  8  5  1  0  0  0
  8 22  1  0  0  0
 10  9  1  0  0  0
 10 30  1  0  0  0
 11 30  1  0  0  0
 11 23  1  0  0  0
 11 24  1  0  0  0
 12 23  1  0  0  0
 12 13  1  0  0  0
 12 26  1  0  0  0
 13 14  1  0  0  0
 13 25  1  0  0  0
 14 24  1  0  0  0
 15 16  1  0  0  0
 17 18  1  0  0  0
 18 32  1  0  0  0
 19 20  1  0  0  0
 19 31  1  0  0  0
 21 16  1  0  0  0
 22  9  1  0  0  0
 25 15  1  0  0  0
  2  3  2  0  0  0
  4  5  2  0  0  0
  6  7  2  0  0  0
  9 27  2  0  0  0
 14 28  2  0  0  0
 15 29  2  0  0  0
 16 17  2  0  0  0
 18 19  2  0  0  0
 20 21  2  0  0  0
M  END
> <rmsd>
0.664193094

$$$$
PubChem-7408748 ZINC000004899899


 24 24  0  0  0  0  0  0  0  0999 V2000
   -0.3941   19.3417   67.2771 C   0  0  0  0  0
   -0.1522   20.7548   67.7780 C   0  0  0  0  0
    0.0809   20.7597   69.2891 C   0  0  0  0  0
    1.3449   20.0458   69.6473 C   0  0  0  0  0
    3.8704   19.8767   69.4810 C   0  0  0  0  0
    4.9713   20.3037   68.5111 C   0  0  0  0  0
    4.7386   19.6876   67.1452 C   0  0  0  0  0
    4.2533   20.1703   70.8977 C   0  0  0  0  0
    4.7594   19.1633   73.1999 C   0  0  0  0  0
    4.9728   20.3940   73.8379 C   0  0  0  0  0
    5.3031   20.4391   75.1949 C   0  0  0  0  0
    5.4246   19.2545   75.9339 C   0  0  0  0  0
    5.2105   18.0243   75.2946 C   0  0  0  0  0
    4.8803   17.9813   73.9372 C   0  0  0  0  0
    1.2915   19.0287   70.3888 O   0  0  0  0  0
    5.0274   21.6947   68.3955 O   0  0  0  0  0
    4.4144   21.3630   71.2739 O   0  0  0  0  0
    5.8732   18.2521   77.9903 O   0  0  0  0  0
    5.9723   20.5137   77.9479 O   0  0  0  0  0
   -1.2622   21.5396   67.4616 O   0  0  0  0  0
    2.6008   20.5149   69.1475 N   0  0  0  0  0
    4.4178   19.0773   71.8099 N   0  0  0  0  0
    5.7636   19.3038   77.3263 N   0  0  0  0  0
    0.1446   22.1257   69.7840 N   0  0  0  0  0
  2  1  1  0  0  0
  2  3  1  0  0  0
  2 20  1  0  0  0
  3  4  1  0  0  0
  3 24  1  0  0  0
  4 21  1  0  0  0
  5 21  1  0  0  0
  5  6  1  0  0  0
  5  8  1  0  0  0
  6  7  1  0  0  0
  6 16  1  0  0  0
  8 22  1  0  0  0
 10 11  1  0  0  0
 12 13  1  0  0  0
 12 23  1  0  0  0
 14  9  1  0  0  0
 22  9  1  0  0  0
 23 19  1  0  0  0
  4 15  2  0  0  0
  8 17  2  0  0  0
  9 10  2  0  0  0
 11 12  2  0  0  0
 13 14  2  0  0  0
 23 18  2  0  0  0
M  CHG  2  23   1  19  -1
M  END
> <rmsd>
0.640664339

$$$$
PubChem-165586370 MCULE-3576005132


 33 36  0  0  0  0  0  0  0  0999 V2000
    5.8606   21.0534   67.8741 O   0  0  0  0  0
   -3.4748   20.7765   67.8879 O   0  0  0  0  0
    2.1116   18.5101   69.8781 O   0  0  0  0  0
    4.6647   19.9801   73.9619 O   0  0  0  0  0
    4.5292   21.6893   72.4172 O   0  0  0  0  0
    4.3704   19.5307   67.0283 O   0  0  0  0  0
    5.0504   19.9338   68.0073 C   0  0  0  0  0
    4.9573   19.2329   69.3197 C   0  0  0  0  0
    3.9832   19.9490   70.2447 C   0  0  0  0  0
    2.5642   19.6869   69.8536 C   0  0  0  0  0
    0.3663   20.7334   69.0508 C   0  0  0  0  0
   -2.2718   20.7445   68.2544 C   0  0  0  0  0
   -1.6762   19.5344   68.6000 C   0  0  0  0  0
   -0.3430   19.5286   69.0025 C   0  0  0  0  0
    4.4723   20.4530   72.6647 C   0  0  0  0  0
    4.9210   20.8572   75.0492 C   0  0  0  0  0
    5.0342   20.0621   76.3419 C   0  0  0  0  0
    3.6744   19.6220   76.8183 C   0  0  0  0  0
    3.3518   20.1933   78.0360 C   0  0  0  0  0
    2.1473   19.9229   78.6836 C   0  0  0  0  0
    1.2513   19.0387   78.0624 C   0  0  0  0  0
    1.5737   18.4468   76.8257 C   0  0  0  0  0
    2.7954   18.7341   76.1945 C   0  0  0  0  0
    4.4494   21.0364   78.4446 C   0  0  0  0  0
    5.4313   20.9709   77.4724 C   0  0  0  0  0
    6.6257   21.6793   77.6185 C   0  0  0  0  0
    6.8003   22.4665   78.7689 C   0  0  0  0  0
    5.7928   22.5312   79.7511 C   0  0  0  0  0
    4.5995   21.8081   79.5957 C   0  0  0  0  0
    1.7403   20.7904   69.4575 N   0  0  0  0  0
   -0.2680   21.8844   68.7012 N   0  0  0  0  0
   -1.5459   21.8910   68.3154 N   0  0  0  0  0
    4.2054   19.5213   71.6169 N   0  0  0  0  0
  7  1  1  0  0  0
  8  7  1  0  0  0
  8  9  1  0  0  0
  9 10  1  0  0  0
  9 33  1  0  0  0
 10 30  1  0  0  0
 12 13  1  0  0  0
 14 11  1  0  0  0
 15  4  1  0  0  0
 16  4  1  0  0  0
 16 17  1  0  0  0
 17 18  1  0  0  0
 17 25  1  0  0  0
 18 19  1  0  0  0
 19 24  1  0  0  0
 20 21  1  0  0  0
 22 23  1  0  0  0
 25 26  1  0  0  0
 27 28  1  0  0  0
 29 24  1  0  0  0
 30 11  1  0  0  0
 32 31  1  0  0  0
 32 12  1  0  0  0
 33 15  1  0  0  0
  7  6  2  0  0  0
 10  3  2  0  0  0
 11 31  2  0  0  0
 12  2  2  0  0  0
 13 14  2  0  0  0
 15  5  2  0  0  0
 19 20  2  0  0  0
 21 22  2  0  0  0
 23 18  2  0  0  0
 24 25  2  0  0  0
 26 27  2  0  0  0
 28 29  2  0  0  0
M  END
> <rmsd>
0.787625134

$$$$
PubChem-72767223


 26 26  0  0  0  0  0  0  0  0999 V2000
    8.8311   20.9960   73.4723 C   0  0  0  0  0
    9.4332   21.7961   72.3321 C   0  0  0  0  0
    8.8990   21.3052   70.9980 C   0  0  0  0  0
    9.7980   21.8185   69.8880 C   0  0  0  0  0
    7.4987   21.7934   70.7944 C   0  0  0  0  0
    6.7581   21.3531   69.7772 C   0  0  0  0  0
    5.3537   21.8390   69.5764 C   0  0  0  0  0
    4.3692   21.3159   70.6339 C   0  0  0  0  0
    4.4373   19.7945   70.8407 C   0  0  0  0  0
    3.9397   19.0156   69.6160 C   0  0  0  0  0
    2.4885   19.2510   69.3240 C   0  0  0  0  0
    0.7530   20.2559   67.7210 C   0  0  0  0  0
   -0.1294   19.0123   67.6838 C   0  0  0  0  0
   -1.2624   19.1715   66.6795 C   0  0  0  0  0
   -2.3455   20.1110   67.1907 C   0  0  0  0  0
   -1.8915   21.5607   67.1076 C   0  0  0  0  0
    0.1627   21.3340   68.5947 C   0  0  0  0  0
    5.1132   17.3350   68.7804 C   0  0  0  0  0
    1.6054   18.8656   70.1379 O   0  0  0  0  0
    0.7818   21.7394   69.6144 O   0  0  0  0  0
    4.1865   17.6496   69.7758 O   0  0  0  0  0
    3.7242   19.4205   71.9839 O   0  0  0  0  0
    4.5882   21.9796   71.8434 O   0  0  0  0  0
    4.9172   21.5025   68.2952 O   0  0  0  0  0
    2.1217   19.9144   68.1087 N   0  0  0  0  0
   -1.1024   21.9213   68.2779 N   0  0  0  0  0
  1  2  1  0  0  0
  3  2  1  0  0  0
  3  4  1  0  0  0
  3  5  1  0  0  0
  7  6  1  0  0  0
  7  8  1  0  0  0
  7 24  1  0  0  0
  8  9  1  0  0  0
  8 23  1  0  0  0
  9 10  1  0  0  0
  9 22  1  0  0  0
 10 11  1  0  0  0
 10 21  1  0  0  0
 11 25  1  0  0  0
 12 25  1  0  0  0
 12 13  1  0  0  0
 12 17  1  0  0  0
 13 14  1  0  0  0
 14 15  1  0  0  0
 15 16  1  0  0  0
 16 26  1  0  0  0
 18 21  1  0  0  0
 26 17  1  0  0  0
  5  6  2  0  0  0
 11 19  2  0  0  0
 17 20  2  0  0  0
M  END
> <rmsd>
0.680300415

$$$$
PubChem-11582939


 30 31  0  0  0  0  0  0  0  0999 V2000
    3.9786   22.8731   69.0095 C   0  0  0  0  0
    4.2201   21.3749   69.1420 C   0  0  0  0  0
    4.3664   20.9645   70.5847 C   0  0  0  0  0
    4.8317   19.1425   72.2674 C   0  0  0  0  0
    5.2048   17.6699   72.2903 C   0  0  0  0  0
    3.0594   20.6435   68.5265 C   0  0  0  0  0
    0.5616   20.1782   68.5102 C   0  0  0  0  0
   -0.6162   20.2529   69.4634 C   0  0  0  0  0
   -0.6818   22.7589   69.6829 C   0  0  0  0  0
   -0.5901   23.1002   68.2986 C   0  0  0  0  0
   -0.7309   24.4429   67.9253 C   0  0  0  0  0
   -0.9269   25.4432   68.8761 C   0  0  0  0  0
   -0.9843   25.1142   70.2267 C   0  0  0  0  0
   -0.8639   23.7827   70.6212 C   0  0  0  0  0
    0.1599   20.8437   67.2485 C   0  0  0  0  0
   -0.6845   19.0432   70.3951 C   0  0  0  0  0
    0.4355   19.0189   71.4271 C   0  0  0  0  0
    4.1910   21.7987   71.5163 O   0  0  0  0  0
    3.2381   19.8773   67.5401 O   0  0  0  0  0
   -0.6171   21.4616   70.2092 O   0  0  0  0  0
    0.2756   20.2115   66.1669 O   0  0  0  0  0
    1.5716   18.4206   70.8833 O   0  0  0  0  0
    5.4009   21.0622   68.4633 O   0  0  0  0  0
    4.6989   19.6095   70.8957 N   0  0  0  0  0
    1.7482   20.8153   69.0723 N   0  0  0  0  0
   -0.3600   22.1752   67.2232 N   0  0  0  0  0
    4.2243   16.9244   71.6616 F   0  0  0  0  0
    6.4135   17.4801   71.6459 F   0  0  0  0  0
    5.3200   17.2527   73.6021 F   0  0  0  0  0
   -1.0521   26.7344   68.4864 F   0  0  0  0  0
  2  1  1  0  0  0
  2  3  1  0  0  0
  2  6  1  0  0  0
  2 23  1  0  0  0
  3 24  1  0  0  0
  4 24  1  0  0  0
  4  5  1  0  0  0
  5 27  1  0  0  0
  5 28  1  0  0  0
  5 29  1  0  0  0
  6 25  1  0  0  0
  7 25  1  0  0  0
  7  8  1  0  0  0
  7 15  1  0  0  0
  8 20  1  0  0  0
  8 16  1  0  0  0
  9 20  1  0  0  0
 10 11  1  0  0  0
 10 26  1  0  0  0
 12 13  1  0  0  0
 12 30  1  0  0  0
 14  9  1  0  0  0
 16 17  1  0  0  0
 17 22  1  0  0  0
 26 15  1  0  0  0
  3 18  2  0  0  0
  6 19  2  0  0  0
  9 10  2  0  0  0
 11 12  2  0  0  0
 13 14  2  0  0  0
 15 21  2  0  0  0
M  END
> <rmsd>
0.749785066

$$$$
PubChem-64156349


 19 20  0  0  0  0  0  0  0  0999 V2000
    0.2901   17.2861   71.9608 C   0  0  0  0  0
   -0.6838   19.1629   70.6588 C   0  0  0  0  0
   -0.1810   20.1286   69.8096 C   0  0  0  0  0
    1.1745   19.9009   69.7465 C   0  0  0  0  0
    4.4187   20.3946   70.6348 C   0  0  0  0  0
    4.2285   21.4414   71.5024 C   0  0  0  0  0
    5.3741   19.8949   72.4552 C   0  0  0  0  0
    0.3678   18.4172   71.0561 N   0  0  0  0  0
    1.4975   18.8476   70.5166 N   0  0  0  0  0
    2.1110   20.6659   68.9874 N   0  0  0  0  0
    4.8391   21.1179   72.6567 N   0  0  0  0  0
    5.1323   19.4188   71.2177 N   0  0  0  0  0
   -0.8661   21.2403   67.2841 N   0  0  0  0  0
    3.8048   20.3136   68.9957 S   0  0  0  0  0
   -1.0868   21.3869   68.9907 S   0  0  0  0  0
    4.0292   18.9395   68.4300 O   0  0  0  0  0
    4.5293   21.3188   68.1464 O   0  0  0  0  0
   -2.5479   21.2459   69.3127 O   0  0  0  0  0
   -0.6065   22.7337   69.4517 O   0  0  0  0  0
  1  8  1  0  0  0
  3  4  1  0  0  0
  4 10  1  0  0  0
  6 11  1  0  0  0
  7 12  1  0  0  0
  8  2  1  0  0  0
  8  9  1  0  0  0
 12  5  1  0  0  0
 14 10  1  0  0  0
 14  5  1  0  0  0
 15  3  1  0  0  0
 15 13  1  0  0  0
  2  3  2  0  0  0
  4  9  2  0  0  0
  5  6  2  0  0  0
  7 11  2  0  0  0
 14 16  2  0  0  0
 14 17  2  0  0  0
 15 18  2  0  0  0
 15 19  2  0  0  0
M  END
> <rmsd>
0.775453091

$$$$
PubChem-133066166 643559843 MCULE-7729637858


 32 34  0  0  0  0  0  0  0  0999 V2000
    5.7664   18.8685   75.3492 C   0  0  0  0  0
    5.1304   18.8451   73.9723 C   0  0  0  0  0
    4.0667   19.9321   73.8581 C   0  0  0  0  0
    2.8119   19.5348   74.6180 C   0  0  0  0  0
    3.7225   20.2458   72.4006 C   0  0  0  0  0
    4.8423   20.9558   71.7034 C   0  0  0  0  0
    6.5950   20.9728   69.8655 C   0  0  0  0  0
    5.9818   22.0782   69.0179 C   0  0  0  0  0
    4.8220   21.5246   66.8946 C   0  0  0  0  0
    5.9348   21.9282   66.1366 C   0  0  0  0  0
    5.9093   21.8683   64.7434 C   0  0  0  0  0
    4.7704   21.4034   64.0891 C   0  0  0  0  0
    3.6573   21.0019   64.8289 C   0  0  0  0  0
    3.6616   21.0564   66.2327 C   0  0  0  0  0
    2.4365   20.6300   66.9551 C   0  0  0  0  0
    1.0958   20.4371   69.0912 C   0  0  0  0  0
    1.3482   20.2478   70.5828 C   0  0  0  0  0
    2.1375   19.0058   70.8592 C   0  0  0  0  0
    0.1061   21.5353   68.8764 C   0  0  0  0  0
   -2.1207   22.2687   67.9330 C   0  0  0  0  0
   -1.7359   23.0134   66.6689 C   0  0  0  0  0
   -2.9078   22.3880   65.9410 C   0  0  0  0  0
   -3.2945   21.6470   67.2047 C   0  0  0  0  0
    5.1335   22.1338   72.0440 O   0  0  0  0  0
    4.8664   21.5763   68.2912 O   0  0  0  0  0
    1.4573   20.1795   66.2981 O   0  0  0  0  0
    1.7511   17.9025   70.3914 O   0  0  0  0  0
    0.3677   22.7101   69.2546 O   0  0  0  0  0
    5.5729   20.3046   70.6598 N   0  0  0  0  0
    2.3363   20.7318   68.3811 N   0  0  0  0  0
    3.3096   19.0473   71.6748 N   0  0  0  0  0
   -1.1304   21.2423   68.2246 N   0  0  0  0  0
  1  2  1  0  0  0
  3  2  1  0  0  0
  3  4  1  0  0  0
  3  5  1  0  0  0
  5  6  1  0  0  0
  5 31  1  0  0  0
  6 29  1  0  0  0
  7 29  1  0  0  0
  7  8  1  0  0  0
  8 25  1  0  0  0
  9 25  1  0  0  0
 10 11  1  0  0  0
 12 13  1  0  0  0
 14 15  1  0  0  0
 14  9  1  0  0  0
 15 30  1  0  0  0
 16 30  1  0  0  0
 16 17  1  0  0  0
 16 19  1  0  0  0
 17 18  1  0  0  0
 18 31  1  0  0  0
 19 32  1  0  0  0
 20 32  1  0  0  0
 20 21  1  0  0  0
 21 22  1  0  0  0
 22 23  1  0  0  0
 23 20  1  0  0  0
  6 24  2  0  0  0
  9 10  2  0  0  0
 11 12  2  0  0  0
 13 14  2  0  0  0
 15 26  2  0  0  0
 18 27  2  0  0  0
 19 28  2  0  0  0
M  END
> <rmsd>
0.865046084

$$$$
PubChem-133066166 643559843 MCULE-7729637858


 32 34  0  0  0  0  0  0  0  0999 V2000
    3.2623   15.1819   68.3122 C   0  0  0  0  0
    3.8194   16.5101   68.7890 C   0  0  0  0  0
    3.0646   17.6654   68.1445 C   0  0  0  0  0
    3.5461   17.8351   66.7109 C   0  0  0  0  0
    3.2850   18.9584   68.9373 C   0  0  0  0  0
    2.7904   18.8655   70.3526 C   0  0  0  0  0
    4.8407   20.0579   71.2216 C   0  0  0  0  0
    5.0024   21.2232   72.1765 C   0  0  0  0  0
    4.0023   23.4706   72.5089 C   0  0  0  0  0
    4.7578   23.6788   73.6756 C   0  0  0  0  0
    4.6210   24.8550   74.4136 C   0  0  0  0  0
    3.7241   25.8371   73.9965 C   0  0  0  0  0
    2.9702   25.6459   72.8377 C   0  0  0  0  0
    3.1023   24.4738   72.0762 C   0  0  0  0  0
    2.2846   24.3337   70.8487 C   0  0  0  0  0
    1.8034   23.1300   68.6662 C   0  0  0  0  0
    2.6316   22.5100   67.5374 C   0  0  0  0  0
    3.3632   21.2778   67.9638 C   0  0  0  0  0
    0.5923   22.3038   68.9906 C   0  0  0  0  0
   -1.6746   21.4392   68.2824 C   0  0  0  0  0
   -2.6186   21.5846   67.1069 C   0  0  0  0  0
   -3.5808   22.3729   67.9721 C   0  0  0  0  0
   -2.6391   22.2256   69.1495 C   0  0  0  0  0
    1.6686   18.3462   70.5954 O   0  0  0  0  0
    4.1223   22.2734   71.7940 O   0  0  0  0  0
    1.2894   25.0888   70.6715 O   0  0  0  0  0
    4.6207   21.2999   68.0374 O   0  0  0  0  0
    0.5187   21.6746   70.0819 O   0  0  0  0  0
    3.5417   19.4357   71.4247 N   0  0  0  0  0
    2.6280   23.3722   69.8466 N   0  0  0  0  0
    2.6395   20.0901   68.2881 N   0  0  0  0  0
   -0.4717   22.2229   68.0407 N   0  0  0  0  0
  1  2  1  0  0  0
  3  2  1  0  0  0
  3  4  1  0  0  0
  3  5  1  0  0  0
  5  6  1  0  0  0
  5 31  1  0  0  0
  6 29  1  0  0  0
  7 29  1  0  0  0
  7  8  1  0  0  0
  8 25  1  0  0  0
  9 25  1  0  0  0
 10 11  1  0  0  0
 12 13  1  0  0  0
 14 15  1  0  0  0
 14  9  1  0  0  0
 15 30  1  0  0  0
 16 30  1  0  0  0
 16 17  1  0  0  0
 16 19  1  0  0  0
 17 18  1  0  0  0
 18 31  1  0  0  0
 19 32  1  0  0  0
 20 32  1  0  0  0
 20 21  1  0  0  0
 21 22  1  0  0  0
 22 23  1  0  0  0
 23 20  1  0  0  0
  6 24  2  0  0  0
  9 10  2  0  0  0
 11 12  2  0  0  0
 13 14  2  0  0  0
 15 26  2  0  0  0
 18 27  2  0  0  0
 19 28  2  0  0  0
M  END
> <rmsd>
0.80738312

$$$$
PubChem-73329606


 31 33  0  0  0  0  0  0  0  0999 V2000
    7.2727   20.2883   73.4683 C   0  0  0  0  0
    8.3296   19.6462   74.1206 C   0  0  0  0  0
    8.6095   18.3051   73.8447 C   0  0  0  0  0
    7.8329   17.6058   72.9169 C   0  0  0  0  0
    6.7763   18.2480   72.2644 C   0  0  0  0  0
    6.4881   19.5936   72.5354 C   0  0  0  0  0
    5.3744   20.2693   71.8474 C   0  0  0  0  0
    3.4993   20.1754   70.1432 C   0  0  0  0  0
    2.4821   19.1074   69.7372 C   0  0  0  0  0
    2.2853   19.7895   67.4747 C   0  0  0  0  0
    4.0488   20.8682   68.9256 C   0  0  0  0  0
    1.0147   22.1307   66.9674 C   0  0  0  0  0
   -0.1247   22.1520   67.9261 C   0  0  0  0  0
   -2.6545   21.8603   68.2353 C   0  0  0  0  0
   -3.8844   21.6519   67.5928 C   0  0  0  0  0
   -5.0654   21.5802   68.3379 C   0  0  0  0  0
   -5.0271   21.7146   69.7281 C   0  0  0  0  0
   -3.8068   21.9201   70.3760 C   0  0  0  0  0
   -2.6256   21.9919   69.6327 C   0  0  0  0  0
    5.1203   21.4800   72.0952 O   0  0  0  0  0
    4.9995   21.6859   69.0359 O   0  0  0  0  0
    0.1008   22.3876   69.1424 O   0  0  0  0  0
    4.5772   19.5512   70.9001 N   0  0  0  0  0
    1.5621   19.6374   68.7374 N   0  0  0  0  0
    3.4682   20.6334   67.6405 N   0  0  0  0  0
   -1.4566   21.9233   67.4473 N   0  0  0  0  0
    1.7305   18.6779   70.9032 N   0  0  0  0  0
    1.1813   20.4843   66.1974 S   0  0  0  0  0
   -6.1725   21.6435   70.4473 F   0  0  0  0  0
   -3.9386   21.5171   66.2444 F   0  0  0  0  0
    9.6313   17.6822   74.4789 F   0  0  0  0  0
  2  3  1  0  0  0
  3 31  1  0  0  0
  4  5  1  0  0  0
  6  7  1  0  0  0
  6  1  1  0  0  0
  7 23  1  0  0  0
  8 23  1  0  0  0
  8  9  1  0  0  0
  8 11  1  0  0  0
  9 24  1  0  0  0
  9 27  1  0  0  0
 10 24  1  0  0  0
 10 25  1  0  0  0
 10 28  1  0  0  0
 12 28  1  0  0  0
 12 13  1  0  0  0
 13 26  1  0  0  0
 15 16  1  0  0  0
 15 30  1  0  0  0
 17 18  1  0  0  0
 17 29  1  0  0  0
 19 14  1  0  0  0
 25 11  1  0  0  0
 26 14  1  0  0  0
  1  2  2  0  0  0
  3  4  2  0  0  0
  5  6  2  0  0  0
  7 20  2  0  0  0
 11 21  2  0  0  0
 13 22  2  0  0  0
 14 15  2  0  0  0
 16 17  2  0  0  0
 18 19  2  0  0  0
M  END
> <rmsd>
0.625171006

$$$$
PubChem-55107816


 17 17  0  0  0  0  0  0  0  0999 V2000
   -1.0407   22.8884   67.5922 C   0  0  0  0  0
    0.2043   21.0585   68.7964 C   0  0  0  0  0
    1.5268   19.1569   69.8449 C   0  0  0  0  0
    2.4682   18.0225   69.6257 C   0  0  0  0  0
    3.8860   18.5347   69.4378 C   0  0  0  0  0
    5.6237   19.7737   70.4014 C   0  0  0  0  0
    6.6523   19.5409   71.4970 C   0  0  0  0  0
    7.4059   18.2557   71.2176 C   0  0  0  0  0
    8.0452   19.5904   70.9009 C   0  0  0  0  0
    5.3146   21.2324   70.2750 C   0  0  0  0  0
   -0.1574   21.7345   67.5925 N   0  0  0  0  0
    1.0804   19.9288   68.7243 N   0  0  0  0  0
    4.4083   19.0321   70.7009 N   0  0  0  0  0
   -0.2443   21.4567   69.9059 O   0  0  0  0  0
    1.1574   19.4374   71.0163 O   0  0  0  0  0
    4.8073   21.8662   71.2384 O   0  0  0  0  0
    5.5830   21.8899   69.0826 O   0  0  0  0  0
  1 11  1  0  0  0
  2 12  1  0  0  0
  4  3  1  0  0  0
  4  5  1  0  0  0
  5 13  1  0  0  0
  6 13  1  0  0  0
  6  7  1  0  0  0
  6 10  1  0  0  0
  7  8  1  0  0  0
  8  9  1  0  0  0
  9  7  1  0  0  0
 10 17  1  0  0  0
 11  2  1  0  0  0
 12  3  1  0  0  0
  2 14  2  0  0  0
  3 15  2  0  0  0
 10 16  2  0  0  0
M  END
> <rmsd>
0.847508371

$$$$
PubChem-133076509


 39 41  0  0  0  0  0  0  0  0999 V2000
    6.3162   16.9884   69.3221 C   0  0  0  0  0
    6.0648   17.6782   70.6508 C   0  0  0  0  0
    5.8884   16.6427   71.7521 C   0  0  0  0  0
    4.8798   18.6434   70.5551 C   0  0  0  0  0
    3.5574   17.9178   70.3251 C   0  0  0  0  0
    1.4527   18.8649   71.2211 C   0  0  0  0  0
    1.4661   17.9520   72.2913 C   0  0  0  0  0
    0.4531   17.9579   73.2499 C   0  0  0  0  0
   -0.5886   18.8786   73.1532 C   0  0  0  0  0
   -0.6165   19.7905   72.0973 C   0  0  0  0  0
    0.3938   19.7999   71.1207 C   0  0  0  0  0
    0.2941   20.7867   70.0183 C   0  0  0  0  0
    1.0584   21.6288   67.7544 C   0  0  0  0  0
    2.3212   21.5908   66.9087 C   0  0  0  0  0
    3.3761   22.5169   67.4928 C   0  0  0  0  0
    4.3519   21.7603   68.3282 C   0  0  0  0  0
    5.5661   21.5394   70.5189 C   0  0  0  0  0
    5.0473   20.8659   71.7442 C   0  0  0  0  0
   -0.1221   21.2246   66.9309 C   0  0  0  0  0
   -2.3520   21.8529   65.9282 C   0  0  0  0  0
   -3.2275   23.0864   65.8143 C   0  0  0  0  0
   -3.2259   24.6061   63.8592 C   0  0  0  0  0
   -4.5702   24.3339   63.5585 C   0  0  0  0  0
   -5.1759   24.9212   62.4446 C   0  0  0  0  0
   -4.4434   25.7862   61.6164 C   0  0  0  0  0
   -3.1027   26.0518   61.9153 C   0  0  0  0  0
   -2.4982   25.4664   63.0311 C   0  0  0  0  0
   -6.3863   26.2138   60.1447 C   0  0  0  0  0
    2.4852   18.8524   70.2752 O   0  0  0  0  0
   -0.6107   21.6667   70.0513 O   0  0  0  0  0
    5.0947   20.8924   67.7949 O   0  0  0  0  0
    4.8267   21.5469   72.7792 O   0  0  0  0  0
   -0.2007   20.0575   66.4562 O   0  0  0  0  0
   -2.5962   24.0476   64.9750 O   0  0  0  0  0
   -5.0210   26.3957   60.4984 O   0  0  0  0  0
    1.1979   20.7487   68.9079 N   0  0  0  0  0
    4.4634   22.0529   69.7229 N   0  0  0  0  0
    4.7991   19.4596   71.7595 N   0  0  0  0  0
   -1.1589   22.1762   66.6941 N   0  0  0  0  0
  1  2  1  0  0  0
  2  3  1  0  0  0
  4  2  1  0  0  0
  4  5  1  0  0  0
  4 38  1  0  0  0
  5 29  1  0  0  0
  6 29  1  0  0  0
  7  8  1  0  0  0
  9 10  1  0  0  0
 11 12  1  0  0  0
 11  6  1  0  0  0
 12 36  1  0  0  0
 13 36  1  0  0  0
 13 14  1  0  0  0
 13 19  1  0  0  0
 14 15  1  0  0  0
 15 16  1  0  0  0
 16 37  1  0  0  0
 17 37  1  0  0  0
 17 18  1  0  0  0
 18 38  1  0  0  0
 19 39  1  0  0  0
 20 39  1  0  0  0
 20 21  1  0  0  0
 21 34  1  0  0  0
 22 34  1  0  0  0
 23 24  1  0  0  0
 25 26  1  0  0  0
 25 35  1  0  0  0
 27 22  1  0  0  0
 28 35  1  0  0  0
  6  7  2  0  0  0
  8  9  2  0  0  0
 10 11  2  0  0  0
 12 30  2  0  0  0
 16 31  2  0  0  0
 18 32  2  0  0  0
 19 33  2  0  0  0
 22 23  2  0  0  0
 24 25  2  0  0  0
 26 27  2  0  0  0
M  END
> <rmsd>
0.823979855

$$$$
PubChem-133075303 643567386 MCULE-9462150958


 37 39  0  0  0  0  0  0  0  0999 V2000
    3.7306   17.5619   72.3411 C   0  0  0  0  0
    4.7205   18.6303   72.7665 C   0  0  0  0  0
    4.8797   20.8177   71.5264 C   0  0  0  0  0
    5.5100   21.6083   70.4282 C   0  0  0  0  0
    4.4041   22.1584   68.2304 C   0  0  0  0  0
    3.3001   22.8339   67.4918 C   0  0  0  0  0
    2.1387   21.8798   67.2668 C   0  0  0  0  0
    1.3899   21.6176   68.5717 C   0  0  0  0  0
    1.0303   19.1106   68.1792 C   0  0  0  0  0
    1.1179   17.7182   68.6818 C   0  0  0  0  0
    0.6861   16.6818   67.8361 C   0  0  0  0  0
    0.7113   15.3508   68.2554 C   0  0  0  0  0
    1.1684   15.0341   69.5328 C   0  0  0  0  0
    1.6010   16.0470   70.3874 C   0  0  0  0  0
    1.5821   17.3934   69.9803 C   0  0  0  0  0
    2.3353   18.1575   72.2274 C   0  0  0  0  0
   -0.0466   22.0441   68.5150 C   0  0  0  0  0
   -2.0772   22.7225   67.1557 C   0  0  0  0  0
   -2.1954   24.1844   67.5594 C   0  0  0  0  0
   -1.5278   25.0734   66.5221 C   0  0  0  0  0
   -1.5736   26.5005   66.9477 C   0  0  0  0  0
   -2.7949   27.1814   67.0263 C   0  0  0  0  0
   -2.8245   28.5271   67.4049 C   0  0  0  0  0
   -1.6330   29.1963   67.6986 C   0  0  0  0  0
   -0.4117   28.5204   67.6130 C   0  0  0  0  0
   -0.3826   27.1739   67.2356 C   0  0  0  0  0
    6.4754   22.6292   71.0114 C   0  0  0  0  0
    5.1404   19.4174   71.6173 N   0  0  0  0  0
    4.4807   22.2818   69.6502 N   0  0  0  0  0
    1.5038   20.2141   68.9640 N   0  0  0  0  0
   -0.6952   22.2729   67.2588 N   0  0  0  0  0
    4.1266   21.3828   72.3669 O   0  0  0  0  0
    5.2491   21.4695   67.5995 O   0  0  0  0  0
    0.5254   19.3269   67.0427 O   0  0  0  0  0
    1.9980   18.4019   70.8627 O   0  0  0  0  0
   -0.6863   22.1844   69.5925 O   0  0  0  0  0
    7.2001   23.2384   69.9883 O   0  0  0  0  0
  1  2  1  0  0  0
  2 28  1  0  0  0
  4  3  1  0  0  0
  4 29  1  0  0  0
  4 27  1  0  0  0
  6  5  1  0  0  0
  6  7  1  0  0  0
  7  8  1  0  0  0
  8 30  1  0  0  0
  8 17  1  0  0  0
  9 10  1  0  0  0
 11 12  1  0  0  0
 13 14  1  0  0  0
 15 35  1  0  0  0
 15 10  1  0  0  0
 16 35  1  0  0  0
 16  1  1  0  0  0
 17 31  1  0  0  0
 18 31  1  0  0  0
 18 19  1  0  0  0
 19 20  1  0  0  0
 20 21  1  0  0  0
 22 23  1  0  0  0
 24 25  1  0  0  0
 26 21  1  0  0  0
 27 37  1  0  0  0
 28  3  1  0  0  0
 29  5  1  0  0  0
 30  9  1  0  0  0
  3 32  2  0  0  0
  5 33  2  0  0  0
  9 34  2  0  0  0
 10 11  2  0  0  0
 12 13  2  0  0  0
 14 15  2  0  0  0
 17 36  2  0  0  0
 21 22  2  0  0  0
 23 24  2  0  0  0
 25 26  2  0  0  0
M  END
> <rmsd>
0.653961241

$$$$
PubChem-73202188


 30 32  0  0  0  0  0  0  0  0999 V2000
   -6.3099   21.6355   66.1384 C   0  0  0  0  0
   -5.6755   20.5247   66.7033 C   0  0  0  0  0
   -4.4881   20.6889   67.4235 C   0  0  0  0  0
   -3.9373   21.9652   67.5839 C   0  0  0  0  0
   -4.5688   23.0750   67.0118 C   0  0  0  0  0
   -5.7562   22.9104   66.2916 C   0  0  0  0  0
   -2.6615   22.1370   68.3297 C   0  0  0  0  0
   -0.1857   22.1090   67.8631 C   0  0  0  0  0
    0.9293   21.9560   66.8883 C   0  0  0  0  0
    2.2072   19.6515   67.5157 C   0  0  0  0  0
    2.5842   19.1891   69.8111 C   0  0  0  0  0
    3.6661   20.2519   70.0110 C   0  0  0  0  0
    4.1208   20.8042   68.6911 C   0  0  0  0  0
    5.2565   20.1912   71.9718 C   0  0  0  0  0
    6.4100   19.5607   72.6510 C   0  0  0  0  0
    7.0331   18.4552   72.0513 C   0  0  0  0  0
    8.1246   17.8325   72.6612 C   0  0  0  0  0
    8.6072   18.3090   73.8809 C   0  0  0  0  0
    7.9984   19.4079   74.4902 C   0  0  0  0  0
    6.9052   20.0358   73.8848 C   0  0  0  0  0
   -1.5377   22.0067   67.4164 N   0  0  0  0  0
    1.5939   19.6497   68.8441 N   0  0  0  0  0
    3.4157   20.4751   67.4920 N   0  0  0  0  0
    4.7958   19.6705   70.7216 N   0  0  0  0  0
    1.9287   18.9129   71.0772 N   0  0  0  0  0
    0.0739   22.3279   69.0763 O   0  0  0  0  0
    5.1034   21.5897   68.6400 O   0  0  0  0  0
    4.6747   21.1853   72.4858 O   0  0  0  0  0
    1.0099   20.2412   66.2706 S   0  0  0  0  0
    6.3416   21.1003   74.5085 F   0  0  0  0  0
  2  3  1  0  0  0
  4  5  1  0  0  0
  6  1  1  0  0  0
  7  4  1  0  0  0
  7 21  1  0  0  0
  9  8  1  0  0  0
  9 29  1  0  0  0
 10 29  1  0  0  0
 10 22  1  0  0  0
 10 23  1  0  0  0
 11 22  1  0  0  0
 11 12  1  0  0  0
 11 25  1  0  0  0
 12 13  1  0  0  0
 12 24  1  0  0  0
 13 23  1  0  0  0
 14 15  1  0  0  0
 16 17  1  0  0  0
 18 19  1  0  0  0
 20 30  1  0  0  0
 20 15  1  0  0  0
 21  8  1  0  0  0
 24 14  1  0  0  0
  1  2  2  0  0  0
  3  4  2  0  0  0
  5  6  2  0  0  0
  8 26  2  0  0  0
 13 27  2  0  0  0
 14 28  2  0  0  0
 15 16  2  0  0  0
 17 18  2  0  0  0
 19 20  2  0  0  0
M  END
> <rmsd>
0.657261074

$$$$
PubChem-126709218


 24 27  0  0  0  0  0  0  0  0999 V2000
    4.2367   22.4289   73.1888 C   0  0  0  0  0
    3.0754   21.8768   73.9705 C   0  0  0  0  0
    2.9086   20.9226   72.8191 C   0  0  0  0  0
    5.1322   20.5223   72.0840 C   0  0  0  0  0
    6.4215   21.1644   71.6105 C   0  0  0  0  0
    6.9029   20.9829   70.3729 C   0  0  0  0  0
    6.1923   20.1239   69.3647 C   0  0  0  0  0
    4.3832   20.9303   68.1371 C   0  0  0  0  0
    3.8867   20.1987   69.1166 C   0  0  0  0  0
    2.4514   19.9906   69.3581 C   0  0  0  0  0
    0.0525   20.6180   68.8379 C   0  0  0  0  0
   -0.2987   21.3137   70.1304 C   0  0  0  0  0
   -1.2930   23.1484   68.9469 C   0  0  0  0  0
   -1.2048   22.5338   67.7701 C   0  0  0  0  0
    4.0345   21.4950   72.0801 N   0  0  0  0  0
    5.8062   20.9330   68.2138 N   0  0  0  0  0
    4.9285   19.6498   69.9154 N   0  0  0  0  0
    4.7838   19.3387   71.2804 N   0  0  0  0  0
    1.4848   20.7240   68.5998 N   0  0  0  0  0
   -0.8801   22.4773   70.1451 N   0  0  0  0  0
   -0.6665   21.2100   67.7095 N   0  0  0  0  0
    2.0752   19.1640   70.2321 O   0  0  0  0  0
    3.4511   21.2563   75.1467 F   0  0  0  0  0
    2.0275   22.7684   74.0988 F   0  0  0  0  0
  1  2  1  0  0  0
  1 15  1  0  0  0
  2  3  1  0  0  0
  2 23  1  0  0  0
  2 24  1  0  0  0
  3 15  1  0  0  0
  4 15  1  0  0  0
  4  5  1  0  0  0
  4 18  1  0  0  0
  7  6  1  0  0  0
  7 16  1  0  0  0
  7 17  1  0  0  0
  9 17  1  0  0  0
  9 10  1  0  0  0
 10 19  1  0  0  0
 11 19  1  0  0  0
 11 12  1  0  0  0
 11 21  1  0  0  0
 13 20  1  0  0  0
 14 21  1  0  0  0
 16  8  1  0  0  0
 17 18  1  0  0  0
  5  6  2  0  0  0
  8  9  2  0  0  0
 10 22  2  0  0  0
 12 20  2  0  0  0
 13 14  2  0  0  0
M  END
> <rmsd>
0.744315743

$$$$
PubChem-73329148


 33 35  0  0  0  0  0  0  0  0999 V2000
   -7.1501   19.5727   70.6970 C   0  0  0  0  0
   -5.8889   20.1604   71.2356 C   0  0  0  0  0
   -4.7822   20.5433   70.3392 C   0  0  0  0  0
   -4.9017   20.3991   68.9485 C   0  0  0  0  0
   -3.8427   20.7499   68.1060 C   0  0  0  0  0
   -2.6498   21.2471   68.6395 C   0  0  0  0  0
   -2.5285   21.3940   70.0294 C   0  0  0  0  0
   -3.5866   21.0448   70.8726 C   0  0  0  0  0
   -0.2729   22.0440   68.1080 C   0  0  0  0  0
    0.7369   22.3069   67.0460 C   0  0  0  0  0
    2.3824   20.1501   67.2920 C   0  0  0  0  0
    4.3691   20.6286   68.4976 C   0  0  0  0  0
    3.7486   20.4788   69.8878 C   0  0  0  0  0
    2.3735   19.8821   69.8011 C   0  0  0  0  0
    4.9644   20.0082   72.0540 C   0  0  0  0  0
    5.8130   19.1129   72.8592 C   0  0  0  0  0
    6.3227   17.9307   72.3028 C   0  0  0  0  0
    7.1283   17.0790   73.0651 C   0  0  0  0  0
    7.4305   17.4038   74.3928 C   0  0  0  0  0
    6.9248   18.5789   74.9549 C   0  0  0  0  0
    6.1196   19.4306   74.1918 C   0  0  0  0  0
   -5.7835   20.3311   72.4796 O   0  0  0  0  0
    0.0403   22.2345   69.3119 O   0  0  0  0  0
    1.7534   19.5716   70.8518 O   0  0  0  0  0
    4.5540   21.0983   72.5424 O   0  0  0  0  0
   -1.5827   21.5880   67.7443 N   0  0  0  0  0
    3.3941   21.1748   67.5583 N   0  0  0  0  0
    1.7446   19.7028   68.5291 N   0  0  0  0  0
    4.6036   19.6410   70.7175 N   0  0  0  0  0
    5.5218   21.5091   68.5645 N   0  0  0  0  0
    1.1261   20.7792   66.1242 S   0  0  0  0  0
    8.2113   16.5829   75.1365 F   0  0  0  0  0
    7.6188   15.9438   72.5134 F   0  0  0  0  0
  1  2  1  0  0  0
  2  3  1  0  0  0
  4  5  1  0  0  0
  6  7  1  0  0  0
  6 26  1  0  0  0
  8  3  1  0  0  0
 10  9  1  0  0  0
 10 31  1  0  0  0
 11 31  1  0  0  0
 11 27  1  0  0  0
 11 28  1  0  0  0
 12 27  1  0  0  0
 12 13  1  0  0  0
 12 30  1  0  0  0
 13 14  1  0  0  0
 13 29  1  0  0  0
 14 28  1  0  0  0
 15 16  1  0  0  0
 17 18  1  0  0  0
 18 33  1  0  0  0
 19 20  1  0  0  0
 19 32  1  0  0  0
 21 16  1  0  0  0
 26  9  1  0  0  0
 29 15  1  0  0  0
  2 22  2  0  0  0
  3  4  2  0  0  0
  5  6  2  0  0  0
  7  8  2  0  0  0
  9 23  2  0  0  0
 14 24  2  0  0  0
 15 25  2  0  0  0
 16 17  2  0  0  0
 18 19  2  0  0  0
 20 21  2  0  0  0
M  END
> <rmsd>
0.64107275

$$$$
PubChem-146047497


 28 31  0  0  0  0  0  0  0  0999 V2000
    4.9643   19.0571   70.0844 C   0  0  0  0  0
    5.7013   20.2942   70.5174 C   0  0  0  0  0
    3.7310   19.0627   70.9483 C   0  0  0  0  0
    2.5005   19.1619   70.1069 C   0  0  0  0  0
    1.1101   20.4582   68.4316 C   0  0  0  0  0
   -0.0774   20.8472   69.3012 C   0  0  0  0  0
   -1.3679   20.8269   68.4938 C   0  0  0  0  0
   -2.6057   21.7542   66.7362 C   0  0  0  0  0
   -2.3838   22.0789   65.2509 C   0  0  0  0  0
   -3.2358   23.2616   65.0147 C   0  0  0  0  0
   -3.3905   23.9468   63.8089 C   0  0  0  0  0
   -4.2475   25.0576   63.7748 C   0  0  0  0  0
   -4.9293   25.4616   64.9367 C   0  0  0  0  0
   -4.7570   24.7567   66.1379 C   0  0  0  0  0
   -3.9002   23.6554   66.1467 C   0  0  0  0  0
   -3.5878   22.7934   67.3042 C   0  0  0  0  0
    6.1914   21.0638   69.3353 C   0  0  0  0  0
    7.5621   21.2863   69.1787 C   0  0  0  0  0
    8.0151   22.0091   68.0735 C   0  0  0  0  0
    7.0999   22.5007   67.1411 C   0  0  0  0  0
    5.7374   22.2602   67.3309 C   0  0  0  0  0
    4.7692   21.0974   71.2930 N   0  0  0  0  0
    3.8246   20.2105   71.8431 N   0  0  0  0  0
    2.3040   20.2895   69.2475 N   0  0  0  0  0
   -1.3392   21.8354   67.4438 N   0  0  0  0  0
    5.3144   21.5540   68.4138 N   0  0  0  0  0
    1.6397   18.2439   70.1625 O   0  0  0  0  0
    0.1240   22.1117   69.8584 O   0  0  0  0  0
  1  2  1  0  0  0
  2 22  1  0  0  0
  2 17  1  0  0  0
  3 23  1  0  0  0
  3  4  1  0  0  0
  3  1  1  0  0  0
  4 24  1  0  0  0
  5 24  1  0  0  0
  5  6  1  0  0  0
  6  7  1  0  0  0
  6 28  1  0  0  0
  7 25  1  0  0  0
  8 25  1  0  0  0
  8  9  1  0  0  0
  9 10  1  0  0  0
 11 12  1  0  0  0
 13 14  1  0  0  0
 15 10  1  0  0  0
 16 15  1  0  0  0
 16  8  1  0  0  0
 17 26  1  0  0  0
 18 19  1  0  0  0
 20 21  1  0  0  0
 22 23  1  0  0  0
  4 27  2  0  0  0
 10 11  2  0  0  0
 12 13  2  0  0  0
 14 15  2  0  0  0
 17 18  2  0  0  0
 19 20  2  0  0  0
 21 26  2  0  0  0
M  END
> <rmsd>
0.661882997

$$$$
PubChem-136363479


 22 23  0  0  0  0  0  0  0  0999 V2000
    5.2108   25.5216   66.5465 C   0  0  0  0  0
    5.4327   24.2083   67.2659 C   0  0  0  0  0
    4.0911   23.6242   67.6769 C   0  0  0  0  0
    4.2233   22.3126   68.4004 C   0  0  0  0  0
    1.7888   21.8253   68.1231 C   0  0  0  0  0
    1.2059   20.4920   67.6181 C   0  0  0  0  0
    2.2384   19.4798   69.7100 C   0  0  0  0  0
    3.0899   20.5805   69.8493 C   0  0  0  0  0
    3.9018   20.6443   70.9967 C   0  0  0  0  0
    3.0835   18.5389   71.7045 C   0  0  0  0  0
    0.8019   22.6606   68.9561 C   0  0  0  0  0
   -0.2494   23.3845   68.1144 C   0  0  0  0  0
    0.3952   24.3927   67.1813 C   0  0  0  0  0
    5.3634   21.8035   68.5870 O   0  0  0  0  0
    4.6226   21.6505   71.2273 O   0  0  0  0  0
   -1.0222   22.4818   67.3817 O   0  0  0  0  0
    0.1866   21.8945   69.9491 O   0  0  0  0  0
    3.0440   21.6208   68.8508 N   0  0  0  0  0
    1.3398   19.4139   68.5996 N   0  0  0  0  0
    3.8867   19.6189   71.8882 N   0  0  0  0  0
    2.2582   18.4796   70.6278 N   0  0  0  0  0
    3.0901   17.4796   72.6533 N   0  0  0  0  0
  1  2  1  0  0  0
  2  3  1  0  0  0
  3  4  1  0  0  0
  4 18  1  0  0  0
  5 18  1  0  0  0
  5  6  1  0  0  0
  5 11  1  0  0  0
  6 19  1  0  0  0
  7 21  1  0  0  0
  8  9  1  0  0  0
  8 18  1  0  0  0
  9 20  1  0  0  0
 10 22  1  0  0  0
 11 12  1  0  0  0
 11 17  1  0  0  0
 12 13  1  0  0  0
 12 16  1  0  0  0
 19  7  1  0  0  0
 20 10  1  0  0  0
  4 14  2  0  0  0
  7  8  2  0  0  0
  9 15  2  0  0  0
 10 21  2  0  0  0
M  END
> <rmsd>
0.665048301

$$$$
PubChem-136764511 ZINC000033614847 ZINC33614847


 25 27  0  0  0  0  0  0  0  0999 V2000
   -0.9877   24.4216   68.7591 C   0  0  0  0  0
   -0.2182   23.3514   68.0108 C   0  0  0  0  0
    0.8130   22.7049   68.9317 C   0  0  0  0  0
    1.8894   21.9506   68.1388 C   0  0  0  0  0
    1.3907   20.6216   67.5427 C   0  0  0  0  0
    2.2710   19.5637   69.6756 C   0  0  0  0  0
    3.1046   20.6650   69.8976 C   0  0  0  0  0
    3.8884   20.6757   71.0644 C   0  0  0  0  0
    3.0408   18.5487   71.6645 C   0  0  0  0  0
    4.3232   22.3859   68.5387 C   0  0  0  0  0
    4.3640   23.8056   68.1233 C   0  0  0  0  0
    3.2972   24.6729   68.3867 C   0  0  0  0  0
    3.3664   26.0128   68.0038 C   0  0  0  0  0
    4.5147   26.4782   67.3621 C   0  0  0  0  0
    5.4999   24.3216   67.4844 C   0  0  0  0  0
    1.4338   19.5296   68.5165 N   0  0  0  0  0
    3.8421   19.6169   71.9148 N   0  0  0  0  0
    2.2580   18.5293   70.5548 N   0  0  0  0  0
    3.0129   17.4541   72.5721 N   0  0  0  0  0
    3.0966   21.7498   68.9475 N   0  0  0  0  0
    5.5500   25.6308   67.1188 N   0  0  0  0  0
    4.6190   21.6623   71.3444 O   0  0  0  0  0
    5.3919   21.7147   68.5279 O   0  0  0  0  0
    0.1992   21.8907   69.8895 O   0  0  0  0  0
   -1.1079   22.3984   67.5107 O   0  0  0  0  0
  2  1  1  0  0  0
  2  3  1  0  0  0
  2 25  1  0  0  0
  3  4  1  0  0  0
  3 24  1  0  0  0
  4  5  1  0  0  0
  4 20  1  0  0  0
  5 16  1  0  0  0
  6 18  1  0  0  0
  7  8  1  0  0  0
  7 20  1  0  0  0
  8 17  1  0  0  0
  9 19  1  0  0  0
 10 11  1  0  0  0
 12 13  1  0  0  0
 14 21  1  0  0  0
 15 11  1  0  0  0
 16  6  1  0  0  0
 17  9  1  0  0  0
 20 10  1  0  0  0
  6  7  2  0  0  0
  8 22  2  0  0  0
  9 18  2  0  0  0
 10 23  2  0  0  0
 11 12  2  0  0  0
 13 14  2  0  0  0
 15 21  2  0  0  0
M  END
> <rmsd>
0.599731803

$$$$
PubChem-136764511 ZINC000033614847 ZINC33614847


 25 27  0  0  0  0  0  0  0  0999 V2000
   -0.9902   24.4197   68.7603 C   0  0  0  0  0
   -0.2191   23.3510   68.0116 C   0  0  0  0  0
    0.8128   22.7054   68.9322 C   0  0  0  0  0
    1.8898   21.9520   68.1392 C   0  0  0  0  0
    1.3917   20.6232   67.5424 C   0  0  0  0  0
    2.2710   19.5646   69.6753 C   0  0  0  0  0
    3.1045   20.6658   69.8980 C   0  0  0  0  0
    3.8879   20.6760   71.0650 C   0  0  0  0  0
    3.0401   18.5488   71.6641 C   0  0  0  0  0
    4.3238   22.3863   68.5394 C   0  0  0  0  0
    4.3655   23.8059   68.1239 C   0  0  0  0  0
    5.5009   24.3206   67.4848 C   0  0  0  0  0
    5.5506   25.6643   67.1110 C   0  0  0  0  0
    4.4589   26.4882   67.3877 C   0  0  0  0  0
    3.2991   24.6748   68.3884 C   0  0  0  0  0
    1.4343   19.5308   68.5159 N   0  0  0  0  0
    3.8414   19.6170   71.9149 N   0  0  0  0  0
    2.2577   18.5298   70.5541 N   0  0  0  0  0
    3.0120   17.4539   72.5712 N   0  0  0  0  0
    3.0967   21.7510   68.9483 N   0  0  0  0  0
    3.3650   25.9814   68.0166 N   0  0  0  0  0
    4.6186   21.6626   71.3455 O   0  0  0  0  0
    5.3920   21.7143   68.5285 O   0  0  0  0  0
    0.2000   21.8910   69.8904 O   0  0  0  0  0
   -1.1075   22.3970   67.5112 O   0  0  0  0  0
  2  1  1  0  0  0
  2  3  1  0  0  0
  2 25  1  0  0  0
  3  4  1  0  0  0
  3 24  1  0  0  0
  4  5  1  0  0  0
  4 20  1  0  0  0
  5 16  1  0  0  0
  6 18  1  0  0  0
  7  8  1  0  0  0
  7 20  1  0  0  0
  8 17  1  0  0  0
  9 19  1  0  0  0
 10 11  1  0  0  0
 12 13  1  0  0  0
 14 21  1  0  0  0
 15 11  1  0  0  0
 16  6  1  0  0  0
 17  9  1  0  0  0
 20 10  1  0  0  0
  6  7  2  0  0  0
  8 22  2  0  0  0
  9 18  2  0  0  0
 10 23  2  0  0  0
 11 12  2  0  0  0
 13 14  2  0  0  0
 15 21  2  0  0  0
M  END
> <rmsd>
0.599297762

$$$$
PubChem-133075080 643566428 MCULE-2507226512


 37 39  0  0  0  0  0  0  0  0999 V2000
   -0.5729   20.5108   61.3733 C   0  0  0  0  0
    1.6935   20.2049   62.3170 C   0  0  0  0  0
    2.9673   20.7406   62.5345 C   0  0  0  0  0
    3.9234   20.0174   63.2547 C   0  0  0  0  0
    3.6146   18.7455   63.7615 C   0  0  0  0  0
    2.3417   18.2098   63.5434 C   0  0  0  0  0
    1.3852   18.9328   62.8255 C   0  0  0  0  0
    5.8650   18.4524   64.7764 C   0  0  0  0  0
    5.8327   19.4637   65.9089 C   0  0  0  0  0
    5.2018   19.5405   68.3503 C   0  0  0  0  0
    4.7321   18.8012   69.5690 C   0  0  0  0  0
    3.2993   18.2929   69.3764 C   0  0  0  0  0
    2.2402   19.3299   69.5922 C   0  0  0  0  0
    1.1514   21.4880   68.7212 C   0  0  0  0  0
    0.6031   21.9233   70.0638 C   0  0  0  0  0
    2.7460   23.1361   70.7055 C   0  0  0  0  0
    3.5769   23.0781   71.9716 C   0  0  0  0  0
    4.7552   21.2824   73.2322 C   0  0  0  0  0
    4.6869   22.0017   74.4365 C   0  0  0  0  0
    5.2478   21.4859   75.6081 C   0  0  0  0  0
    5.8889   20.2463   75.5863 C   0  0  0  0  0
    5.9656   19.5214   74.3945 C   0  0  0  0  0
    5.4068   20.0247   73.2049 C   0  0  0  0  0
    5.4732   19.1960   71.9724 C   0  0  0  0  0
    0.0924   20.8598   67.8256 C   0  0  0  0  0
    0.7597   20.9517   61.5932 O   0  0  0  0  0
    4.5491   17.9920   64.4801 O   0  0  0  0  0
    5.3964   20.7868   68.3894 O   0  0  0  0  0
    1.3160   19.0940   70.4167 O   0  0  0  0  0
   -0.5825   21.6351   70.3890 O   0  0  0  0  0
    4.1677   21.7895   72.0698 O   0  0  0  0  0
    6.0698   18.0856   71.9918 O   0  0  0  0  0
   -0.7824   21.8424   67.3617 O   0  0  0  0  0
    5.3825   18.8184   67.1305 N   0  0  0  0  0
    2.2759   20.5674   68.8678 N   0  0  0  0  0
    1.4087   22.6490   70.9941 N   0  0  0  0  0
    4.8409   19.6280   70.7661 N   0  0  0  0  0
  1 26  1  0  0  0
  2 26  1  0  0  0
  3  4  1  0  0  0
  5  6  1  0  0  0
  5 27  1  0  0  0
  7  2  1  0  0  0
  8 27  1  0  0  0
  8  9  1  0  0  0
  9 34  1  0  0  0
 11 10  1  0  0  0
 11 12  1  0  0  0
 11 37  1  0  0  0
 12 13  1  0  0  0
 13 35  1  0  0  0
 14 35  1  0  0  0
 14 15  1  0  0  0
 14 25  1  0  0  0
 15 36  1  0  0  0
 16 36  1  0  0  0
 16 17  1  0  0  0
 17 31  1  0  0  0
 18 31  1  0  0  0
 19 20  1  0  0  0
 21 22  1  0  0  0
 23 24  1  0  0  0
 23 18  1  0  0  0
 24 37  1  0  0  0
 25 33  1  0  0  0
 34 10  1  0  0  0
  2  3  2  0  0  0
  4  5  2  0  0  0
  6  7  2  0  0  0
 10 28  2  0  0  0
 13 29  2  0  0  0
 15 30  2  0  0  0
 18 19  2  0  0  0
 20 21  2  0  0  0
 22 23  2  0  0  0
 24 32  2  0  0  0
M  END
> <rmsd>
0.719192624

$$$$
PubChem-133077719 MCULE-5183125674


 39 41  0  0  0  0  0  0  0  0999 V2000
   -4.1807   25.5387   62.8432 C   0  0  0  0  0
   -3.2701   24.9387   63.8550 C   0  0  0  0  0
   -3.1570   25.2701   65.1875 C   0  0  0  0  0
   -2.3324   23.9415   63.6621 C   0  0  0  0  0
   -2.0336   23.2511   62.3808 C   0  0  0  0  0
   -1.7227   24.5712   67.1148 C   0  0  0  0  0
   -1.9154   23.2415   67.8275 C   0  0  0  0  0
    0.0721   21.7920   68.3773 C   0  0  0  0  0
    1.1865   20.9254   67.8915 C   0  0  0  0  0
    2.4846   21.7130   67.8792 C   0  0  0  0  0
    3.5379   20.9617   67.0929 C   0  0  0  0  0
    4.8197   21.0060   67.8369 C   0  0  0  0  0
    6.3481   19.8817   69.5213 C   0  0  0  0  0
    6.0941   20.8203   70.6978 C   0  0  0  0  0
    4.8454   20.4768   71.4451 C   0  0  0  0  0
    3.6375   18.7932   72.9340 C   0  0  0  0  0
    2.2129   19.0384   72.4191 C   0  0  0  0  0
    1.2598   17.4949   70.7279 C   0  0  0  0  0
    1.1299   16.4269   71.6339 C   0  0  0  0  0
    0.3985   15.2894   71.2997 C   0  0  0  0  0
   -0.2163   15.2037   70.0517 C   0  0  0  0  0
   -0.1187   16.2666   69.1529 C   0  0  0  0  0
    0.6092   17.4239   69.4723 C   0  0  0  0  0
    0.5949   18.5472   68.4981 C   0  0  0  0  0
    3.8400   17.3481   73.3973 C   0  0  0  0  0
    5.2302   17.1647   73.9815 C   0  0  0  0  0
    2.8330   16.9800   74.4742 C   0  0  0  0  0
   -3.9338   26.3206   65.9088 C   0  0  0  0  0
   -2.2009   24.4968   65.7374 N   0  0  0  0  0
   -1.6867   23.6932   64.8171 N   0  0  0  0  0
   -0.8636   22.3184   67.4364 N   0  0  0  0  0
    5.2159   19.8700   68.6039 N   0  0  0  0  0
    4.6460   19.1476   71.9356 N   0  0  0  0  0
    1.3207   19.7524   68.7469 N   0  0  0  0  0
   -0.0132   22.0918   69.5996 O   0  0  0  0  0
    5.5269   22.0488   67.8140 O   0  0  0  0  0
    3.9871   21.3735   71.6579 O   0  0  0  0  0
    2.0339   18.6100   71.0708 O   0  0  0  0  0
   -0.0961   18.4506   67.4478 O   0  0  0  0  0
  1  2  1  0  0  0
  3 29  1  0  0  0
  4  2  1  0  0  0
  5  4  1  0  0  0
  6 29  1  0  0  0
  6  7  1  0  0  0
  7 31  1  0  0  0
  9  8  1  0  0  0
  9 10  1  0  0  0
  9 34  1  0  0  0
 10 11  1  0  0  0
 11 12  1  0  0  0
 12 32  1  0  0  0
 13 32  1  0  0  0
 13 14  1  0  0  0
 14 15  1  0  0  0
 15 33  1  0  0  0
 16 33  1  0  0  0
 16 17  1  0  0  0
 16 25  1  0  0  0
 17 38  1  0  0  0
 18 38  1  0  0  0
 19 20  1  0  0  0
 21 22  1  0  0  0
 23 24  1  0  0  0
 23 18  1  0  0  0
 24 34  1  0  0  0
 25 26  1  0  0  0
 25 27  1  0  0  0
 28  3  1  0  0  0
 29 30  1  0  0  0
 31  8  1  0  0  0
  2  3  2  0  0  0
  4 30  2  0  0  0
  8 35  2  0  0  0
 12 36  2  0  0  0
 15 37  2  0  0  0
 18 19  2  0  0  0
 20 21  2  0  0  0
 22 23  2  0  0  0
 24 39  2  0  0  0
M  END
> <rmsd>
0.618499696

$$$$
PubChem-131736357


 30 32  0  0  0  0  0  0  0  0999 V2000
    0.3558   22.7014   66.6215 C   0  0  0  0  0
    0.1585   21.4197   67.4054 C   0  0  0  0  0
    0.8369   21.5224   68.7327 C   0  0  0  0  0
    2.6046   20.6587   70.3213 C   0  0  0  0  0
    2.5652   19.3012   70.9685 C   0  0  0  0  0
    4.8640   19.1667   72.1879 C   0  0  0  0  0
    5.6343   18.2607   72.9288 C   0  0  0  0  0
    6.7051   18.6973   73.7094 C   0  0  0  0  0
    7.0133   20.0547   73.7654 C   0  0  0  0  0
    6.2693   20.9662   73.0170 C   0  0  0  0  0
    5.2115   20.5375   72.2065 C   0  0  0  0  0
    3.9927   21.2852   70.1425 C   0  0  0  0  0
    3.8306   22.6636   69.4845 C   0  0  0  0  0
    5.1945   23.2084   69.0544 C   0  0  0  0  0
    6.1460   21.1772   68.8340 C   0  0  0  0  0
    4.8905   20.4069   69.2450 C   0  0  0  0  0
   -1.7794   19.9312   68.0832 C   0  0  0  0  0
   -3.8060   18.5938   68.6981 C   0  0  0  0  0
   -5.3045   18.8072   68.6672 C   0  0  0  0  0
   -3.4751   17.3959   67.8282 C   0  0  0  0  0
   -3.3874   18.3199   70.1323 C   0  0  0  0  0
    0.4783   22.3988   69.5654 O   0  0  0  0  0
    1.4623   18.6928   70.9871 O   0  0  0  0  0
    4.5871   21.5059   71.4195 O   0  0  0  0  0
    5.7855   22.3356   68.1241 O   0  0  0  0  0
   -0.9910   19.0026   68.4122 O   0  0  0  0  0
   -3.1660   19.7705   68.2014 O   0  0  0  0  0
    1.8872   20.6099   69.0499 N   0  0  0  0  0
    3.7012   18.6395   71.5384 N   0  0  0  0  0
   -1.2658   21.1639   67.5743 N   0  0  0  0  0
  2  1  1  0  0  0
  2  3  1  0  0  0
  2 30  1  0  0  0
  3 28  1  0  0  0
  4 28  1  0  0  0
  4  5  1  0  0  0
  5 29  1  0  0  0
  7  8  1  0  0  0
  9 10  1  0  0  0
 11 24  1  0  0  0
 11  6  1  0  0  0
 12 24  1  0  0  0
 12 13  1  0  0  0
 12  4  1  0  0  0
 13 14  1  0  0  0
 14 25  1  0  0  0
 15 25  1  0  0  0
 15 16  1  0  0  0
 16 12  1  0  0  0
 17 27  1  0  0  0
 18 27  1  0  0  0
 18 19  1  0  0  0
 18 20  1  0  0  0
 18 21  1  0  0  0
 29  6  1  0  0  0
 30 17  1  0  0  0
  3 22  2  0  0  0
  5 23  2  0  0  0
  6  7  2  0  0  0
  8  9  2  0  0  0
 10 11  2  0  0  0
 17 26  2  0  0  0
M  END
> <rmsd>
0.726527154

$$$$
PubChem-67160109


 30 32  0  0  0  0  0  0  0  0999 V2000
    6.6128   19.1289   71.1234 C   0  0  0  0  0
    5.3977   19.5961   70.3425 C   0  0  0  0  0
    5.3779   21.0865   70.2605 C   0  0  0  0  0
    3.3192   18.5898   69.9495 C   0  0  0  0  0
    3.0303   17.1137   70.2004 C   0  0  0  0  0
    4.2559   16.2855   70.0003 C   0  0  0  0  0
    4.8304   15.6259   71.0903 C   0  0  0  0  0
    5.9860   14.8600   70.9153 C   0  0  0  0  0
    6.5844   14.7493   69.6506 C   0  0  0  0  0
    5.9865   15.3958   68.5566 C   0  0  0  0  0
    4.8311   16.1625   68.7302 C   0  0  0  0  0
    7.7939   13.9177   69.4473 C   0  0  0  0  0
    8.8698   13.8848   70.3689 C   0  0  0  0  0
    9.9757   13.0649   70.1180 C   0  0  0  0  0
   10.0312   12.2788   68.9659 C   0  0  0  0  0
    8.9820   12.3145   68.0481 C   0  0  0  0  0
    7.8741   13.1296   68.2869 C   0  0  0  0  0
    2.0484   19.3701   69.9013 C   0  0  0  0  0
    0.5381   20.8714   68.5222 C   0  0  0  0  0
    5.4139   21.6503   69.1353 O   0  0  0  0  0
    5.3107   21.8555   71.4181 O   0  0  0  0  0
    1.2991   19.4222   70.9146 O   0  0  0  0  0
    4.1873   19.1188   70.9925 N   0  0  0  0  0
    1.7046   20.0614   68.6964 N   0  0  0  0  0
    0.2395   21.5019   67.3746 N   0  0  0  0  0
   -0.8945   22.1326   67.6334 N   0  0  0  0  0
   -1.2670   21.8949   68.8823 N   0  0  0  0  0
   -0.3853   21.1031   69.4716 N   0  0  0  0  0
    9.0530   11.3362   66.5983 Cl  0  0  0  0  0
    8.9306   14.9002   71.8047 Cl  0  0  0  0  0
  2  1  1  0  0  0
  2  3  1  0  0  0
  2 23  1  0  0  0
  3 21  1  0  0  0
  4 23  1  0  0  0
  4  5  1  0  0  0
  4 18  1  0  0  0
  5  6  1  0  0  0
  7  8  1  0  0  0
  9 10  1  0  0  0
  9 12  1  0  0  0
 11  6  1  0  0  0
 13 14  1  0  0  0
 13 30  1  0  0  0
 15 16  1  0  0  0
 16 29  1  0  0  0
 17 12  1  0  0  0
 18 24  1  0  0  0
 19 28  1  0  0  0
 24 19  1  0  0  0
 26 25  1  0  0  0
 26 27  1  0  0  0
  3 20  2  0  0  0
  6  7  2  0  0  0
  8  9  2  0  0  0
 10 11  2  0  0  0
 12 13  2  0  0  0
 14 15  2  0  0  0
 16 17  2  0  0  0
 18 22  2  0  0  0
 19 25  2  0  0  0
 27 28  2  0  0  0
M  END
> <rmsd>
0.739109278

$$$$
PubChem-71573428


 31 32  0  0  0  0  0  0  0  0999 V2000
    6.5880   17.8544   70.3165 C   0  0  0  0  0
    5.8314   18.7196   69.3195 C   0  0  0  0  0
    4.9518   17.8215   68.4596 C   0  0  0  0  0
    5.0366   19.8451   70.0160 C   0  0  0  0  0
    4.2547   20.6594   69.0174 C   0  0  0  0  0
    2.7422   19.7634   70.3981 C   0  0  0  0  0
    0.5272   21.2741   68.6965 C   0  0  0  0  0
   -1.8515   21.6537   67.8183 C   0  0  0  0  0
   -2.6672   21.6860   66.6816 C   0  0  0  0  0
   -4.0280   21.9857   66.7950 C   0  0  0  0  0
   -4.5819   22.2551   68.0493 C   0  0  0  0  0
   -3.7754   22.2244   69.1900 C   0  0  0  0  0
   -2.4150   21.9245   69.0751 C   0  0  0  0  0
    5.9911   20.7477   70.8188 C   0  0  0  0  0
    5.2980   21.8492   71.5587 C   0  0  0  0  0
    4.7606   24.3534   71.6832 C   0  0  0  0  0
    3.2534   24.1788   71.5542 C   0  0  0  0  0
    5.1525   25.5901   70.8976 C   0  0  0  0  0
    5.1745   24.5366   73.1202 C   0  0  0  0  0
    4.7577   21.2715   68.0373 O   0  0  0  0  0
    1.6397   19.3816   70.8698 O   0  0  0  0  0
    0.2307   21.5435   69.8914 O   0  0  0  0  0
    4.6002   21.5844   72.5743 O   0  0  0  0  0
    6.3944   24.6559   73.4126 O   0  0  0  0  0
    4.2270   24.5747   74.1380 O   0  0  0  0  0
    2.8656   20.6561   69.3002 N   0  0  0  0  0
    3.9927   19.2817   70.8804 N   0  0  0  0  0
    1.8726   20.9411   68.3483 N   0  0  0  0  0
   -0.4609   21.3399   67.6607 N   0  0  0  0  0
    5.4414   23.1986   71.1007 N   0  0  0  0  0
   -6.4363   22.6638   68.2044 Br  0  0  0  0  0
  1  2  1  0  0  0
  2  3  1  0  0  0
  4  2  1  0  0  0
  4  5  1  0  0  0
  4 14  1  0  0  0
  4 27  1  0  0  0
  5 26  1  0  0  0
  6 27  1  0  0  0
  7 29  1  0  0  0
  9 10  1  0  0  0
 11 12  1  0  0  0
 11 31  1  0  0  0
 13  8  1  0  0  0
 14 15  1  0  0  0
 15 30  1  0  0  0
 16 30  1  0  0  0
 16 17  1  0  0  0
 16 18  1  0  0  0
 16 19  1  0  0  0
 19 25  1  0  0  0
 26  6  1  0  0  0
 26 28  1  0  0  0
 28  7  1  0  0  0
 29  8  1  0  0  0
  5 20  2  0  0  0
  6 21  2  0  0  0
  7 22  2  0  0  0
  8  9  2  0  0  0
 10 11  2  0  0  0
 12 13  2  0  0  0
 15 23  2  0  0  0
 19 24  2  0  0  0
M  END
> <rmsd>
0.700564384

$$$$
PubChem-134136725 CHEMBL3891793


 34 36  0  0  0  0  0  0  0  0999 V2000
    3.3573   18.6213   70.1573 C   0  0  0  0  0
    4.0919   18.4123   68.8371 C   0  0  0  0  0
    4.7642   17.0628   68.9309 C   0  0  0  0  0
    3.8825   16.2533   69.8478 C   0  0  0  0  0
    3.2795   17.2504   70.8160 C   0  0  0  0  0
    1.9586   19.1447   69.9557 C   0  0  0  0  0
    0.0357   19.6422   68.3201 C   0  0  0  0  0
   -0.1492   21.1083   68.5854 C   0  0  0  0  0
    0.1329   21.6543   66.1368 C   0  0  0  0  0
    1.0106   22.6589   65.4152 C   0  0  0  0  0
    2.4172   22.4187   65.7494 C   0  0  0  0  0
    3.5729   22.2107   66.0240 C   0  0  0  0  0
    4.9772   21.9489   66.3497 C   0  0  0  0  0
    5.0823   21.2009   67.6665 C   0  0  0  0  0
    3.8908   21.6541   69.6435 C   0  0  0  0  0
    4.4713   20.8771   70.7894 C   0  0  0  0  0
    3.1105   22.8420   70.2059 C   0  0  0  0  0
    2.3728   23.6218   69.1283 C   0  0  0  0  0
    3.2910   24.6595   68.5117 C   0  0  0  0  0
    1.1949   24.3357   69.7570 C   0  0  0  0  0
   -1.0110   18.7690   69.0089 C   0  0  0  0  0
   -2.3505   18.9265   68.3697 C   0  0  0  0  0
   -2.5626   18.5052   67.0503 C   0  0  0  0  0
   -3.8230   18.6503   66.4626 C   0  0  0  0  0
   -4.8743   19.2125   67.1933 C   0  0  0  0  0
   -4.6655   19.6287   68.5118 C   0  0  0  0  0
   -3.4051   19.4837   69.1001 C   0  0  0  0  0
    1.2714   19.4798   70.9586 O   0  0  0  0  0
   -0.3657   21.5179   69.7565 O   0  0  0  0  0
    5.2725   21.4478   71.5765 O   0  0  0  0  0
    1.3936   19.2109   68.6385 N   0  0  0  0  0
   -0.0409   22.0562   67.5240 N   0  0  0  0  0
    4.9656   22.1281   68.7809 N   0  0  0  0  0
    4.1350   19.5038   71.0278 N   0  0  0  0  0
  1  2  1  0  0  0
  1  6  1  0  0  0
  1 34  1  0  0  0
  2  3  1  0  0  0
  3  4  1  0  0  0
  4  5  1  0  0  0
  5  1  1  0  0  0
  6 31  1  0  0  0
  7 31  1  0  0  0
  7  8  1  0  0  0
  7 21  1  0  0  0
  8 32  1  0  0  0
  9 32  1  0  0  0
  9 10  1  0  0  0
 10 11  1  0  0  0
 13 12  1  0  0  0
 13 14  1  0  0  0
 14 33  1  0  0  0
 15 33  1  0  0  0
 15 16  1  0  0  0
 15 17  1  0  0  0
 16 34  1  0  0  0
 17 18  1  0  0  0
 18 19  1  0  0  0
 18 20  1  0  0  0
 21 22  1  0  0  0
 23 24  1  0  0  0
 25 26  1  0  0  0
 27 22  1  0  0  0
  6 28  2  0  0  0
  8 29  2  0  0  0
 16 30  2  0  0  0
 22 23  2  0  0  0
 24 25  2  0  0  0
 26 27  2  0  0  0
 11 12  3  0  0  0
M  END
> <rmsd>
0.81145829

$$$$
PubChem-89561574


 31 32  0  0  0  0  0  0  0  0999 V2000
    6.5836   17.8104   70.3005 C   0  0  0  0  0
    5.8362   18.7018   69.3196 C   0  0  0  0  0
    4.9499   17.8284   68.4414 C   0  0  0  0  0
    5.0514   19.8224   70.0359 C   0  0  0  0  0
    4.2752   20.6586   69.0500 C   0  0  0  0  0
    2.7557   19.7480   70.4125 C   0  0  0  0  0
    0.5495   21.2836   68.7220 C   0  0  0  0  0
   -1.8244   21.6714   67.8345 C   0  0  0  0  0
   -2.6329   21.7194   66.6931 C   0  0  0  0  0
   -3.9951   22.0148   66.8024 C   0  0  0  0  0
   -4.5575   22.2637   68.0571 C   0  0  0  0  0
   -3.7584   22.2170   69.2023 C   0  0  0  0  0
   -2.3968   21.9216   69.0916 C   0  0  0  0  0
    6.0165   20.6928   70.8641 C   0  0  0  0  0
    5.3615   21.8480   71.5717 C   0  0  0  0  0
    4.8882   24.2911   71.7847 C   0  0  0  0  0
    4.1988   25.0142   70.6420 C   0  0  0  0  0
    6.9183   23.5545   70.4892 C   0  0  0  0  0
    8.1857   23.0709   71.1715 C   0  0  0  0  0
    4.7788   21.2630   68.0659 O   0  0  0  0  0
    1.6504   19.3635   70.8754 O   0  0  0  0  0
    0.2451   21.5357   69.9187 O   0  0  0  0  0
    4.4909   21.6114   72.4528 O   0  0  0  0  0
    5.6532   25.1919   72.5274 O   0  0  0  0  0
    6.8284   23.0254   69.2018 O   0  0  0  0  0
    2.8855   20.6593   69.3308 N   0  0  0  0  0
    4.0024   19.2511   70.8882 N   0  0  0  0  0
    1.8973   20.9567   68.3775 N   0  0  0  0  0
   -0.4323   21.3627   67.6812 N   0  0  0  0  0
    5.7295   23.2099   71.2763 N   0  0  0  0  0
   -6.4138   22.6662   68.2063 Br  0  0  0  0  0
  1  2  1  0  0  0
  2  3  1  0  0  0
  2  4  1  0  0  0
  4  5  1  0  0  0
  4 14  1  0  0  0
  4 27  1  0  0  0
  5 26  1  0  0  0
  6 27  1  0  0  0
  7 29  1  0  0  0
  9 10  1  0  0  0
 11 12  1  0  0  0
 11 31  1  0  0  0
 13  8  1  0  0  0
 14 15  1  0  0  0
 15 30  1  0  0  0
 16 30  1  0  0  0
 16 17  1  0  0  0
 16 24  1  0  0  0
 18 30  1  0  0  0
 18 19  1  0  0  0
 18 25  1  0  0  0
 26  6  1  0  0  0
 26 28  1  0  0  0
 28  7  1  0  0  0
 29  8  1  0  0  0
  5 20  2  0  0  0
  6 21  2  0  0  0
  7 22  2  0  0  0
  8  9  2  0  0  0
 10 11  2  0  0  0
 12 13  2  0  0  0
 15 23  2  0  0  0
M  END
> <rmsd>
0.694310308

$$$$
PubChem-129114210


 31 36  0  0  0  0  0  0  0  0999 V2000
    3.8081   16.6432   74.6214 C   0  0  0  0  0
    4.8030   17.1525   73.5827 C   0  0  0  0  0
    3.9950   17.8655   72.5120 C   0  0  0  0  0
    2.4275   16.7989   74.0186 C   0  0  0  0  0
    1.5087   17.9747   71.9758 C   0  0  0  0  0
   -0.8051   18.1405   71.5842 C   0  0  0  0  0
   -0.5860   18.7614   70.3900 C   0  0  0  0  0
   -1.8512   18.9879   69.6561 C   0  0  0  0  0
   -2.9315   18.4231   70.5902 C   0  0  0  0  0
   -2.2362   17.8876   71.8502 C   0  0  0  0  0
    0.7297   19.0065   69.9752 C   0  0  0  0  0
    0.3378   20.7331   68.1663 C   0  0  0  0  0
   -0.3672   22.2676   66.8443 C   0  0  0  0  0
    0.4016   21.1160   66.8415 C   0  0  0  0  0
   -0.6947   23.0872   65.6377 C   0  0  0  0  0
    0.5653   23.7409   65.0930 C   0  0  0  0  0
   -0.4133   24.5539   65.9149 C   0  0  0  0  0
    4.2442   19.3411   72.5617 C   0  0  0  0  0
    5.9390   21.7254   70.4792 C   0  0  0  0  0
    4.2907   22.2752   68.9553 C   0  0  0  0  0
    2.6044   17.5747   72.8101 N   0  0  0  0  0
    0.2229   17.7466   72.3760 N   0  0  0  0  0
    1.7486   18.5895   70.7770 N   0  0  0  0  0
    1.0351   19.6122   68.7147 N   0  0  0  0  0
   -0.3941   21.5932   68.8967 N   0  0  0  0  0
   -0.8375   22.5317   68.0785 N   0  0  0  0  0
    4.7164   20.0072   71.3899 N   0  0  0  0  0
    4.7939   21.4064   71.3235 N   0  0  0  0  0
    5.5692   21.6012   69.0791 N   0  0  0  0  0
    4.0158   19.9930   73.6165 O   0  0  0  0  0
    3.3476   21.9672   70.4712 S   0  0  0  0  0
  1  2  1  0  0  0
  2  3  1  0  0  0
  3 21  1  0  0  0
  3 18  1  0  0  0
  4 21  1  0  0  0
  4  1  1  0  0  0
  5 23  1  0  0  0
  6 22  1  0  0  0
  7 11  1  0  0  0
  8  7  1  0  0  0
  8  9  1  0  0  0
  9 10  1  0  0  0
 10  6  1  0  0  0
 11 24  1  0  0  0
 14 12  1  0  0  0
 15 13  1  0  0  0
 15 16  1  0  0  0
 16 17  1  0  0  0
 17 15  1  0  0  0
 18 27  1  0  0  0
 19 28  1  0  0  0
 19 29  1  0  0  0
 20 29  1  0  0  0
 20 31  1  0  0  0
 21  5  1  0  0  0
 24 12  1  0  0  0
 26 25  1  0  0  0
 26 13  1  0  0  0
 27 28  1  0  0  0
 28 31  1  0  0  0
  5 22  2  0  0  0
  6  7  2  0  0  0
 11 23  2  0  0  0
 12 25  2  0  0  0
 13 14  2  0  0  0
 18 30  2  0  0  0
M  END
> <rmsd>
0.80679518

$$$$
PubChem-146116758 MolPort-047-146-494


 33 35  0  0  0  0  0  0  0  0999 V2000
    4.1037   22.7311   69.1360 N   0  0  0  0  0
   -0.6023   22.2370   67.3507 N   0  0  0  0  0
    4.7902   19.8469   71.1995 N   0  0  0  0  0
    4.9120   15.5719   71.1660 N   0  0  0  0  0
    1.9580   20.4000   68.9434 N   0  0  0  0  0
    4.0394   21.5283   68.3708 C   0  0  0  0  0
    2.7295   21.0163   67.8657 C   0  0  0  0  0
    1.9424   22.1643   67.2419 C   0  0  0  0  0
    0.5985   21.7180   66.7562 C   0  0  0  0  0
   -0.5779   23.1957   68.4484 C   0  0  0  0  0
   -1.2232   22.6002   69.6871 C   0  0  0  0  0
   -0.6736   21.5223   71.5321 C   0  0  0  0  0
    0.4364   20.7451   72.2246 C   0  0  0  0  0
    2.6120   20.4178   72.4478 C   0  0  0  0  0
    3.9815   20.7657   71.9550 C   0  0  0  0  0
    4.4663   18.4897   70.7375 C   0  0  0  0  0
    5.7912   17.7941   70.4203 C   0  0  0  0  0
    5.5811   16.3122   70.0793 C   0  0  0  0  0
    3.6226   16.2104   71.4729 C   0  0  0  0  0
    3.7750   17.6863   71.8494 C   0  0  0  0  0
    5.7637   15.5013   72.3663 C   0  0  0  0  0
    7.0925   14.8252   72.0645 C   0  0  0  0  0
    7.4645   14.0975   73.3353 C   0  0  0  0  0
    6.1483   13.6410   73.9161 C   0  0  0  0  0
    5.1139   14.6556   73.4594 C   0  0  0  0  0
    3.6439   18.5455   69.4351 C   0  0  0  0  0
    2.2871   19.1568   69.5757 C   0  0  0  0  0
    5.0973   20.8952   68.1107 O   0  0  0  0  0
    0.5250   20.8722   65.8218 O   0  0  0  0  0
   -0.4803   21.5147   70.1466 O   0  0  0  0  0
    1.6744   21.3355   71.9628 O   0  0  0  0  0
    4.4649   21.8889   72.2580 O   0  0  0  0  0
    1.4097   18.5616   70.2524 O   0  0  0  0  0
  1  6  1  0  0  0
  7  6  1  0  0  0
  7  8  1  0  0  0
  7  5  1  0  0  0
  8  9  1  0  0  0
  9  2  1  0  0  0
 10  2  1  0  0  0
 10 11  1  0  0  0
 11 30  1  0  0  0
 12 30  1  0  0  0
 12 13  1  0  0  0
 13 31  1  0  0  0
 14 31  1  0  0  0
 14 15  1  0  0  0
 15  3  1  0  0  0
 16  3  1  0  0  0
 16 17  1  0  0  0
 16 26  1  0  0  0
 17 18  1  0  0  0
 18  4  1  0  0  0
 19  4  1  0  0  0
 19 20  1  0  0  0
 20 16  1  0  0  0
 21  4  1  0  0  0
 21 22  1  0  0  0
 22 23  1  0  0  0
 23 24  1  0  0  0
 24 25  1  0  0  0
 25 21  1  0  0  0
 26 27  1  0  0  0
 27  5  1  0  0  0
  6 28  2  0  0  0
  9 29  2  0  0  0
 15 32  2  0  0  0
 27 33  2  0  0  0
M  END
> <rmsd>
0.626392543

$$$$
PubChem-73329701


 31 33  0  0  0  0  0  0  0  0999 V2000
    9.6776   17.7032   74.6282 C   0  0  0  0  0
    8.5586   18.3708   73.9139 C   0  0  0  0  0
    7.8042   17.6593   72.9771 C   0  0  0  0  0
    6.7514   18.2874   72.3051 C   0  0  0  0  0
    6.4454   19.6313   72.5648 C   0  0  0  0  0
    7.2080   20.3383   73.5067 C   0  0  0  0  0
    8.2607   19.7101   74.1788 C   0  0  0  0  0
    5.3364   20.2923   71.8557 C   0  0  0  0  0
    3.4832   20.1698   70.1302 C   0  0  0  0  0
    2.4825   19.0884   69.7202 C   0  0  0  0  0
    2.2851   19.7694   67.4558 C   0  0  0  0  0
    4.0341   20.8636   68.9141 C   0  0  0  0  0
    1.0212   22.1151   66.9388 C   0  0  0  0  0
   -0.0854   22.1394   67.9352 C   0  0  0  0  0
   -2.5482   21.6383   68.3652 C   0  0  0  0  0
   -2.4284   20.8652   69.5389 C   0  0  0  0  0
   -3.5561   20.6143   70.3269 C   0  0  0  0  0
   -4.8036   21.1187   69.9524 C   0  0  0  0  0
   -4.9318   21.8587   68.7753 C   0  0  0  0  0
   -3.8088   22.1110   67.9833 C   0  0  0  0  0
    5.0643   21.5007   72.0958 O   0  0  0  0  0
    4.9777   21.6893   69.0275 O   0  0  0  0  0
    0.1709   22.4249   69.1348 O   0  0  0  0  0
    4.5621   19.5619   70.8989 N   0  0  0  0  0
    1.5606   19.6067   68.7163 N   0  0  0  0  0
    3.4625   20.6204   67.6264 N   0  0  0  0  0
   -1.4319   21.9070   67.5072 N   0  0  0  0  0
    1.7306   18.6505   70.8829 N   0  0  0  0  0
    1.1764   20.4619   66.1811 S   0  0  0  0  0
   -5.8916   20.8743   70.7210 F   0  0  0  0  0
   -1.2484   20.3017   69.8949 F   0  0  0  0  0
  1  2  1  0  0  0
  3  4  1  0  0  0
  5  6  1  0  0  0
  5  8  1  0  0  0
  7  2  1  0  0  0
  8 24  1  0  0  0
  9 24  1  0  0  0
  9 10  1  0  0  0
  9 12  1  0  0  0
 10 25  1  0  0  0
 10 28  1  0  0  0
 11 25  1  0  0  0
 11 26  1  0  0  0
 11 29  1  0  0  0
 13 29  1  0  0  0
 13 14  1  0  0  0
 14 27  1  0  0  0
 16 17  1  0  0  0
 16 31  1  0  0  0
 18 19  1  0  0  0
 18 30  1  0  0  0
 20 15  1  0  0  0
 26 12  1  0  0  0
 27 15  1  0  0  0
  2  3  2  0  0  0
  4  5  2  0  0  0
  6  7  2  0  0  0
  8 21  2  0  0  0
 12 22  2  0  0  0
 14 23  2  0  0  0
 15 16  2  0  0  0
 17 18  2  0  0  0
 19 20  2  0  0  0
M  END
> <rmsd>
0.627084553

$$$$
PubChem-133067020 643562653 MCULE-7486410361


 29 30  0  0  0  0  0  0  0  0999 V2000
    4.1081   19.8875   73.8200 C   0  0  0  0  0
    3.7194   20.2526   72.4010 C   0  0  0  0  0
    4.8480   20.9472   71.7066 C   0  0  0  0  0
    6.5871   20.9553   69.8556 C   0  0  0  0  0
    5.9815   22.0706   69.0159 C   0  0  0  0  0
    4.8128   21.5405   66.8912 C   0  0  0  0  0
    5.9233   21.9507   66.1332 C   0  0  0  0  0
    5.8936   21.9019   64.7396 C   0  0  0  0  0
    4.7528   21.4419   64.0851 C   0  0  0  0  0
    3.6422   21.0339   64.8250 C   0  0  0  0  0
    3.6509   21.0770   66.2291 C   0  0  0  0  0
    2.4285   20.6435   66.9519 C   0  0  0  0  0
    1.0926   20.4390   69.0903 C   0  0  0  0  0
    1.3462   20.2539   70.5823 C   0  0  0  0  0
    2.1362   19.0127   70.8620 C   0  0  0  0  0
    0.0988   21.5330   68.8726 C   0  0  0  0  0
   -2.1142   22.2600   67.8816 C   0  0  0  0  0
   -1.6160   23.1301   66.7384 C   0  0  0  0  0
   -1.6195   22.3445   65.4411 C   0  0  0  0  0
   -2.5212   24.3347   66.5941 C   0  0  0  0  0
    5.1614   22.1168   72.0565 O   0  0  0  0  0
    4.8612   21.5812   68.2880 O   0  0  0  0  0
    1.4487   20.1946   66.2947 O   0  0  0  0  0
    1.7511   17.9085   70.3951 O   0  0  0  0  0
    0.3534   22.7083   69.2544 O   0  0  0  0  0
    5.5614   20.2947   70.6517 N   0  0  0  0  0
    2.3314   20.7369   68.3789 N   0  0  0  0  0
    3.3072   19.0558   71.6795 N   0  0  0  0  0
   -1.1320   21.2360   68.2112 N   0  0  0  0  0
  2  1  1  0  0  0
  2  3  1  0  0  0
  2 28  1  0  0  0
  3 26  1  0  0  0
  4 26  1  0  0  0
  4  5  1  0  0  0
  5 22  1  0  0  0
  6 22  1  0  0  0
  7  8  1  0  0  0
  9 10  1  0  0  0
 11 12  1  0  0  0
 11  6  1  0  0  0
 12 27  1  0  0  0
 13 27  1  0  0  0
 13 14  1  0  0  0
 13 16  1  0  0  0
 14 15  1  0  0  0
 15 28  1  0  0  0
 16 29  1  0  0  0
 17 29  1  0  0  0
 17 18  1  0  0  0
 18 19  1  0  0  0
 18 20  1  0  0  0
  3 21  2  0  0  0
  6  7  2  0  0  0
  8  9  2  0  0  0
 10 11  2  0  0  0
 12 23  2  0  0  0
 15 24  2  0  0  0
 16 25  2  0  0  0
M  END
> <rmsd>
0.862651527

$$$$
PubChem-137475107


 23 24  0  0  0  0  0  0  0  0999 V2000
    5.3629   21.5346   65.4381 C   0  0  0  0  0
    4.2254   22.0523   66.2925 C   0  0  0  0  0
    2.9740   21.2655   65.9363 C   0  0  0  0  0
    4.0218   23.5245   65.9652 C   0  0  0  0  0
    3.5376   22.3685   68.5924 C   0  0  0  0  0
    3.9591   22.1921   70.0125 C   0  0  0  0  0
    3.7868   19.6200   69.9197 C   0  0  0  0  0
    4.2970   18.5098   70.8646 C   0  0  0  0  0
    4.7302   20.5671   71.8116 C   0  0  0  0  0
    2.3077   19.4961   69.7337 C   0  0  0  0  0
    0.3553   19.3011   68.1368 C   0  0  0  0  0
   -0.1611   20.6993   68.1393 C   0  0  0  0  0
    4.5832   21.8661   67.7026 N   0  0  0  0  0
    4.1141   20.8800   70.5789 N   0  0  0  0  0
    4.8604   19.1809   72.0313 N   0  0  0  0  0
    1.7832   19.2955   68.4203 N   0  0  0  0  0
   -0.1498   21.5111   67.0687 N   0  0  0  0  0
   -0.6333   22.6581   67.5167 N   0  0  0  0  0
   -0.9181   22.5517   68.8053 N   0  0  0  0  0
   -0.6273   21.3326   69.2291 N   0  0  0  0  0
    4.1725   23.2160   70.7139 O   0  0  0  0  0
    5.1370   21.4309   72.6327 O   0  0  0  0  0
    1.5329   19.5790   70.7260 O   0  0  0  0  0
  1  2  1  0  0  0
  2  3  1  0  0  0
  2  4  1  0  0  0
  2 13  1  0  0  0
  5 13  1  0  0  0
  5  6  1  0  0  0
  6 14  1  0  0  0
  7 14  1  0  0  0
  7  8  1  0  0  0
  7 10  1  0  0  0
  8 15  1  0  0  0
  9 14  1  0  0  0
 10 16  1  0  0  0
 11 16  1  0  0  0
 11 12  1  0  0  0
 12 20  1  0  0  0
 15  9  1  0  0  0
 18 17  1  0  0  0
 18 19  1  0  0  0
  6 21  2  0  0  0
  9 22  2  0  0  0
 10 23  2  0  0  0
 12 17  2  0  0  0
 19 20  2  0  0  0
M  END
> <rmsd>
0.886704862

$$$$
PubChem-139233911


 23 25  0  0  0  0  0  0  0  0999 V2000
    1.3265   24.8415   72.7447 C   0  0  0  0  0
    2.1164   24.3108   71.7220 C   0  0  0  0  0
    1.5260   23.6236   70.6491 C   0  0  0  0  0
    0.1211   23.5184   70.5918 C   0  0  0  0  0
   -0.6638   24.0550   71.6168 C   0  0  0  0  0
   -0.0626   24.7090   72.6946 C   0  0  0  0  0
    0.2278   22.2191   68.5302 C   0  0  0  0  0
    1.6924   21.9506   68.7279 C   0  0  0  0  0
    2.3661   23.1124   69.4931 C   0  0  0  0  0
    3.7984   22.7545   69.9065 C   0  0  0  0  0
    3.8015   21.5056   70.7277 C   0  0  0  0  0
    1.9289   20.5928   69.3564 C   0  0  0  0  0
    3.0027   19.1641   71.1189 C   0  0  0  0  0
    4.6662   22.6021   68.7314 C   0  0  0  0  0
   -0.8468   25.2335   73.7126 O   0  0  0  0  0
   -0.5033   22.8915   69.5109 O   0  0  0  0  0
    4.5401   21.4566   71.7478 O   0  0  0  0  0
    1.9881   18.4265   71.2382 O   0  0  0  0  0
   -0.3688   21.7900   67.4687 N   0  0  0  0  0
    2.9180   20.4131   70.3985 N   0  0  0  0  0
    1.3959   19.5566   68.7910 N   0  0  0  0  0
    4.2330   18.7411   71.7007 N   0  0  0  0  0
    5.3499   22.4819   67.8054 N   0  0  0  0  0
  2  3  1  0  0  0
  4  5  1  0  0  0
  4 16  1  0  0  0
  6 15  1  0  0  0
  6  1  1  0  0  0
  7 16  1  0  0  0
  8  7  1  0  0  0
  8  9  1  0  0  0
  8 12  1  0  0  0
  9 10  1  0  0  0
  9  3  1  0  0  0
 10 11  1  0  0  0
 10 14  1  0  0  0
 11 20  1  0  0  0
 13 22  1  0  0  0
 20 12  1  0  0  0
 20 13  1  0  0  0
  1  2  2  0  0  0
  3  4  2  0  0  0
  5  6  2  0  0  0
  7 19  2  0  0  0
 11 17  2  0  0  0
 12 21  2  0  0  0
 13 18  2  0  0  0
 14 23  3  0  0  0
M  END
> <rmsd>
0.766263068

$$$$
PubChem-17757689


 33 34  0  0  0  0  0  0  0  0999 V2000
    4.7560   19.7448   67.1325 C   0  0  0  0  0
    4.9728   20.3385   68.5106 C   0  0  0  0  0
    3.8700   19.8838   69.4658 C   0  0  0  0  0
    4.2514   20.1458   70.8894 C   0  0  0  0  0
    4.7595   19.0874   73.1679 C   0  0  0  0  0
    4.9691   20.3047   73.8346 C   0  0  0  0  0
    5.2987   20.3190   75.1929 C   0  0  0  0  0
    5.4209   19.1164   75.8944 C   0  0  0  0  0
    5.2129   17.9008   75.2369 C   0  0  0  0  0
    4.8833   17.8881   73.8782 C   0  0  0  0  0
    5.7591   19.1298   77.2891 C   0  0  0  0  0
    6.0431   19.1411   78.4610 C   0  0  0  0  0
    6.3810   19.1545   79.8559 C   0  0  0  0  0
    6.9422   20.3005   80.4288 C   0  0  0  0  0
    7.2713   20.3135   81.7878 C   0  0  0  0  0
    7.0395   19.1806   82.5743 C   0  0  0  0  0
    6.4785   18.0346   82.0018 C   0  0  0  0  0
    6.1493   18.0215   80.6428 C   0  0  0  0  0
    1.3487   20.0848   69.6798 C   0  0  0  0  0
    0.0873   20.8067   69.3311 C   0  0  0  0  0
   -0.2281   20.6827   67.8394 C   0  0  0  0  0
   -0.5300   19.2622   67.4583 C   0  0  0  0  0
    1.4429   19.2139   65.8965 C   0  0  0  0  0
    0.0215   17.1819   66.1686 C   0  0  0  0  0
    4.4089   21.3300   71.2931 O   0  0  0  0  0
    1.2963   19.0781   70.4352 O   0  0  0  0  0
   -1.5251   18.6824   67.9736 O   0  0  0  0  0
   -1.3157   21.4932   67.5077 O   0  0  0  0  0
    0.2104   22.1513   69.6869 O   0  0  0  0  0
    5.0171   21.7318   68.4205 O   0  0  0  0  0
    4.4190   19.0325   71.7761 N   0  0  0  0  0
    2.5996   20.5276   69.1447 N   0  0  0  0  0
    0.3014   18.5641   66.5196 N   0  0  0  0  0
  2  1  1  0  0  0
  2  3  1  0  0  0
  2 30  1  0  0  0
  3  4  1  0  0  0
  3 32  1  0  0  0
  4 31  1  0  0  0
  6  7  1  0  0  0
  8  9  1  0  0  0
  8 11  1  0  0  0
 10  5  1  0  0  0
 13 12  1  0  0  0
 14 15  1  0  0  0
 16 17  1  0  0  0
 18 13  1  0  0  0
 20 19  1  0  0  0
 20 21  1  0  0  0
 20 29  1  0  0  0
 21 22  1  0  0  0
 21 28  1  0  0  0
 22 33  1  0  0  0
 23 33  1  0  0  0
 24 33  1  0  0  0
 31  5  1  0  0  0
 32 19  1  0  0  0
  4 25  2  0  0  0
  5  6  2  0  0  0
  7  8  2  0  0  0
  9 10  2  0  0  0
 13 14  2  0  0  0
 15 16  2  0  0  0
 17 18  2  0  0  0
 19 26  2  0  0  0
 22 27  2  0  0  0
 11 12  3  0  0  0
M  END
> <rmsd>
0.655046701

$$$$
PubChem-135519759 MCULE-3170242862 MolPort-019-762-880


 25 27  0  0  0  0  0  0  0  0999 V2000
    0.2405   24.3675   67.1565 C   0  0  0  0  0
   -0.3285   23.3422   68.1198 C   0  0  0  0  0
    0.7675   22.7183   68.9870 C   0  0  0  0  0
    1.8533   21.9760   68.1845 C   0  0  0  0  0
    1.3667   20.6477   67.5778 C   0  0  0  0  0
    2.2505   19.5746   69.6984 C   0  0  0  0  0
    3.0864   20.6737   69.9236 C   0  0  0  0  0
    4.2822   22.4205   68.5825 C   0  0  0  0  0
    4.3252   23.8637   68.2668 C   0  0  0  0  0
    5.4293   24.4093   67.5998 C   0  0  0  0  0
    5.4786   25.7761   67.3218 C   0  0  0  0  0
    4.4185   26.5905   67.7229 C   0  0  0  0  0
    3.2909   24.7228   68.6581 C   0  0  0  0  0
    3.8894   20.6671   71.0773 C   0  0  0  0  0
    3.0487   18.5331   71.6624 C   0  0  0  0  0
   -1.0364   22.3669   67.4153 O   0  0  0  0  0
    0.2019   21.9046   69.9716 O   0  0  0  0  0
    5.3406   21.7395   68.4899 O   0  0  0  0  0
    4.6268   21.6484   71.3585 O   0  0  0  0  0
    1.3970   19.5555   68.5512 N   0  0  0  0  0
    3.0625   21.7738   68.9910 N   0  0  0  0  0
    3.3560   26.0522   68.3786 N   0  0  0  0  0
    3.8554   19.5970   71.9140 N   0  0  0  0  0
    3.0335   17.4267   72.5557 N   0  0  0  0  0
    2.2494   18.5289   70.5643 N   0  0  0  0  0
  2  1  1  0  0  0
  2 16  1  0  0  0
  2  3  1  0  0  0
  3 17  1  0  0  0
  3  4  1  0  0  0
  4  5  1  0  0  0
  4 21  1  0  0  0
  5 20  1  0  0  0
  6 25  1  0  0  0
  7 21  1  0  0  0
  7 14  1  0  0  0
  8  9  1  0  0  0
 10 11  1  0  0  0
 12 22  1  0  0  0
 13  9  1  0  0  0
 14 23  1  0  0  0
 15 24  1  0  0  0
 20  6  1  0  0  0
 21  8  1  0  0  0
 23 15  1  0  0  0
  6  7  2  0  0  0
  8 18  2  0  0  0
  9 10  2  0  0  0
 11 12  2  0  0  0
 13 22  2  0  0  0
 14 19  2  0  0  0
 15 25  2  0  0  0
M  END
> <rmsd>
0.59289825

$$$$
PubChem-73329788


 33 36  0  0  0  0  0  0  0  0999 V2000
   -6.0488   19.1816   71.0534 C   0  0  0  0  0
   -4.1307   20.4122   71.0539 C   0  0  0  0  0
   -4.3185   19.9545   69.7881 C   0  0  0  0  0
   -3.4232   20.2371   68.7584 C   0  0  0  0  0
   -2.2983   21.0282   69.0626 C   0  0  0  0  0
   -2.1147   21.5103   70.3848 C   0  0  0  0  0
   -3.0382   21.2028   71.4006 C   0  0  0  0  0
   -0.1419   22.0622   68.1395 C   0  0  0  0  0
    0.7023   22.3092   66.9363 C   0  0  0  0  0
    2.3513   20.1449   67.2296 C   0  0  0  0  0
    4.2976   20.6645   68.4871 C   0  0  0  0  0
    3.6506   20.4655   69.8594 C   0  0  0  0  0
    2.3011   19.8217   69.7321 C   0  0  0  0  0
    4.8965   20.0501   72.0167 C   0  0  0  0  0
    5.7823   19.1892   72.8196 C   0  0  0  0  0
    6.3273   18.0227   72.2620 C   0  0  0  0  0
    7.1634   17.1991   73.0217 C   0  0  0  0  0
    7.4586   17.5363   74.3485 C   0  0  0  0  0
    6.9215   18.6988   74.9107 C   0  0  0  0  0
    6.0864   19.5225   74.1492 C   0  0  0  0  0
   -5.1582   19.9668   71.8618 O   0  0  0  0  0
   -5.4754   19.2024   69.7369 O   0  0  0  0  0
    0.2309   22.5229   69.2516 O   0  0  0  0  0
    1.6701   19.4656   70.7616 O   0  0  0  0  0
    4.4658   21.1365   72.4947 O   0  0  0  0  0
   -1.3694   21.3304   68.0122 N   0  0  0  0  0
    3.3248   21.1947   67.5369 N   0  0  0  0  0
    1.7068   19.6488   68.4439 N   0  0  0  0  0
    4.5172   19.6487   70.6964 N   0  0  0  0  0
    5.4104   21.5911   68.6021 N   0  0  0  0  0
    1.0931   20.7565   66.0539 S   0  0  0  0  0
    8.2674   16.7429   75.0920 F   0  0  0  0  0
    7.6830   16.0751   72.4684 F   0  0  0  0  0
  1 21  1  0  0  0
  1 22  1  0  0  0
  2 21  1  0  0  0
  3 22  1  0  0  0
  3  4  1  0  0  0
  5  6  1  0  0  0
  5 26  1  0  0  0
  7  2  1  0  0  0
  9  8  1  0  0  0
  9 31  1  0  0  0
 10 31  1  0  0  0
 10 27  1  0  0  0
 10 28  1  0  0  0
 11 27  1  0  0  0
 11 12  1  0  0  0
 11 30  1  0  0  0
 12 13  1  0  0  0
 12 29  1  0  0  0
 13 28  1  0  0  0
 14 15  1  0  0  0
 16 17  1  0  0  0
 17 33  1  0  0  0
 18 19  1  0  0  0
 18 32  1  0  0  0
 20 15  1  0  0  0
 26  8  1  0  0  0
 29 14  1  0  0  0
  2  3  2  0  0  0
  4  5  2  0  0  0
  6  7  2  0  0  0
  8 23  2  0  0  0
 13 24  2  0  0  0
 14 25  2  0  0  0
 15 16  2  0  0  0
 17 18  2  0  0  0
 19 20  2  0  0  0
M  END
> <rmsd>
0.679636657

$$$$
PubChem-140277391


 31 33  0  0  0  0  0  0  0  0999 V2000
    0.2959   22.7333   66.6351 C   0  0  0  0  0
    0.1508   21.4392   67.4126 C   0  0  0  0  0
    0.8291   21.5351   68.7376 C   0  0  0  0  0
    2.6124   20.6785   70.3129 C   0  0  0  0  0
    2.5541   19.3204   70.9577 C   0  0  0  0  0
    4.8520   19.1536   72.1801 C   0  0  0  0  0
    5.2226   20.5191   72.1990 C   0  0  0  0  0
    6.2926   20.9305   73.0090 C   0  0  0  0  0
    7.0330   19.9981   73.7364 C   0  0  0  0  0
    6.6983   18.6473   73.6813 C   0  0  0  0  0
    5.6103   18.2333   72.9135 C   0  0  0  0  0
    4.0083   21.2870   70.1381 C   0  0  0  0  0
    4.8989   20.4018   69.2390 C   0  0  0  0  0
    6.1634   21.1627   68.8352 C   0  0  0  0  0
    5.2306   23.2029   69.0551 C   0  0  0  0  0
    3.8615   22.6705   69.4849 C   0  0  0  0  0
   -1.7864   19.8320   67.2907 C   0  0  0  0  0
   -3.8055   18.3479   67.2306 C   0  0  0  0  0
   -3.6709   17.9533   65.7698 C   0  0  0  0  0
   -5.2773   18.4962   67.5528 C   0  0  0  0  0
   -3.2281   17.2555   68.1144 C   0  0  0  0  0
    0.4547   22.3915   69.5847 O   0  0  0  0  0
    1.4446   18.7246   70.9688 O   0  0  0  0  0
    4.6025   21.4961   71.4170 O   0  0  0  0  0
    5.8145   22.3248   68.1255 O   0  0  0  0  0
   -1.0260   18.9194   66.8648 O   0  0  0  0  0
   -3.1549   19.5963   67.4797 O   0  0  0  0  0
    1.8989   20.6390   69.0387 N   0  0  0  0  0
    3.6779   18.6451   71.5349 N   0  0  0  0  0
   -1.2578   21.1233   67.5909 N   0  0  0  0  0
    6.6484   22.2383   73.0532 F   0  0  0  0  0
  2  1  1  0  0  0
  2  3  1  0  0  0
  2 30  1  0  0  0
  3 28  1  0  0  0
  4 28  1  0  0  0
  4  5  1  0  0  0
  5 29  1  0  0  0
  7  8  1  0  0  0
  7 24  1  0  0  0
  8 31  1  0  0  0
  9 10  1  0  0  0
 11  6  1  0  0  0
 12 24  1  0  0  0
 12 13  1  0  0  0
 12  4  1  0  0  0
 13 14  1  0  0  0
 14 25  1  0  0  0
 15 25  1  0  0  0
 15 16  1  0  0  0
 16 12  1  0  0  0
 17 27  1  0  0  0
 18 27  1  0  0  0
 18 19  1  0  0  0
 18 20  1  0  0  0
 18 21  1  0  0  0
 29  6  1  0  0  0
 30 17  1  0  0  0
  3 22  2  0  0  0
  5 23  2  0  0  0
  6  7  2  0  0  0
  8  9  2  0  0  0
 10 11  2  0  0  0
 17 26  2  0  0  0
M  END
> <rmsd>
0.730863571

$$$$
PubChem-162453744


 28 30  0  0  0  0  0  0  0  0999 V2000
    6.8416   19.1225   66.7821 C   0  0  0  0  0
    6.3960   20.3851   68.8469 C   0  0  0  0  0
    6.5809   20.5446   70.3186 C   0  0  0  0  0
    8.0587   20.7192   70.6548 C   0  0  0  0  0
    8.2689   21.0034   72.1521 C   0  0  0  0  0
    7.1629   20.4251   73.0541 C   0  0  0  0  0
    6.5669   19.1385   72.4830 C   0  0  0  0  0
    5.9890   19.3422   71.0728 C   0  0  0  0  0
    3.7655   20.4654   71.6836 C   0  0  0  0  0
    2.2609   20.4332   71.6124 C   0  0  0  0  0
    1.6324   21.8288   71.5672 C   0  0  0  0  0
    1.8254   22.4650   70.1938 C   0  0  0  0  0
    1.4277   21.4853   69.0819 C   0  0  0  0  0
   -0.3254   20.3747   67.9301 C   0  0  0  0  0
   -1.5906   20.8912   67.2940 C   0  0  0  0  0
   -0.6792   22.5091   68.6749 C   0  0  0  0  0
    9.6586   20.5549   72.6055 C   0  0  0  0  0
    6.9986   19.3167   68.1792 O   0  0  0  0  0
    5.6855   21.2176   68.2214 O   0  0  0  0  0
    4.3444   21.4000   72.3011 O   0  0  0  0  0
    4.5300   19.4022   71.1007 N   0  0  0  0  0
    2.1623   20.2252   69.2673 N   0  0  0  0  0
    1.7736   19.6255   70.4864 N   0  0  0  0  0
   -0.0244   21.2588   69.0429 N   0  0  0  0  0
   -1.8343   22.2133   67.8401 N   0  0  0  0  0
   10.6254   21.1853   71.8429 F   0  0  0  0  0
    9.8510   20.8963   73.9322 F   0  0  0  0  0
    9.7927   19.1843   72.4654 F   0  0  0  0  0
  1 18  1  0  0  0
  2 18  1  0  0  0
  3  2  1  0  0  0
  3  4  1  0  0  0
  4  5  1  0  0  0
  5  6  1  0  0  0
  5 17  1  0  0  0
  6  7  1  0  0  0
  7  8  1  0  0  0
  8 21  1  0  0  0
  8  3  1  0  0  0
 10  9  1  0  0  0
 10 11  1  0  0  0
 10 23  1  0  0  0
 11 12  1  0  0  0
 12 13  1  0  0  0
 13 22  1  0  0  0
 13 24  1  0  0  0
 14 24  1  0  0  0
 14 15  1  0  0  0
 15 25  1  0  0  0
 16 25  1  0  0  0
 16 24  1  0  0  0
 17 26  1  0  0  0
 17 27  1  0  0  0
 17 28  1  0  0  0
 21  9  1  0  0  0
 22 23  1  0  0  0
  2 19  2  0  0  0
  9 20  2  0  0  0
M  END
> <rmsd>
0.722322106

$$$$
PubChem-89792074


 25 26  0  0  0  0  0  0  0  0999 V2000
    4.8946   19.1609   66.7911 C   0  0  0  0  0
    4.5844   18.5121   68.1314 C   0  0  0  0  0
    3.8255   17.2191   67.9063 C   0  0  0  0  0
    3.7944   19.4373   69.0621 C   0  0  0  0  0
    4.6373   20.5292   69.6457 C   0  0  0  0  0
    4.7644   20.6634   71.1027 C   0  0  0  0  0
    4.0503   19.9139   73.4160 C   0  0  0  0  0
    3.4387   18.6746   74.0409 C   0  0  0  0  0
    2.0153   19.0388   74.3926 C   0  0  0  0  0
    2.0465   20.5231   74.6748 C   0  0  0  0  0
    3.1597   21.0825   73.8106 C   0  0  0  0  0
    1.2957   19.7819   68.9120 C   0  0  0  0  0
    0.0961   20.3688   68.2023 C   0  0  0  0  0
    0.4744   20.8862   66.7954 C   0  0  0  0  0
    0.8121   19.7504   65.8286 C   0  0  0  0  0
   -0.3540   18.7762   65.7346 C   0  0  0  0  0
   -0.6448   18.1868   67.1083 C   0  0  0  0  0
   -1.0137   19.3018   68.0871 C   0  0  0  0  0
    5.2155   21.3534   68.8872 O   0  0  0  0  0
    5.4923   21.5725   71.5881 O   0  0  0  0  0
    1.1317   19.1367   69.9849 O   0  0  0  0  0
   -1.4879   22.0271   68.4177 O   0  0  0  0  0
    4.0552   19.7706   71.9674 N   0  0  0  0  0
    2.6175   19.9933   68.4068 N   0  0  0  0  0
   -0.3901   21.4898   69.0093 N   0  0  0  0  0
  1  2  1  0  0  0
  2  3  1  0  0  0
  4  2  1  0  0  0
  4  5  1  0  0  0
  4 24  1  0  0  0
  5  6  1  0  0  0
  6 23  1  0  0  0
  7 23  1  0  0  0
  7  8  1  0  0  0
  8  9  1  0  0  0
  9 10  1  0  0  0
 10 11  1  0  0  0
 11  7  1  0  0  0
 13 12  1  0  0  0
 13 14  1  0  0  0
 13 25  1  0  0  0
 14 15  1  0  0  0
 15 16  1  0  0  0
 16 17  1  0  0  0
 17 18  1  0  0  0
 18 13  1  0  0  0
 24 12  1  0  0  0
 25 22  1  0  0  0
  5 19  2  0  0  0
  6 20  2  0  0  0
 12 21  2  0  0  0
M  END
> <rmsd>
0.861695766

$$$$
PubChem-139947468


 28 30  0  0  0  0  0  0  0  0999 V2000
    3.4857   21.6988   68.8174 C   0  0  0  0  0
    4.8158   21.1658   69.3465 C   0  0  0  0  0
    4.7908   21.0380   70.8718 C   0  0  0  0  0
    3.6501   20.1256   71.3194 C   0  0  0  0  0
    2.2980   20.5998   70.7507 C   0  0  0  0  0
    2.3075   20.8000   69.2115 C   0  0  0  0  0
    1.0451   21.4891   68.7419 C   0  0  0  0  0
    0.3974   21.0981   67.4388 C   0  0  0  0  0
   -1.0652   20.6648   67.5677 C   0  0  0  0  0
   -1.2375   19.4536   68.4327 C   0  0  0  0  0
    1.1556   19.7722   71.2660 C   0  0  0  0  0
    0.0280   17.6851   71.4072 C   0  0  0  0  0
   -0.0684   16.3412   71.0367 C   0  0  0  0  0
   -1.1148   15.5551   71.5303 C   0  0  0  0  0
   -2.0656   16.1105   72.3941 C   0  0  0  0  0
   -1.9750   17.4549   72.7689 C   0  0  0  0  0
   -0.9315   18.2441   72.2787 C   0  0  0  0  0
   -0.8265   19.5884   72.6345 C   0  0  0  0  0
    0.2221   20.3581   72.1272 C   0  0  0  0  0
    0.6029   22.4418   69.3679 O   0  0  0  0  0
   -0.6561   18.3791   68.1285 O   0  0  0  0  0
   -2.0603   19.4938   69.5519 O   0  0  0  0  0
    2.4440   19.5637   68.5686 O   0  0  0  0  0
    3.9250   18.8075   70.9440 O   0  0  0  0  0
    4.6637   22.2933   71.4733 O   0  0  0  0  0
    5.8544   22.0085   68.9501 O   0  0  0  0  0
   -1.8947   21.7683   68.0275 N   0  0  0  0  0
    1.0391   18.4568   70.9283 N   0  0  0  0  0
  1  2  1  0  0  0
  2  3  1  0  0  0
  2 26  1  0  0  0
  3  4  1  0  0  0
  3 25  1  0  0  0
  4  5  1  0  0  0
  4 24  1  0  0  0
  5  6  1  0  0  0
  5 11  1  0  0  0
  6  7  1  0  0  0
  6 23  1  0  0  0
  6  1  1  0  0  0
  8  7  1  0  0  0
  8  9  1  0  0  0
  9 10  1  0  0  0
  9 27  1  0  0  0
 10 22  1  0  0  0
 12 28  1  0  0  0
 13 14  1  0  0  0
 15 16  1  0  0  0
 17 18  1  0  0  0
 17 12  1  0  0  0
 19 11  1  0  0  0
  7 20  2  0  0  0
 10 21  2  0  0  0
 11 28  2  0  0  0
 12 13  2  0  0  0
 14 15  2  0  0  0
 16 17  2  0  0  0
 18 19  2  0  0  0
M  END
> <rmsd>
0.913694143

$$$$
PubChem-101807761


 38 40  0  0  0  0  0  0  0  0999 V2000
   -0.5097   19.0202   68.3734 C   0  0  0  0  0
    0.0057   20.1070   69.3052 C   0  0  0  0  0
   -0.4176   21.4653   68.8462 C   0  0  0  0  0
   -0.2352   23.1547   66.9653 C   0  0  0  0  0
    1.1782   23.6077   67.2081 C   0  0  0  0  0
    2.2228   22.6799   67.2195 C   0  0  0  0  0
    3.5366   23.0613   67.5062 C   0  0  0  0  0
    3.8193   24.4214   67.7523 C   0  0  0  0  0
    2.7689   25.3578   67.7196 C   0  0  0  0  0
    1.4570   24.9531   67.4553 C   0  0  0  0  0
    5.4923   26.1903   68.2127 C   0  0  0  0  0
    4.5470   21.9935   67.6448 C   0  0  0  0  0
    4.3274   20.6513   67.3911 C   0  0  0  0  0
    5.6932   18.5981   67.7907 C   0  0  0  0  0
    4.5041   17.8084   68.3369 C   0  0  0  0  0
    4.4025   17.9191   69.8529 C   0  0  0  0  0
    3.6524   19.1765   70.2829 C   0  0  0  0  0
    2.1741   19.0383   70.0940 C   0  0  0  0  0
    4.6057   20.6563   72.0910 C   0  0  0  0  0
    4.4026   20.0941   74.5268 C   0  0  0  0  0
    5.0939   18.7442   74.4505 C   0  0  0  0  0
    2.8951   19.9039   74.5160 C   0  0  0  0  0
    4.7909   20.7569   75.8306 C   0  0  0  0  0
   -0.5715   23.2282   65.5119 C   0  0  0  0  0
   -0.2445   22.3790   63.1615 C   0  0  0  0  0
   -0.6740   22.3516   69.7036 O   0  0  0  0  0
    5.1308   24.8287   68.0266 O   0  0  0  0  0
    1.5586   18.0610   70.5985 O   0  0  0  0  0
    5.0100   21.4805   71.2283 O   0  0  0  0  0
    4.8170   20.9349   73.4481 O   0  0  0  0  0
   -1.4162   24.0745   65.1153 O   0  0  0  0  0
   -0.4257   21.7902   67.4522 N   0  0  0  0  0
    5.4389   20.0313   67.8239 N   0  0  0  0  0
    1.4618   20.0605   69.3931 N   0  0  0  0  0
    3.9362   19.4600   71.6803 N   0  0  0  0  0
    6.2903   20.9282   68.2912 N   0  0  0  0  0
    5.7663   22.1410   68.2035 N   0  0  0  0  0
    0.0635   22.3498   64.5809 N   0  0  0  0  0
  2  1  1  0  0  0
  2  3  1  0  0  0
  2 34  1  0  0  0
  3 32  1  0  0  0
  4 32  1  0  0  0
  4  5  1  0  0  0
  4 24  1  0  0  0
  5  6  1  0  0  0
  7  8  1  0  0  0
  7 12  1  0  0  0
  8 27  1  0  0  0
  9 10  1  0  0  0
 11 27  1  0  0  0
 12 37  1  0  0  0
 13 33  1  0  0  0
 14 33  1  0  0  0
 14 15  1  0  0  0
 15 16  1  0  0  0
 16 17  1  0  0  0
 17 18  1  0  0  0
 17 35  1  0  0  0
 18 34  1  0  0  0
 19 30  1  0  0  0
 20 30  1  0  0  0
 20 21  1  0  0  0
 20 22  1  0  0  0
 20 23  1  0  0  0
 24 38  1  0  0  0
 25 38  1  0  0  0
 33 36  1  0  0  0
 35 19  1  0  0  0
  3 26  2  0  0  0
  6  7  2  0  0  0
  8  9  2  0  0  0
 10  5  2  0  0  0
 12 13  2  0  0  0
 18 28  2  0  0  0
 19 29  2  0  0  0
 24 31  2  0  0  0
 36 37  2  0  0  0
M  END
> <rmsd>
0.674453139

$$$$
PubChem-101807761


 38 40  0  0  0  0  0  0  0  0999 V2000
   -0.4237   19.0588   68.1960 C   0  0  0  0  0
   -0.0121   20.0871   69.2393 C   0  0  0  0  0
   -0.5740   21.4366   68.9268 C   0  0  0  0  0
   -0.5793   23.3259   67.2369 C   0  0  0  0  0
    0.7834   23.8911   67.5293 C   0  0  0  0  0
    1.9162   23.0776   67.4438 C   0  0  0  0  0
    3.1874   23.5572   67.7719 C   0  0  0  0  0
    3.3339   24.9051   68.1620 C   0  0  0  0  0
    2.1943   25.7287   68.2273 C   0  0  0  0  0
    0.9275   25.2239   67.9188 C   0  0  0  0  0
    4.8243   26.7750   68.8114 C   0  0  0  0  0
    4.3014   22.5883   67.7979 C   0  0  0  0  0
    4.2157   21.2654   67.4023 C   0  0  0  0  0
    5.7847   19.3299   67.5835 C   0  0  0  0  0
    4.6861   18.3706   68.0403 C   0  0  0  0  0
    4.5874   18.3089   69.5592 C   0  0  0  0  0
    3.7183   19.4313   70.1192 C   0  0  0  0  0
    2.2598   19.1652   69.9139 C   0  0  0  0  0
    4.5338   20.7995   72.0766 C   0  0  0  0  0
    4.4100   19.9642   74.4381 C   0  0  0  0  0
    5.2330   18.7069   74.2199 C   0  0  0  0  0
    2.9292   19.6249   74.4043 C   0  0  0  0  0
    4.7412   20.5207   75.8059 C   0  0  0  0  0
   -0.9342   23.5190   65.7990 C   0  0  0  0  0
   -0.5442   22.9615   63.3721 C   0  0  0  0  0
   -0.9107   22.1964   69.8732 O   0  0  0  0  0
    4.6001   25.4114   68.4807 O   0  0  0  0  0
    1.7504   18.0827   70.3103 O   0  0  0  0  0
    4.8454   21.7472   71.3073 O   0  0  0  0  0
    4.7281   20.9523   73.4559 O   0  0  0  0  0
   -1.8633   24.3129   65.4931 O   0  0  0  0  0
   -0.6272   21.9052   67.5753 N   0  0  0  0  0
    5.3877   20.7184   67.7687 N   0  0  0  0  0
    1.4420   20.1788   69.3245 N   0  0  0  0  0
    3.9845   19.5920   71.5395 N   0  0  0  0  0
    6.1486   21.6420   68.3305 N   0  0  0  0  0
    5.5045   22.7981   68.3715 N   0  0  0  0  0
   -0.2223   22.8131   64.7809 N   0  0  0  0  0
  2  1  1  0  0  0
  2  3  1  0  0  0
  2 34  1  0  0  0
  3 32  1  0  0  0
  4 32  1  0  0  0
  4  5  1  0  0  0
  4 24  1  0  0  0
  5  6  1  0  0  0
  7  8  1  0  0  0
  7 12  1  0  0  0
  8 27  1  0  0  0
  9 10  1  0  0  0
 11 27  1  0  0  0
 12 37  1  0  0  0
 13 33  1  0  0  0
 14 33  1  0  0  0
 14 15  1  0  0  0
 15 16  1  0  0  0
 16 17  1  0  0  0
 17 18  1  0  0  0
 17 35  1  0  0  0
 18 34  1  0  0  0
 19 30  1  0  0  0
 20 30  1  0  0  0
 20 21  1  0  0  0
 20 22  1  0  0  0
 20 23  1  0  0  0
 24 38  1  0  0  0
 25 38  1  0  0  0
 33 36  1  0  0  0
 35 19  1  0  0  0
  3 26  2  0  0  0
  6  7  2  0  0  0
  8  9  2  0  0  0
 10  5  2  0  0  0
 12 13  2  0  0  0
 18 28  2  0  0  0
 19 29  2  0  0  0
 24 31  2  0  0  0
 36 37  2  0  0  0
M  END
> <rmsd>
0.667807817

$$$$
PubChem-46915399


 26 26  0  0  0  0  0  0  0  0999 V2000
    7.5975   25.7954   71.2055 C   0  0  0  0  0
    8.2014   24.4634   70.8149 C   0  0  0  0  0
    9.5682   24.3296   71.4600 C   0  0  0  0  0
    7.2879   23.3437   71.2809 C   0  0  0  0  0
    7.6300   22.0626   70.5843 C   0  0  0  0  0
    6.7605   21.3998   69.8137 C   0  0  0  0  0
    5.3475   21.8565   69.5778 C   0  0  0  0  0
    4.3609   21.3232   70.6275 C   0  0  0  0  0
    4.4403   19.8017   70.8311 C   0  0  0  0  0
    3.9414   19.0223   69.6071 C   0  0  0  0  0
    2.4888   19.2549   69.3191 C   0  0  0  0  0
    0.7473   20.2598   67.7226 C   0  0  0  0  0
   -0.1334   19.0152   67.6861 C   0  0  0  0  0
   -1.2696   19.1741   66.6853 C   0  0  0  0  0
   -2.3524   20.1115   67.2009 C   0  0  0  0  0
   -1.9007   21.5619   67.1187 C   0  0  0  0  0
    0.1581   21.3358   68.5995 C   0  0  0  0  0
    5.1086   17.3426   68.7613 C   0  0  0  0  0
    1.6087   18.8667   70.1348 O   0  0  0  0  0
    0.7796   21.7406   69.6181 O   0  0  0  0  0
    4.1914   17.6568   69.7654 O   0  0  0  0  0
    3.7342   19.4206   71.9764 O   0  0  0  0  0
    4.5620   21.9854   71.8406 O   0  0  0  0  0
    4.9409   21.4887   68.2954 O   0  0  0  0  0
    2.1177   19.9197   68.1059 N   0  0  0  0  0
   -1.1088   21.9220   68.2873 N   0  0  0  0  0
  1  2  1  0  0  0
  2  3  1  0  0  0
  2  4  1  0  0  0
  4  5  1  0  0  0
  7  6  1  0  0  0
  7  8  1  0  0  0
  7 24  1  0  0  0
  8  9  1  0  0  0
  8 23  1  0  0  0
  9 10  1  0  0  0
  9 22  1  0  0  0
 10 11  1  0  0  0
 10 21  1  0  0  0
 11 25  1  0  0  0
 12 25  1  0  0  0
 12 13  1  0  0  0
 12 17  1  0  0  0
 13 14  1  0  0  0
 14 15  1  0  0  0
 15 16  1  0  0  0
 16 26  1  0  0  0
 18 21  1  0  0  0
 26 17  1  0  0  0
  5  6  2  0  0  0
 11 19  2  0  0  0
 17 20  2  0  0  0
M  END
> <rmsd>
0.679051101

$$$$
PubChem-71573195


 26 27  0  0  0  0  0  0  0  0999 V2000
    4.8972   17.8211   68.4333 C   0  0  0  0  0
    5.7998   18.6933   69.2959 C   0  0  0  0  0
    6.5490   17.8028   70.2765 C   0  0  0  0  0
    5.0319   19.8257   70.0117 C   0  0  0  0  0
    4.2552   20.6625   69.0282 C   0  0  0  0  0
    2.7390   19.7672   70.4046 C   0  0  0  0  0
    0.5263   21.2733   68.6969 C   0  0  0  0  0
   -1.8519   21.6327   67.8022 C   0  0  0  0  0
   -2.6673   21.6667   66.6608 C   0  0  0  0  0
   -4.0312   21.9524   66.7773 C   0  0  0  0  0
   -4.5902   22.2050   68.0323 C   0  0  0  0  0
   -3.7862   22.1720   69.1738 C   0  0  0  0  0
   -2.4231   21.8868   69.0592 C   0  0  0  0  0
    6.0122   20.6994   70.8157 C   0  0  0  0  0
    5.3621   21.8200   71.5676 C   0  0  0  0  0
    4.7613   21.2794   68.0527 O   0  0  0  0  0
    1.6349   19.3910   70.8772 O   0  0  0  0  0
    0.2197   21.5375   69.8905 O   0  0  0  0  0
    4.6118   21.5795   72.5492 O   0  0  0  0  0
    5.6117   23.1337   71.1957 O   0  0  0  0  0
    2.8660   20.6670   69.3126 N   0  0  0  0  0
    3.9865   19.2709   70.8792 N   0  0  0  0  0
    1.8763   20.9511   68.3566 N   0  0  0  0  0
   -0.4554   21.3342   67.6547 N   0  0  0  0  0
   -6.4489   22.5938   68.1866 Br  0  0  0  0  0
   -2.1406   21.4234   65.4351 F   0  0  0  0  0
  1  2  1  0  0  0
  2  3  1  0  0  0
  4  2  1  0  0  0
  4  5  1  0  0  0
  4 14  1  0  0  0
  4 22  1  0  0  0
  5 21  1  0  0  0
  6 22  1  0  0  0
  7 24  1  0  0  0
  9 10  1  0  0  0
  9 26  1  0  0  0
 11 12  1  0  0  0
 11 25  1  0  0  0
 13  8  1  0  0  0
 14 15  1  0  0  0
 15 20  1  0  0  0
 21  6  1  0  0  0
 21 23  1  0  0  0
 23  7  1  0  0  0
 24  8  1  0  0  0
  5 16  2  0  0  0
  6 17  2  0  0  0
  7 18  2  0  0  0
  8  9  2  0  0  0
 10 11  2  0  0  0
 12 13  2  0  0  0
 15 19  2  0  0  0
M  END
> <rmsd>
0.70086211

$$$$
PubChem-114134512


 18 19  0  0  0  0  0  0  0  0999 V2000
    0.3618   21.2709   66.1092 C   0  0  0  0  0
    0.1619   21.4137   67.5769 C   0  0  0  0  0
    0.8601   20.7590   68.5631 C   0  0  0  0  0
    0.3132   21.2267   69.7456 C   0  0  0  0  0
    0.6624   20.8399   71.1387 C   0  0  0  0  0
    3.7488   20.3163   70.4812 C   0  0  0  0  0
    4.2835   21.4848   69.9912 C   0  0  0  0  0
    4.8655   22.1071   71.0747 C   0  0  0  0  0
    4.3128   21.9563   68.5780 C   0  0  0  0  0
   -0.6585   22.1143   69.4558 N   0  0  0  0  0
   -0.7498   22.2298   68.1375 N   0  0  0  0  0
    1.9110   19.8088   68.3424 N   0  0  0  0  0
    4.6590   21.3264   72.1573 N   0  0  0  0  0
    3.9856   20.2419   71.8007 N   0  0  0  0  0
    5.4469   21.3679   67.8883 N   0  0  0  0  0
    2.8993   19.0819   69.5658 S   0  0  0  0  0
    3.9124   18.1889   68.9080 O   0  0  0  0  0
    2.0388   18.2532   70.4776 O   0  0  0  0  0
  1  2  1  0  0  0
  3  4  1  0  0  0
  3 12  1  0  0  0
  5  4  1  0  0  0
  7  8  1  0  0  0
  9  7  1  0  0  0
  9 15  1  0  0  0
 11 10  1  0  0  0
 11  2  1  0  0  0
 14 13  1  0  0  0
 14  6  1  0  0  0
 16 12  1  0  0  0
 16  6  1  0  0  0
  2  3  2  0  0  0
  4 10  2  0  0  0
  6  7  2  0  0  0
  8 13  2  0  0  0
 16 17  2  0  0  0
 16 18  2  0  0  0
M  END
> <rmsd>
0.595964372

$$$$
PubChem-133077412 MCULE-3083144041


 35 37  0  0  0  0  0  0  0  0999 V2000
    6.6308   22.6347   70.8503 C   0  0  0  0  0
    5.5683   21.6032   70.5013 C   0  0  0  0  0
    5.0381   20.9037   71.7199 C   0  0  0  0  0
    4.8880   18.7039   70.4891 C   0  0  0  0  0
    3.5984   17.9266   70.3031 C   0  0  0  0  0
    1.4958   18.8807   71.2027 C   0  0  0  0  0
    1.5111   17.9757   72.2789 C   0  0  0  0  0
    0.5316   18.0261   73.2701 C   0  0  0  0  0
   -0.4774   18.9842   73.2009 C   0  0  0  0  0
   -0.5070   19.8881   72.1386 C   0  0  0  0  0
    0.4679   19.8517   71.1280 C   0  0  0  0  0
    0.3684   20.8371   70.0241 C   0  0  0  0  0
    1.0827   21.6410   67.7332 C   0  0  0  0  0
    2.3290   21.6024   66.8638 C   0  0  0  0  0
    3.4049   22.5226   67.4178 C   0  0  0  0  0
    4.3295   21.7856   68.3351 C   0  0  0  0  0
    3.6499   23.2391   70.2691 C   0  0  0  0  0
   -0.1035   21.2033   66.9364 C   0  0  0  0  0
   -2.3545   21.7605   65.9519 C   0  0  0  0  0
   -3.2966   22.9630   65.8339 C   0  0  0  0  0
   -1.6620   24.4968   64.9643 C   0  0  0  0  0
   -1.3622   25.5145   63.8668 C   0  0  0  0  0
   -1.3783   24.8209   62.5085 C   0  0  0  0  0
   -2.7057   24.0990   62.3017 C   0  0  0  0  0
   -2.9513   23.1379   63.4619 C   0  0  0  0  0
    4.7712   21.5610   72.7612 O   0  0  0  0  0
    2.5002   18.8291   70.2279 O   0  0  0  0  0
   -0.5207   21.7319   70.0693 O   0  0  0  0  0
    5.0007   20.8208   67.8780 O   0  0  0  0  0
   -0.1581   20.0339   66.4660 O   0  0  0  0  0
    4.8062   19.4950   71.7074 N   0  0  0  0  0
    1.2504   20.7809   68.8982 N   0  0  0  0  0
    4.4947   22.1931   69.7025 N   0  0  0  0  0
   -1.1734   22.1216   66.7189 N   0  0  0  0  0
   -2.9679   23.8742   64.7300 N   0  0  0  0  0
  2  1  1  0  0  0
  2  3  1  0  0  0
  2 33  1  0  0  0
  3 31  1  0  0  0
  4 31  1  0  0  0
  4  5  1  0  0  0
  5 27  1  0  0  0
  6 27  1  0  0  0
  7  8  1  0  0  0
  9 10  1  0  0  0
 11 12  1  0  0  0
 11  6  1  0  0  0
 12 32  1  0  0  0
 13 32  1  0  0  0
 13 14  1  0  0  0
 13 18  1  0  0  0
 14 15  1  0  0  0
 15 16  1  0  0  0
 16 33  1  0  0  0
 17 33  1  0  0  0
 18 34  1  0  0  0
 19 34  1  0  0  0
 19 20  1  0  0  0
 20 35  1  0  0  0
 21 35  1  0  0  0
 21 22  1  0  0  0
 22 23  1  0  0  0
 23 24  1  0  0  0
 24 25  1  0  0  0
 25 35  1  0  0  0
  3 26  2  0  0  0
  6  7  2  0  0  0
  8  9  2  0  0  0
 10 11  2  0  0  0
 12 28  2  0  0  0
 16 29  2  0  0  0
 18 30  2  0  0  0
M  END
> <rmsd>
0.818037689

$$$$
PubChem-133075228


 38 40  0  0  0  0  0  0  0  0999 V2000
    8.0235   20.2197   71.3093 C   0  0  0  0  0
    7.1086   19.6892   70.2215 C   0  0  0  0  0
    6.8126   18.2162   70.4565 C   0  0  0  0  0
    5.8421   20.5435   70.0935 C   0  0  0  0  0
    4.9585   20.5103   71.3048 C   0  0  0  0  0
    3.3239   19.2633   72.7661 C   0  0  0  0  0
    2.6968   17.8838   72.8388 C   0  0  0  0  0
    1.3025   17.8815   72.2351 C   0  0  0  0  0
    0.9486   17.0771   69.9186 C   0  0  0  0  0
    0.7167   15.7649   70.3662 C   0  0  0  0  0
    0.3061   14.7693   69.4799 C   0  0  0  0  0
    0.1184   15.0723   68.1330 C   0  0  0  0  0
    0.3408   16.3710   67.6738 C   0  0  0  0  0
    0.7593   17.3864   68.5489 C   0  0  0  0  0
    0.9497   18.7504   68.0004 C   0  0  0  0  0
    1.7037   21.1816   68.4028 C   0  0  0  0  0
    2.3441   21.3797   67.0251 C   0  0  0  0  0
    3.6883   20.6683   66.8894 C   0  0  0  0  0
    4.6510   21.1036   67.9411 C   0  0  0  0  0
    0.3940   21.8918   68.5100 C   0  0  0  0  0
   -1.9686   22.2427   67.6728 C   0  0  0  0  0
   -1.8588   23.6460   67.0992 C   0  0  0  0  0
   -3.1654   24.3556   67.2011 C   0  0  0  0  0
   -3.6906   24.7025   68.4527 C   0  0  0  0  0
   -4.9106   25.3799   68.5374 C   0  0  0  0  0
   -5.6059   25.7156   67.3719 C   0  0  0  0  0
   -5.0796   25.3772   66.1215 C   0  0  0  0  0
   -3.8594   24.6998   66.0362 C   0  0  0  0  0
    4.9181   21.5125   72.0671 O   0  0  0  0  0
    1.3592   18.0634   70.8244 O   0  0  0  0  0
    0.5644   19.0071   66.8268 O   0  0  0  0  0
    5.0532   22.2973   67.9806 O   0  0  0  0  0
    0.2395   22.7633   69.4067 O   0  0  0  0  0
    4.1630   19.3559   71.5834 N   0  0  0  0  0
    1.5790   19.7739   68.7820 N   0  0  0  0  0
    5.0845   20.1558   68.9143 N   0  0  0  0  0
   -0.6765   21.5775   67.6146 N   0  0  0  0  0
   -6.7881   26.3708   67.4540 F   0  0  0  0  0
  1  2  1  0  0  0
  2  3  1  0  0  0
  4  2  1  0  0  0
  4  5  1  0  0  0
  4 36  1  0  0  0
  5 34  1  0  0  0
  6 34  1  0  0  0
  6  7  1  0  0  0
  7  8  1  0  0  0
  8 30  1  0  0  0
  9 30  1  0  0  0
 10 11  1  0  0  0
 12 13  1  0  0  0
 14 15  1  0  0  0
 14  9  1  0  0  0
 15 35  1  0  0  0
 16 35  1  0  0  0
 16 17  1  0  0  0
 16 20  1  0  0  0
 17 18  1  0  0  0
 18 19  1  0  0  0
 19 36  1  0  0  0
 20 37  1  0  0  0
 21 37  1  0  0  0
 21 22  1  0  0  0
 22 23  1  0  0  0
 24 25  1  0  0  0
 26 27  1  0  0  0
 26 38  1  0  0  0
 28 23  1  0  0  0
  5 29  2  0  0  0
  9 10  2  0  0  0
 11 12  2  0  0  0
 13 14  2  0  0  0
 15 31  2  0  0  0
 19 32  2  0  0  0
 20 33  2  0  0  0
 23 24  2  0  0  0
 25 26  2  0  0  0
 27 28  2  0  0  0
M  END
> <rmsd>
0.606199026

$$$$
PubChem-54934499


 19 20  0  0  0  0  0  0  0  0999 V2000
    0.2801   20.9155   66.1464 C   0  0  0  0  0
    0.1699   21.2232   67.5982 C   0  0  0  0  0
    0.8125   20.5690   68.6220 C   0  0  0  0  0
    0.3907   21.2185   69.7687 C   0  0  0  0  0
    0.7268   20.9014   71.1820 C   0  0  0  0  0
    3.7505   19.9880   70.3986 C   0  0  0  0  0
    4.5984   20.8556   69.7352 C   0  0  0  0  0
    5.1763   21.6225   70.7286 C   0  0  0  0  0
    4.8773   20.9695   68.2940 C   0  0  0  0  0
   -0.4571   22.2076   69.4234 N   0  0  0  0  0
   -0.5894   22.2128   68.1035 N   0  0  0  0  0
    1.6981   19.4529   68.4645 N   0  0  0  0  0
    4.6847   21.2115   71.9157 N   0  0  0  0  0
    3.8246   20.2241   71.7188 N   0  0  0  0  0
    2.7001   18.7635   69.6987 S   0  0  0  0  0
    3.5539   17.6849   69.0951 O   0  0  0  0  0
    1.8341   18.1507   70.7631 O   0  0  0  0  0
    5.6383   21.8803   67.8734 O   0  0  0  0  0
    4.3247   20.0767   67.3858 O   0  0  0  0  0
  1  2  1  0  0  0
  3  4  1  0  0  0
  3 12  1  0  0  0
  5  4  1  0  0  0
  7  8  1  0  0  0
  7  9  1  0  0  0
  9 19  1  0  0  0
 11 10  1  0  0  0
 11  2  1  0  0  0
 14 13  1  0  0  0
 14  6  1  0  0  0
 15 12  1  0  0  0
 15  6  1  0  0  0
  2  3  2  0  0  0
  4 10  2  0  0  0
  6  7  2  0  0  0
  8 13  2  0  0  0
  9 18  2  0  0  0
 15 16  2  0  0  0
 15 17  2  0  0  0
M  END
> <rmsd>
0.639418185

$$$$
PubChem-163751905


 26 27  0  0  0  0  0  0  0  0999 V2000
    4.8758   17.6807   68.4758 C   0  0  0  0  0
    5.7429   18.4748   69.4430 C   0  0  0  0  0
    6.9314   19.0596   68.6926 C   0  0  0  0  0
    4.9461   19.5366   70.2329 C   0  0  0  0  0
    4.2614   20.5333   69.3285 C   0  0  0  0  0
    2.6270   19.4872   70.4379 C   0  0  0  0  0
    0.5804   21.2899   68.8130 C   0  0  0  0  0
   -1.7142   21.8452   67.8072 C   0  0  0  0  0
   -2.4372   22.0708   66.6260 C   0  0  0  0  0
   -3.8010   22.3748   66.6818 C   0  0  0  0  0
   -4.4518   22.4550   67.9152 C   0  0  0  0  0
   -3.7401   22.2308   69.0958 C   0  0  0  0  0
   -2.3773   21.9270   69.0417 C   0  0  0  0  0
    5.8686   20.2268   71.2538 C   0  0  0  0  0
    5.1587   21.1482   72.2033 C   0  0  0  0  0
    5.0935   20.8066   73.6511 C   0  0  0  0  0
    4.8512   21.2881   68.5096 O   0  0  0  0  0
    1.4833   19.0767   70.7655 O   0  0  0  0  0
    0.1863   21.3835   70.0063 O   0  0  0  0  0
    4.6583   22.1864   71.8027 O   0  0  0  0  0
    2.8544   20.5322   69.5035 N   0  0  0  0  0
    3.8251   18.8926   70.9259 N   0  0  0  0  0
    1.9473   20.9833   68.5299 N   0  0  0  0  0
   -0.3157   21.5322   67.7211 N   0  0  0  0  0
   -6.3100   22.8695   67.9868 Br  0  0  0  0  0
   -1.8208   21.9963   65.4205 F   0  0  0  0  0
  1  2  1  0  0  0
  2  3  1  0  0  0
  2  4  1  0  0  0
  4  5  1  0  0  0
  4 14  1  0  0  0
  4 22  1  0  0  0
  5 21  1  0  0  0
  6 22  1  0  0  0
  7 24  1  0  0  0
  9 10  1  0  0  0
  9 26  1  0  0  0
 11 12  1  0  0  0
 11 25  1  0  0  0
 13  8  1  0  0  0
 14 15  1  0  0  0
 16 15  1  0  0  0
 21  6  1  0  0  0
 21 23  1  0  0  0
 23  7  1  0  0  0
 24  8  1  0  0  0
  5 17  2  0  0  0
  6 18  2  0  0  0
  7 19  2  0  0  0
  8  9  2  0  0  0
 10 11  2  0  0  0
 12 13  2  0  0  0
 15 20  2  0  0  0
M  END
> <rmsd>
0.748383284

$$$$
PubChem-105974746


 19 21  0  0  0  0  0  0  0  0999 V2000
    4.3738   20.4881   65.6699 C   0  0  0  0  0
    5.8523   20.7830   65.5466 C   0  0  0  0  0
    4.9849   21.6347   66.4502 C   0  0  0  0  0
    4.3606   22.0904   68.6501 C   0  0  0  0  0
    4.2998   21.5622   70.0428 C   0  0  0  0  0
    3.7572   20.3753   70.4806 C   0  0  0  0  0
    4.7594   22.1975   71.1759 C   0  0  0  0  0
    0.9883   20.7868   68.5214 C   0  0  0  0  0
    0.2174   21.4158   67.5748 C   0  0  0  0  0
    0.5654   21.2161   69.7591 C   0  0  0  0  0
    5.1848   21.2221   67.8271 N   0  0  0  0  0
    3.8894   20.2960   71.8142 N   0  0  0  0  0
    4.4956   21.3981   72.2320 N   0  0  0  0  0
    2.0414   19.8625   68.2476 N   0  0  0  0  0
   -0.6484   22.2039   68.2402 N   0  0  0  0  0
   -0.4407   22.0847   69.5443 N   0  0  0  0  0
    2.9953   19.1353   69.4966 S   0  0  0  0  0
    4.0606   18.2795   68.8729 O   0  0  0  0  0
    2.1106   18.2751   70.3542 O   0  0  0  0  0
  1  2  1  0  0  0
  2  3  1  0  0  0
  3 11  1  0  0  0
  3  1  1  0  0  0
  4 11  1  0  0  0
  4  5  1  0  0  0
  6 12  1  0  0  0
  7  5  1  0  0  0
  9 15  1  0  0  0
 10  8  1  0  0  0
 12 13  1  0  0  0
 14  8  1  0  0  0
 15 16  1  0  0  0
 17  6  1  0  0  0
 17 14  1  0  0  0
  5  6  2  0  0  0
  7 13  2  0  0  0
  8  9  2  0  0  0
 10 16  2  0  0  0
 17 18  2  0  0  0
 17 19  2  0  0  0
M  END
> <rmsd>
0.652761281

$$$$
PubChem-73329614


 31 33  0  0  0  0  0  0  0  0999 V2000
   -3.4226   24.5365   67.6458 C   0  0  0  0  0
   -3.5715   25.9016   67.9097 C   0  0  0  0  0
   -3.1297   26.4308   69.1263 C   0  0  0  0  0
   -2.5377   25.5956   70.0788 C   0  0  0  0  0
   -2.3886   24.2306   69.8152 C   0  0  0  0  0
   -2.8334   23.6987   68.5997 C   0  0  0  0  0
   -2.6601   22.2451   68.3142 C   0  0  0  0  0
   -0.1725   22.1040   67.8514 C   0  0  0  0  0
    0.9291   21.9301   66.8655 C   0  0  0  0  0
    2.2001   19.6281   67.5214 C   0  0  0  0  0
    2.5854   19.1844   69.8190 C   0  0  0  0  0
    3.6625   20.2537   70.0090 C   0  0  0  0  0
    4.1089   20.8009   68.6841 C   0  0  0  0  0
    5.2540   20.2005   71.9687 C   0  0  0  0  0
    6.4150   19.5913   72.6405 C   0  0  0  0  0
    6.8820   20.1070   73.8587 C   0  0  0  0  0
    7.9847   19.5289   74.4947 C   0  0  0  0  0
    8.6284   18.4312   73.9172 C   0  0  0  0  0
    8.1700   17.9116   72.7038 C   0  0  0  0  0
    7.0672   18.4896   72.0678 C   0  0  0  0  0
   -1.5324   22.0344   67.4160 N   0  0  0  0  0
    1.5904   19.6333   68.8515 N   0  0  0  0  0
    3.4059   20.4552   67.4886 N   0  0  0  0  0
    4.7985   19.6810   70.7166 N   0  0  0  0  0
    1.9343   18.9133   71.0885 N   0  0  0  0  0
    0.1041   22.3026   69.0642 O   0  0  0  0  0
    5.0843   21.5948   68.6253 O   0  0  0  0  0
    4.6605   21.1805   72.4972 O   0  0  0  0  0
    0.9964   20.2048   66.2762 S   0  0  0  0  0
    9.6982   17.8724   74.5323 F   0  0  0  0  0
   -3.2750   27.7528   69.3825 F   0  0  0  0  0
  2  3  1  0  0  0
  3 31  1  0  0  0
  4  5  1  0  0  0
  6  1  1  0  0  0
  7  6  1  0  0  0
  7 21  1  0  0  0
  9  8  1  0  0  0
  9 29  1  0  0  0
 10 29  1  0  0  0
 10 22  1  0  0  0
 10 23  1  0  0  0
 11 22  1  0  0  0
 11 12  1  0  0  0
 11 25  1  0  0  0
 12 13  1  0  0  0
 12 24  1  0  0  0
 13 23  1  0  0  0
 14 15  1  0  0  0
 16 17  1  0  0  0
 18 19  1  0  0  0
 18 30  1  0  0  0
 20 15  1  0  0  0
 21  8  1  0  0  0
 24 14  1  0  0  0
  1  2  2  0  0  0
  3  4  2  0  0  0
  5  6  2  0  0  0
  8 26  2  0  0  0
 13 27  2  0  0  0
 14 28  2  0  0  0
 15 16  2  0  0  0
 17 18  2  0  0  0
 19 20  2  0  0  0
M  END
> <rmsd>
0.666164815

$$$$
PubChem-144462916


 40 44  0  0  0  0  0  0  0  0999 V2000
    5.1220   17.3052   69.6593 C   0  0  0  0  0
    4.9022   17.9960   70.9926 C   0  0  0  0  0
    6.2607   18.4174   71.5210 C   0  0  0  0  0
    4.3043   16.9861   71.9615 C   0  0  0  0  0
    4.0067   19.2512   70.8465 C   0  0  0  0  0
    2.7244   19.0209   70.0820 C   0  0  0  0  0
    3.0194   20.9945   68.4906 C   0  0  0  0  0
    2.5282   22.2290   68.3147 C   0  0  0  0  0
    1.2158   22.7475   68.8429 C   0  0  0  0  0
   -0.0001   21.9431   68.3272 C   0  0  0  0  0
    0.0051   21.8610   70.6309 C   0  0  0  0  0
    1.1115   22.5949   70.3173 C   0  0  0  0  0
    2.0159   22.9993   71.2948 C   0  0  0  0  0
    1.7560   22.6509   72.6287 C   0  0  0  0  0
    2.8191   22.8935   73.6496 C   0  0  0  0  0
    3.6473   21.6288   73.8967 C   0  0  0  0  0
    4.1966   21.0525   72.6284 C   0  0  0  0  0
    0.5975   21.9147   72.9562 C   0  0  0  0  0
   -0.2986   21.5174   71.9477 C   0  0  0  0  0
   -2.0125   22.3341   66.8322 C   0  0  0  0  0
   -2.3457   20.9712   66.8189 C   0  0  0  0  0
   -3.4661   20.5278   66.1100 C   0  0  0  0  0
   -4.2591   21.4436   65.4129 C   0  0  0  0  0
   -3.9326   22.8027   65.4260 C   0  0  0  0  0
   -2.8121   23.2467   66.1353 C   0  0  0  0  0
    4.3240   20.6571   67.8976 C   0  0  0  0  0
    6.3628   20.8682   67.0018 C   0  0  0  0  0
    5.9928   19.3833   67.0124 C   0  0  0  0  0
    6.5900   21.3360   65.6028 C   0  0  0  0  0
    5.7110   21.7574   63.3430 C   0  0  0  0  0
    1.9989   18.0311   70.3643 O   0  0  0  0  0
   -0.6863   21.4886   69.4980 O   0  0  0  0  0
    5.0744   21.6757   71.9735 O   0  0  0  0  0
    4.7058   19.3676   67.6019 O   0  0  0  0  0
    7.7372   21.7351   65.2651 O   0  0  0  0  0
    5.5385   21.3228   64.6830 O   0  0  0  0  0
    2.2357   19.9862   69.1423 N   0  0  0  0  0
    3.6827   19.8069   72.1570 N   0  0  0  0  0
   -0.8713   22.8126   67.5495 N   0  0  0  0  0
    5.2048   21.5404   67.5756 N   0  0  0  0  0
  1  2  1  0  0  0
  2  3  1  0  0  0
  2  4  1  0  0  0
  2  5  1  0  0  0
  5  6  1  0  0  0
  5 38  1  0  0  0
  6 37  1  0  0  0
  7 26  1  0  0  0
  9  8  1  0  0  0
  9 10  1  0  0  0
  9 12  1  0  0  0
 10 32  1  0  0  0
 10 39  1  0  0  0
 11 32  1  0  0  0
 12 13  1  0  0  0
 14 18  1  0  0  0
 15 14  1  0  0  0
 15 16  1  0  0  0
 16 17  1  0  0  0
 17 38  1  0  0  0
 19 11  1  0  0  0
 21 22  1  0  0  0
 23 24  1  0  0  0
 25 20  1  0  0  0
 26 34  1  0  0  0
 27 40  1  0  0  0
 27 28  1  0  0  0
 27 29  1  0  0  0
 28 34  1  0  0  0
 29 36  1  0  0  0
 30 36  1  0  0  0
 37  7  1  0  0  0
 39 20  1  0  0  0
  6 31  2  0  0  0
  7  8  2  0  0  0
 11 12  2  0  0  0
 13 14  2  0  0  0
 17 33  2  0  0  0
 18 19  2  0  0  0
 20 21  2  0  0  0
 22 23  2  0  0  0
 24 25  2  0  0  0
 26 40  2  0  0  0
 29 35  2  0  0  0
M  END
> <rmsd>
0.765169263

$$$$
PubChem-144462916


 40 44  0  0  0  0  0  0  0  0999 V2000
    5.0393   17.2103   69.7138 C   0  0  0  0  0
    4.8374   17.9207   71.0404 C   0  0  0  0  0
    4.1995   16.9409   72.0140 C   0  0  0  0  0
    6.2065   18.2986   71.5725 C   0  0  0  0  0
    3.9861   19.2048   70.8790 C   0  0  0  0  0
    2.6988   19.0065   70.1140 C   0  0  0  0  0
    3.0315   20.9756   68.5089 C   0  0  0  0  0
    2.5430   22.2077   68.3192 C   0  0  0  0  0
    1.2284   22.7330   68.8358 C   0  0  0  0  0
    0.0114   21.9314   68.3191 C   0  0  0  0  0
    0.0113   21.8549   70.6233 C   0  0  0  0  0
    1.1181   22.5883   70.3104 C   0  0  0  0  0
    2.0228   22.9913   71.2880 C   0  0  0  0  0
    1.7617   22.6438   72.6214 C   0  0  0  0  0
    2.8241   22.8887   73.6427 C   0  0  0  0  0
    3.6491   21.6237   73.9003 C   0  0  0  0  0
    4.1927   21.0309   72.6369 C   0  0  0  0  0
    0.6019   21.9090   72.9485 C   0  0  0  0  0
   -0.2938   21.5119   71.9399 C   0  0  0  0  0
   -2.0200   22.3467   66.8515 C   0  0  0  0  0
   -2.3898   20.9924   66.8686 C   0  0  0  0  0
   -3.5320   20.5663   66.1842 C   0  0  0  0  0
   -4.3094   21.4902   65.4799 C   0  0  0  0  0
   -3.9441   22.8394   65.4591 C   0  0  0  0  0
   -2.8014   23.2659   66.1432 C   0  0  0  0  0
    4.3486   20.6579   67.9361 C   0  0  0  0  0
    6.0905   19.4968   67.1496 C   0  0  0  0  0
    6.3916   20.9878   66.9777 C   0  0  0  0  0
    6.0864   18.8145   65.8186 C   0  0  0  0  0
    4.8410   17.9835   63.8634 C   0  0  0  0  0
    1.9442   18.0412   70.4059 O   0  0  0  0  0
   -0.6770   21.4795   69.4899 O   0  0  0  0  0
    5.0691   21.6441   71.9703 O   0  0  0  0  0
    5.2396   21.6198   67.5047 O   0  0  0  0  0
    7.1800   18.4338   65.3187 O   0  0  0  0  0
    4.8850   18.6200   65.1316 O   0  0  0  0  0
    2.2389   19.9708   69.1586 N   0  0  0  0  0
    3.6750   19.7801   72.1842 N   0  0  0  0  0
   -0.8555   22.8066   67.5429 N   0  0  0  0  0
    4.7659   19.4552   67.7563 N   0  0  0  0  0
  1  2  1  0  0  0
  2  3  1  0  0  0
  2  4  1  0  0  0
  2  5  1  0  0  0
  5  6  1  0  0  0
  5 38  1  0  0  0
  6 37  1  0  0  0
  7 26  1  0  0  0
  9  8  1  0  0  0
  9 10  1  0  0  0
  9 12  1  0  0  0
 10 32  1  0  0  0
 10 39  1  0  0  0
 11 32  1  0  0  0
 12 13  1  0  0  0
 14 18  1  0  0  0
 15 14  1  0  0  0
 15 16  1  0  0  0
 16 17  1  0  0  0
 17 38  1  0  0  0
 19 11  1  0  0  0
 21 22  1  0  0  0
 23 24  1  0  0  0
 25 20  1  0  0  0
 26 34  1  0  0  0
 27 40  1  0  0  0
 27 28  1  0  0  0
 27 29  1  0  0  0
 28 34  1  0  0  0
 29 36  1  0  0  0
 30 36  1  0  0  0
 37  7  1  0  0  0
 39 20  1  0  0  0
  6 31  2  0  0  0
  7  8  2  0  0  0
 11 12  2  0  0  0
 13 14  2  0  0  0
 17 33  2  0  0  0
 18 19  2  0  0  0
 20 21  2  0  0  0
 22 23  2  0  0  0
 24 25  2  0  0  0
 26 40  2  0  0  0
 29 35  2  0  0  0
M  END
> <rmsd>
0.768573225

$$$$
PubChem-71723240


 25 26  0  0  0  0  0  0  0  0999 V2000
    5.8659   23.7545   73.2458 C   0  0  0  0  0
    5.9125   22.3366   72.7093 C   0  0  0  0  0
    6.0942   21.6681   70.5843 C   0  0  0  0  0
    4.6497   21.7114   70.9735 C   0  0  0  0  0
    3.9534   20.4007   70.6121 C   0  0  0  0  0
    2.4323   20.5493   70.6637 C   0  0  0  0  0
    1.7714   19.4465   69.8914 C   0  0  0  0  0
    1.1711   21.0007   67.9674 C   0  0  0  0  0
    1.2285   20.8765   66.4437 C   0  0  0  0  0
    0.3163   19.7874   65.8614 C   0  0  0  0  0
   -1.0861   19.7510   66.4678 C   0  0  0  0  0
   -1.6584   21.1484   66.6196 C   0  0  0  0  0
    0.0184   21.8422   68.4433 C   0  0  0  0  0
    1.3446   21.7963   72.1455 C   0  0  0  0  0
    6.3181   22.4250   69.2862 C   0  0  0  0  0
    6.4261   21.4231   73.8064 C   0  0  0  0  0
    6.7962   22.2882   71.6138 O   0  0  0  0  0
    4.6115   21.9377   72.3485 O   0  0  0  0  0
    1.7547   18.2774   70.3602 O   0  0  0  0  0
    0.2227   22.6667   69.3709 O   0  0  0  0  0
    1.9708   20.5591   71.9858 O   0  0  0  0  0
    4.3883   19.3543   71.4333 O   0  0  0  0  0
    5.7904   21.7040   68.2146 O   0  0  0  0  0
    1.1780   19.6929   68.6146 N   0  0  0  0  0
   -1.3114   21.7093   67.9206 N   0  0  0  0  0
  1  2  1  0  0  0
  2 17  1  0  0  0
  2 16  1  0  0  0
  2 18  1  0  0  0
  3 17  1  0  0  0
  3  4  1  0  0  0
  3 15  1  0  0  0
  4 18  1  0  0  0
  4  5  1  0  0  0
  5  6  1  0  0  0
  5 22  1  0  0  0
  6  7  1  0  0  0
  6 21  1  0  0  0
  7 24  1  0  0  0
  8 24  1  0  0  0
  8  9  1  0  0  0
  8 13  1  0  0  0
  9 10  1  0  0  0
 10 11  1  0  0  0
 11 12  1  0  0  0
 12 25  1  0  0  0
 14 21  1  0  0  0
 15 23  1  0  0  0
 25 13  1  0  0  0
  7 19  2  0  0  0
 13 20  2  0  0  0
M  END
> <rmsd>
0.564020991

$$$$
PubChem-53844003


 32 33  0  0  0  0  0  0  0  0999 V2000
    5.7359   27.7511   74.9736 C   0  0  0  0  0
    6.0854   26.3257   74.7412 C   0  0  0  0  0
    6.6293   25.9305   73.5151 C   0  0  0  0  0
    6.9564   24.5891   73.2955 C   0  0  0  0  0
    6.7432   23.6417   74.3035 C   0  0  0  0  0
    6.1949   24.0381   75.5285 C   0  0  0  0  0
    5.8682   25.3797   75.7477 C   0  0  0  0  0
    7.0604   22.2073   74.0571 C   0  0  0  0  0
    3.8389   21.8085   71.7101 C   0  0  0  0  0
    2.9329   23.0477   71.6018 C   0  0  0  0  0
    1.5220   22.1222   70.1077 C   0  0  0  0  0
    2.2404   20.7491   70.0163 C   0  0  0  0  0
    3.7418   20.9406   70.4271 C   0  0  0  0  0
    4.5522   21.5737   69.2950 C   0  0  0  0  0
    4.2235   22.9288   68.7546 C   0  0  0  0  0
    1.5486   19.7116   70.9000 C   0  0  0  0  0
    1.4581   19.8775   72.3837 C   0  0  0  0  0
    0.0997   22.1074   69.6253 C   0  0  0  0  0
   -0.2501   22.8464   68.3735 C   0  0  0  0  0
   -1.2361   23.9601   68.6699 C   0  0  0  0  0
    5.6484   21.3689   73.3651 S   0  0  0  0  0
    4.5473   21.3454   74.3911 O   0  0  0  0  0
    6.0420   19.9604   73.0204 O   0  0  0  0  0
    5.1644   22.1891   71.9673 O   0  0  0  0  0
    1.5984   22.6563   71.4057 O   0  0  0  0  0
    5.4967   20.9719   68.8070 O   0  0  0  0  0
    4.2949   19.6853   70.7127 O   0  0  0  0  0
    1.0551   18.7125   70.3996 O   0  0  0  0  0
    2.1844   20.3098   68.6857 O   0  0  0  0  0
   -0.7626   21.5058   70.2495 O   0  0  0  0  0
   -0.7977   21.9685   67.4379 O   0  0  0  0  0
    3.0338   24.1390   73.2000 Br  0  0  0  0  0
  1  2  1  0  0  0
  3  4  1  0  0  0
  5  6  1  0  0  0
  7  2  1  0  0  0
  8  5  1  0  0  0
  8 21  1  0  0  0
  9 24  1  0  0  0
  9 10  1  0  0  0
 10 25  1  0  0  0
 10 32  1  0  0  0
 11 25  1  0  0  0
 11 12  1  0  0  0
 11 18  1  0  0  0
 12 13  1  0  0  0
 12 16  1  0  0  0
 12 29  1  0  0  0
 13 14  1  0  0  0
 13 27  1  0  0  0
 13  9  1  0  0  0
 15 14  1  0  0  0
 17 16  1  0  0  0
 19 18  1  0  0  0
 19 20  1  0  0  0
 19 31  1  0  0  0
 21 24  1  0  0  0
  2  3  2  0  0  0
  4  5  2  0  0  0
  6  7  2  0  0  0
 14 26  2  0  0  0
 16 28  2  0  0  0
 18 30  2  0  0  0
 21 22  2  0  0  0
 21 23  2  0  0  0
M  END
> <rmsd>
0.725891292

$$$$
PubChem-53844003


 32 33  0  0  0  0  0  0  0  0999 V2000
    7.2639   16.8757   77.9254 C   0  0  0  0  0
    6.9871   17.6137   76.6657 C   0  0  0  0  0
    7.9937   18.3778   76.0677 C   0  0  0  0  0
    7.7332   19.0729   74.8827 C   0  0  0  0  0
    6.4659   19.0024   74.2933 C   0  0  0  0  0
    5.4572   18.2431   74.8967 C   0  0  0  0  0
    5.7181   17.5485   76.0817 C   0  0  0  0  0
    6.1821   19.7544   73.0393 C   0  0  0  0  0
    3.8402   21.8114   71.7055 C   0  0  0  0  0
    2.9385   23.0534   71.5895 C   0  0  0  0  0
    1.5242   22.1266   70.1001 C   0  0  0  0  0
    2.2416   20.7526   70.0114 C   0  0  0  0  0
    3.7432   20.9416   70.4236 C   0  0  0  0  0
    4.5566   21.5707   69.2918 C   0  0  0  0  0
    4.2267   22.9221   68.7427 C   0  0  0  0  0
    1.5479   19.7165   70.8955 C   0  0  0  0  0
    1.4569   19.8842   72.3789 C   0  0  0  0  0
    0.1008   22.1106   69.6214 C   0  0  0  0  0
   -0.2507   22.8400   68.3646 C   0  0  0  0  0
   -1.2301   23.9611   68.6547 C   0  0  0  0  0
    5.6232   21.4098   73.4028 S   0  0  0  0  0
    6.7550   22.1790   74.0236 O   0  0  0  0  0
    4.4789   21.3613   74.3803 O   0  0  0  0  0
    5.1664   22.1866   71.9709 O   0  0  0  0  0
    1.6032   22.6647   71.3962 O   0  0  0  0  0
    5.5046   20.9687   68.8109 O   0  0  0  0  0
    4.2919   19.6849   70.7105 O   0  0  0  0  0
    1.0558   18.7161   70.3958 O   0  0  0  0  0
    2.1863   20.3118   68.6813 O   0  0  0  0  0
   -0.7607   21.5159   70.2526 O   0  0  0  0  0
   -0.8062   21.9565   67.4393 O   0  0  0  0  0
    3.0440   24.1581   73.1782 Br  0  0  0  0  0
  1  2  1  0  0  0
  3  4  1  0  0  0
  5  6  1  0  0  0
  7  2  1  0  0  0
  8  5  1  0  0  0
  8 21  1  0  0  0
  9 24  1  0  0  0
  9 10  1  0  0  0
 10 25  1  0  0  0
 10 32  1  0  0  0
 11 25  1  0  0  0
 11 12  1  0  0  0
 11 18  1  0  0  0
 12 13  1  0  0  0
 12 16  1  0  0  0
 12 29  1  0  0  0
 13 14  1  0  0  0
 13 27  1  0  0  0
 13  9  1  0  0  0
 15 14  1  0  0  0
 17 16  1  0  0  0
 19 18  1  0  0  0
 19 20  1  0  0  0
 19 31  1  0  0  0
 21 24  1  0  0  0
  2  3  2  0  0  0
  4  5  2  0  0  0
  6  7  2  0  0  0
 14 26  2  0  0  0
 16 28  2  0  0  0
 18 30  2  0  0  0
 21 22  2  0  0  0
 21 23  2  0  0  0
M  END
> <rmsd>
0.725937486

$$$$
