PubChem-87753627


 26 27  0  0  0  0  0  0  0  0999 V2000
    1.6575   26.7260   63.1408 C   0  0  0  0  0
    1.3926   27.3172   64.3790 C   0  0  0  0  0
    0.7459   26.5851   65.3794 C   0  0  0  0  0
    0.3599   25.2596   65.1503 C   0  0  0  0  0
    0.6290   24.6723   63.9042 C   0  0  0  0  0
    1.2756   25.4030   62.9031 C   0  0  0  0  0
   -0.7653   23.1874   66.1547 C   0  0  0  0  0
   -1.4535   22.6181   67.3534 C   0  0  0  0  0
   -2.9183   22.2976   67.0541 C   0  0  0  0  0
   -0.1120   21.3469   69.0701 C   0  0  0  0  0
    0.5656   20.0858   69.4986 C   0  0  0  0  0
   -0.4097   18.9155   69.5196 C   0  0  0  0  0
   -1.3829   19.0437   70.6438 C   0  0  0  0  0
   -2.7427   19.1716   70.5035 C   0  0  0  0  0
   -2.2177   19.1738   72.5855 C   0  0  0  0  0
   -0.3017   24.5426   66.2010 N   0  0  0  0  0
   -3.6476   23.5075   66.7020 N   0  0  0  0  0
   -0.7550   21.4197   67.7957 N   0  0  0  0  0
   -3.2666   19.2553   71.7398 N   0  0  0  0  0
   -1.0406   19.0411   71.9424 N   0  0  0  0  0
    1.6621   19.7877   68.5947 N   0  0  0  0  0
   -0.6099   22.4793   65.1227 O   0  0  0  0  0
   -4.1756   23.6062   65.5765 O   0  0  0  0  0
   -3.7710   24.5362   67.6070 O   0  0  0  0  0
   -3.5179   21.7025   68.1661 O   0  0  0  0  0
   -0.1142   22.3410   69.8440 O   0  0  0  0  0
  2  3  1  0  0  0
  4  5  1  0  0  0
  4 16  1  0  0  0
  6  1  1  0  0  0
  8  7  1  0  0  0
  8  9  1  0  0  0
  8 18  1  0  0  0
  9 17  1  0  0  0
  9 25  1  0  0  0
 11 10  1  0  0  0
 11 12  1  0  0  0
 11 21  1  0  0  0
 12 13  1  0  0  0
 14 19  1  0  0  0
 15 20  1  0  0  0
 16  7  1  0  0  0
 17 24  1  0  0  0
 18 10  1  0  0  0
 20 13  1  0  0  0
  1  2  2  0  0  0
  3  4  2  0  0  0
  5  6  2  0  0  0
  7 22  2  0  0  0
 10 26  2  0  0  0
 13 14  2  0  0  0
 15 19  2  0  0  0
 17 23  2  0  0  0
M  CHG  2  17   1  24  -1
M  END
> <rmsd>
0.410468757

$$$$
PubChem-92239070 4900918 ZINC000004900918


 27 28  0  0  0  0  0  0  0  0999 V2000
    1.3062   18.1369   65.1751 C   0  0  0  0  0
    1.4261   20.2564   65.7929 C   0  0  0  0  0
    1.8105   20.8433   67.1564 C   0  0  0  0  0
    0.9093   22.0374   67.4782 C   0  0  0  0  0
    0.9052   23.0061   66.2913 C   0  0  0  0  0
    0.6807   22.2801   64.9518 C   0  0  0  0  0
   -0.7685   21.8488   64.7134 C   0  0  0  0  0
   -1.0678   21.8654   69.0386 C   0  0  0  0  0
   -2.4936   21.4882   69.2562 C   0  0  0  0  0
   -3.5550   23.6145   68.3974 C   0  0  0  0  0
   -3.0183   25.7700   69.4820 C   0  0  0  0  0
   -1.9297   26.3356   68.6353 C   0  0  0  0  0
   -0.6119   26.3482   69.1058 C   0  0  0  0  0
    0.4121   26.8638   68.3054 C   0  0  0  0  0
    0.1202   27.3633   67.0324 C   0  0  0  0  0
   -1.1954   27.3451   66.5586 C   0  0  0  0  0
   -2.2197   26.8296   67.3590 C   0  0  0  0  0
    2.2159   19.1392   65.5144 O   0  0  0  0  0
    1.6023   21.2189   64.7720 O   0  0  0  0  0
   -0.9205   21.4055   63.4000 O   0  0  0  0  0
   -0.0264   24.0307   66.4758 O   0  0  0  0  0
   -0.4280   22.4405   69.9588 O   0  0  0  0  0
   -4.2519   24.1866   67.5170 O   0  0  0  0  0
   -2.9828   24.3490   69.4404 O   0  0  0  0  0
    1.7065   19.8730   68.1561 O   0  0  0  0  0
   -0.4471   21.5933   67.7825 N   0  0  0  0  0
   -3.3522   22.2032   68.3219 N   0  0  0  0  0
  1 18  1  0  0  0
  2 18  1  0  0  0
  2  3  1  0  0  0
  2 19  1  0  0  0
  3  4  1  0  0  0
  3 25  1  0  0  0
  4  5  1  0  0  0
  4 26  1  0  0  0
  5  6  1  0  0  0
  5 21  1  0  0  0
  6 19  1  0  0  0
  6  7  1  0  0  0
  7 20  1  0  0  0
  9  8  1  0  0  0
  9 27  1  0  0  0
 10 24  1  0  0  0
 11 24  1  0  0  0
 11 12  1  0  0  0
 13 14  1  0  0  0
 15 16  1  0  0  0
 17 12  1  0  0  0
 26  8  1  0  0  0
 27 10  1  0  0  0
  8 22  2  0  0  0
 10 23  2  0  0  0
 12 13  2  0  0  0
 14 15  2  0  0  0
 16 17  2  0  0  0
M  END
> <rmsd>
0.554725051

$$$$
PubChem-67908940


 30 32  0  0  0  0  0  0  0  0999 V2000
   -3.0155   21.0351   70.4488 C   0  0  0  0  0
   -2.6129   21.1521   68.9798 C   0  0  0  0  0
   -2.7825   19.7868   68.3030 C   0  0  0  0  0
   -4.2115   19.3739   68.1141 C   0  0  0  0  0
   -5.1201   19.0036   69.1035 C   0  0  0  0  0
   -6.1338   18.8246   67.2244 C   0  0  0  0  0
   -4.8739   19.2487   66.9213 C   0  0  0  0  0
   -4.4788   19.4760   65.6064 C   0  0  0  0  0
   -5.4364   19.2464   64.6034 C   0  0  0  0  0
   -6.7336   18.8084   64.9552 C   0  0  0  0  0
   -1.1657   21.5504   68.8371 C   0  0  0  0  0
    0.7762   22.0442   67.2645 C   0  0  0  0  0
    1.6168   20.7736   67.2803 C   0  0  0  0  0
    0.9308   22.7697   65.9228 C   0  0  0  0  0
    0.4166   21.9937   64.7417 C   0  0  0  0  0
    1.3261   21.5032   63.7978 C   0  0  0  0  0
    0.8689   20.7952   62.6828 C   0  0  0  0  0
   -0.5006   20.5791   62.5048 C   0  0  0  0  0
   -1.4148   21.0718   63.4406 C   0  0  0  0  0
   -0.9578   21.7780   64.5559 C   0  0  0  0  0
   -3.5419   23.5267   68.6586 C   0  0  0  0  0
   -6.3140   18.6681   68.5483 N   0  0  0  0  0
   -7.0665   18.6018   66.2654 N   0  0  0  0  0
   -0.6248   21.7359   67.5263 N   0  0  0  0  0
   -3.4617   22.1406   68.3093 N   0  0  0  0  0
   -0.4373   21.7288   69.8526 O   0  0  0  0  0
    1.7917   20.3277   68.5899 O   0  0  0  0  0
    0.3292   24.0294   65.9776 O   0  0  0  0  0
   -2.8450   23.9976   69.5969 O   0  0  0  0  0
   -4.3955   24.3623   67.9518 O   0  0  0  0  0
  2  1  1  0  0  0
  2  3  1  0  0  0
  2 11  1  0  0  0
  2 25  1  0  0  0
  3  4  1  0  0  0
  5 22  1  0  0  0
  6 23  1  0  0  0
  7  8  1  0  0  0
  7  4  1  0  0  0
  9 10  1  0  0  0
 11 24  1  0  0  0
 12 24  1  0  0  0
 12 13  1  0  0  0
 12 14  1  0  0  0
 13 27  1  0  0  0
 14 15  1  0  0  0
 14 28  1  0  0  0
 16 17  1  0  0  0
 18 19  1  0  0  0
 20 15  1  0  0  0
 21 30  1  0  0  0
 22  6  1  0  0  0
 25 21  1  0  0  0
  4  5  2  0  0  0
  6  7  2  0  0  0
  8  9  2  0  0  0
 10 23  2  0  0  0
 11 26  2  0  0  0
 15 16  2  0  0  0
 17 18  2  0  0  0
 19 20  2  0  0  0
 21 29  2  0  0  0
M  END
> <rmsd>
0.438504159

$$$$
PubChem-88988842


 32 34  0  0  0  0  0  0  0  0999 V2000
   -0.3851   21.3091   72.7768 C   0  0  0  0  0
   -1.4757   20.3924   72.3204 C   0  0  0  0  0
   -2.5575   20.1644   73.0902 C   0  0  0  0  0
   -2.7033   20.8508   74.4167 C   0  0  0  0  0
   -3.6100   19.2287   72.6443 C   0  0  0  0  0
   -4.6955   18.9715   73.3638 C   0  0  0  0  0
   -1.3061   19.7173   70.9843 C   0  0  0  0  0
   -1.6662   20.6128   69.7864 C   0  0  0  0  0
   -3.1305   21.0560   69.8750 C   0  0  0  0  0
   -2.6575   23.0748   68.7130 C   0  0  0  0  0
   -1.1756   22.6943   68.5879 C   0  0  0  0  0
    0.6514   21.4531   69.6054 C   0  0  0  0  0
    0.9659   20.3468   68.5975 C   0  0  0  0  0
    2.4958   18.8928   69.5998 C   0  0  0  0  0
    3.9497   18.4644   69.7180 C   0  0  0  0  0
    4.1479   17.5913   70.9604 C   0  0  0  0  0
    3.6937   16.1610   70.6999 C   0  0  0  0  0
    4.5256   15.5444   69.5581 C   0  0  0  0  0
    4.6744   16.4719   68.3761 C   0  0  0  0  0
    4.4057   17.7843   68.4480 C   0  0  0  0  0
    2.6161   14.2506   68.8331 C   0  0  0  0  0
    4.2603   13.2698   70.2007 C   0  0  0  0  0
   -1.0078   23.1487   66.2395 C   0  0  0  0  0
   -3.0418   23.9272   67.5465 C   0  0  0  0  0
   -3.4864   21.8699   68.7180 N   0  0  0  0  0
   -0.7810   21.7909   69.6853 N   0  0  0  0  0
    2.3749   20.0025   68.6677 N   0  0  0  0  0
    4.0457   14.2242   69.1242 N   0  0  0  0  0
   -0.9308   22.1041   67.2677 N   0  0  0  0  0
   -2.2109   23.9721   66.3822 N   0  0  0  0  0
   -4.1028   24.6028   67.5846 O   0  0  0  0  0
    0.1294   23.9569   66.2846 O   0  0  0  0  0
  1  2  1  0  0  0
  3  5  1  0  0  0
  4  3  1  0  0  0
  7  2  1  0  0  0
  8  7  1  0  0  0
  8  9  1  0  0  0
  8 26  1  0  0  0
  9 25  1  0  0  0
 10 25  1  0  0  0
 10 11  1  0  0  0
 10 24  1  0  0  0
 11 26  1  0  0  0
 11 29  1  0  0  0
 12 26  1  0  0  0
 12 13  1  0  0  0
 13 27  1  0  0  0
 14 27  1  0  0  0
 15 14  1  0  0  0
 15 16  1  0  0  0
 15 20  1  0  0  0
 16 17  1  0  0  0
 17 18  1  0  0  0
 18 19  1  0  0  0
 18 28  1  0  0  0
 21 28  1  0  0  0
 22 28  1  0  0  0
 23 29  1  0  0  0
 23 30  1  0  0  0
 23 32  1  0  0  0
 30 24  1  0  0  0
  2  3  2  0  0  0
  5  6  2  0  0  0
 19 20  2  0  0  0
 24 31  2  0  0  0
M  END
> <rmsd>
0.547860265

$$$$
PubChem-258657 NSC87914


 27 28  0  0  0  0  0  0  0  0999 V2000
   -6.1152   23.2642   65.9747 C   0  0  0  0  0
   -4.0868   23.3183   66.8525 C   0  0  0  0  0
   -3.2358   22.1264   67.3002 C   0  0  0  0  0
   -1.7815   22.4030   66.8954 C   0  0  0  0  0
   -1.3175   23.8183   67.2637 C   0  0  0  0  0
   -2.4063   24.8309   66.8640 C   0  0  0  0  0
   -2.0218   26.2388   67.2914 C   0  0  0  0  0
   -0.3824   21.2275   68.7082 C   0  0  0  0  0
    0.5366   20.1051   69.0472 C   0  0  0  0  0
    2.7627   21.3161   69.0421 C   0  0  0  0  0
    4.9706   22.4255   68.9352 C   0  0  0  0  0
    5.6931   21.8271   70.0944 C   0  0  0  0  0
    6.6463   20.8238   69.8856 C   0  0  0  0  0
    7.3134   20.2547   70.9748 C   0  0  0  0  0
    7.0267   20.6862   72.2736 C   0  0  0  0  0
    6.0723   21.6865   72.4835 C   0  0  0  0  0
    5.4051   22.2559   71.3946 C   0  0  0  0  0
   -5.4274   23.1033   67.1779 O   0  0  0  0  0
   -3.6285   24.4939   67.4757 O   0  0  0  0  0
   -1.0918   26.7746   66.4003 O   0  0  0  0  0
   -0.1254   24.0991   66.5927 O   0  0  0  0  0
   -0.6999   22.0593   69.5993 O   0  0  0  0  0
    2.4403   21.9788   70.0665 O   0  0  0  0  0
    4.0011   21.5150   68.4280 O   0  0  0  0  0
   -3.3513   21.9516   68.6821 O   0  0  0  0  0
   -0.8585   21.3690   67.3645 N   0  0  0  0  0
    1.8610   20.3526   68.4941 N   0  0  0  0  0
  1 18  1  0  0  0
  2 18  1  0  0  0
  2  3  1  0  0  0
  2 19  1  0  0  0
  3  4  1  0  0  0
  3 25  1  0  0  0
  4  5  1  0  0  0
  4 26  1  0  0  0
  5  6  1  0  0  0
  5 21  1  0  0  0
  6 19  1  0  0  0
  6  7  1  0  0  0
  7 20  1  0  0  0
  9  8  1  0  0  0
  9 27  1  0  0  0
 10 24  1  0  0  0
 11 24  1  0  0  0
 11 12  1  0  0  0
 13 14  1  0  0  0
 15 16  1  0  0  0
 17 12  1  0  0  0
 26  8  1  0  0  0
 27 10  1  0  0  0
  8 22  2  0  0  0
 10 23  2  0  0  0
 12 13  2  0  0  0
 14 15  2  0  0  0
 16 17  2  0  0  0
M  END
> <rmsd>
0.515260756

$$$$
PubChem-118671622


 14 13  0  0  0  0  0  0  0  0999 V2000
   -5.4862   25.1154   65.9731 C   0  0  0  0  0
   -4.8041   23.7962   66.2681 C   0  0  0  0  0
   -3.2822   22.7241   67.4663 C   0  0  0  0  0
   -1.7747   22.9456   67.5405 C   0  0  0  0  0
   -1.2787   23.6129   66.2668 C   0  0  0  0  0
   -0.2877   21.3884   68.8543 C   0  0  0  0  0
    0.4092   20.0792   68.9595 C   0  0  0  0  0
    2.3031   18.8429   68.4031 C   0  0  0  0  0
   -3.9425   23.9508   67.3552 O   0  0  0  0  0
   -0.1328   22.2526   69.7580 O   0  0  0  0  0
   -3.7225   22.0702   68.6190 O   0  0  0  0  0
    0.4114   24.2371   66.4999 S   0  0  0  0  0
   -1.0966   21.6679   67.7115 N   0  0  0  0  0
    1.6834   20.1479   68.2670 N   0  0  0  0  0
  1  2  1  0  0  0
  2  9  1  0  0  0
  3  9  1  0  0  0
  3  4  1  0  0  0
  3 11  1  0  0  0
  4  5  1  0  0  0
  4 13  1  0  0  0
  5 12  1  0  0  0
  7  6  1  0  0  0
  7 14  1  0  0  0
  8 14  1  0  0  0
 13  6  1  0  0  0
  6 10  2  0  0  0
M  END
> <rmsd>
0.446101159

$$$$
PubChem-92239072 4900921 ZINC000004900921


 27 28  0  0  0  0  0  0  0  0999 V2000
   -2.5075   26.9628   65.7888 C   0  0  0  0  0
   -2.5877   25.0194   66.8406 C   0  0  0  0  0
   -1.6850   23.7911   66.6588 C   0  0  0  0  0
   -1.4463   23.1342   68.0210 C   0  0  0  0  0
   -2.7663   22.9464   68.7820 C   0  0  0  0  0
   -3.5338   24.2758   68.7525 C   0  0  0  0  0
   -4.8283   24.1867   69.5442 C   0  0  0  0  0
   -0.1679   21.1487   68.9444 C   0  0  0  0  0
    0.5365   19.8612   68.6884 C   0  0  0  0  0
    2.5228   20.6348   67.3192 C   0  0  0  0  0
    4.5082   21.4217   66.0986 C   0  0  0  0  0
    5.9697   21.5720   66.3291 C   0  0  0  0  0
    6.8436   20.5386   65.9751 C   0  0  0  0  0
    8.2151   20.6698   66.2134 C   0  0  0  0  0
    8.7129   21.8318   66.8117 C   0  0  0  0  0
    7.8389   22.8616   67.1736 C   0  0  0  0  0
    6.4673   22.7308   66.9351 C   0  0  0  0  0
   -2.8303   25.6182   65.6028 O   0  0  0  0  0
   -3.8127   24.6393   67.4223 O   0  0  0  0  0
   -4.5471   24.0539   70.9041 O   0  0  0  0  0
   -3.5299   21.9322   68.1926 O   0  0  0  0  0
   -0.2120   21.6141   70.1144 O   0  0  0  0  0
    1.7826   20.8864   66.3285 O   0  0  0  0  0
    3.8947   20.8761   67.2575 O   0  0  0  0  0
   -0.4624   24.1808   66.1091 O   0  0  0  0  0
   -0.7500   21.8642   67.8532 N   0  0  0  0  0
    1.9639   20.0936   68.5179 N   0  0  0  0  0
  1 18  1  0  0  0
  2 18  1  0  0  0
  2  3  1  0  0  0
  2 19  1  0  0  0
  3  4  1  0  0  0
  3 25  1  0  0  0
  4  5  1  0  0  0
  4 26  1  0  0  0
  5  6  1  0  0  0
  5 21  1  0  0  0
  6 19  1  0  0  0
  6  7  1  0  0  0
  7 20  1  0  0  0
  9  8  1  0  0  0
  9 27  1  0  0  0
 10 24  1  0  0  0
 11 24  1  0  0  0
 11 12  1  0  0  0
 13 14  1  0  0  0
 15 16  1  0  0  0
 17 12  1  0  0  0
 26  8  1  0  0  0
 27 10  1  0  0  0
  8 22  2  0  0  0
 10 23  2  0  0  0
 12 13  2  0  0  0
 14 15  2  0  0  0
 16 17  2  0  0  0
M  END
> <rmsd>
0.442634672

$$$$
PubChem-92239072 4900921 ZINC000004900921


 27 28  0  0  0  0  0  0  0  0999 V2000
   -2.5124   26.9659   65.7899 C   0  0  0  0  0
   -2.5907   25.0224   66.8417 C   0  0  0  0  0
   -1.6871   23.7948   66.6573 C   0  0  0  0  0
   -1.4454   23.1368   68.0184 C   0  0  0  0  0
   -2.7642   22.9466   68.7810 C   0  0  0  0  0
   -3.5328   24.2752   68.7544 C   0  0  0  0  0
   -4.8254   24.1842   69.5489 C   0  0  0  0  0
   -0.1666   21.1495   68.9381 C   0  0  0  0  0
    0.5358   19.8614   68.6796 C   0  0  0  0  0
    2.5421   20.6433   67.3439 C   0  0  0  0  0
    4.5755   21.3799   66.1434 C   0  0  0  0  0
    4.7432   20.3120   65.1158 C   0  0  0  0  0
    5.6769   19.2881   65.3119 C   0  0  0  0  0
    5.8246   18.2821   64.3519 C   0  0  0  0  0
    5.0379   18.2981   63.1959 C   0  0  0  0  0
    4.1031   19.3195   63.0000 C   0  0  0  0  0
    3.9552   20.3254   63.9599 C   0  0  0  0  0
   -2.8364   25.6214   65.6047 O   0  0  0  0  0
   -3.8143   24.6407   67.4254 O   0  0  0  0  0
   -4.5407   24.0606   70.9090 O   0  0  0  0  0
   -3.5278   21.9328   68.1913 O   0  0  0  0  0
   -0.2108   21.6126   70.1090 O   0  0  0  0  0
    1.8123   20.9290   66.3548 O   0  0  0  0  0
    3.9203   20.8645   67.2973 O   0  0  0  0  0
   -0.4659   24.1858   66.1051 O   0  0  0  0  0
   -0.7482   21.8675   67.8482 N   0  0  0  0  0
    1.9661   20.0884   68.5281 N   0  0  0  0  0
  1 18  1  0  0  0
  2 18  1  0  0  0
  2  3  1  0  0  0
  2 19  1  0  0  0
  3  4  1  0  0  0
  3 25  1  0  0  0
  4  5  1  0  0  0
  4 26  1  0  0  0
  5  6  1  0  0  0
  5 21  1  0  0  0
  6 19  1  0  0  0
  6  7  1  0  0  0
  7 20  1  0  0  0
  9  8  1  0  0  0
  9 27  1  0  0  0
 10 24  1  0  0  0
 11 24  1  0  0  0
 11 12  1  0  0  0
 13 14  1  0  0  0
 15 16  1  0  0  0
 17 12  1  0  0  0
 26  8  1  0  0  0
 27 10  1  0  0  0
  8 22  2  0  0  0
 10 23  2  0  0  0
 12 13  2  0  0  0
 14 15  2  0  0  0
 16 17  2  0  0  0
M  END
> <rmsd>
0.44127515

$$$$
PubChem-18220924


 18 17  0  0  0  0  0  0  0  0999 V2000
    1.9394   24.2385   63.7607 C   0  0  0  0  0
    1.4599   24.9642   65.0029 C   0  0  0  0  0
    0.8652   26.2836   64.6270 C   0  0  0  0  0
    0.0374   24.4195   67.0305 C   0  0  0  0  0
   -1.0047   23.5644   67.6681 C   0  0  0  0  0
   -2.3314   23.7215   66.9380 C   0  0  0  0  0
   -3.4717   23.2658   67.7852 C   0  0  0  0  0
   -0.2809   21.4588   68.8522 C   0  0  0  0  0
    0.1687   20.0436   68.7745 C   0  0  0  0  0
   -0.1598   26.3406   63.8967 O   0  0  0  0  0
    1.4450   27.4556   65.0931 O   0  0  0  0  0
    0.5207   25.3878   67.6754 O   0  0  0  0  0
   -4.3293   24.0988   68.1768 O   0  0  0  0  0
   -0.3670   22.0259   69.9740 O   0  0  0  0  0
    0.4788   24.1418   65.6976 N   0  0  0  0  0
   -3.6115   21.8919   68.1305 N   0  0  0  0  0
   -0.5791   22.1721   67.6519 N   0  0  0  0  0
    1.6064   19.9984   68.5775 N   0  0  0  0  0
  2  1  1  0  0  0
  2  3  1  0  0  0
  2 15  1  0  0  0
  3 11  1  0  0  0
  5  4  1  0  0  0
  5  6  1  0  0  0
  5 17  1  0  0  0
  6  7  1  0  0  0
  7 16  1  0  0  0
  9  8  1  0  0  0
  9 18  1  0  0  0
 15  4  1  0  0  0
 17  8  1  0  0  0
  3 10  2  0  0  0
  4 12  2  0  0  0
  7 13  2  0  0  0
  8 14  2  0  0  0
M  END
> <rmsd>
0.48237133

$$$$
PubChem-163468873


 20 21  0  0  0  0  0  0  0  0999 V2000
   -5.0469   23.6710   66.4123 C   0  0  0  0  0
   -3.4228   22.6384   67.5052 C   0  0  0  0  0
   -1.9105   22.7475   67.3391 C   0  0  0  0  0
   -1.5645   23.2171   65.9317 C   0  0  0  0  0
   -0.1238   23.5930   65.8393 C   0  0  0  0  0
    0.8069   22.9752   65.0409 C   0  0  0  0  0
    1.7308   24.5679   66.1457 C   0  0  0  0  0
   -0.3080   21.2664   68.6013 C   0  0  0  0  0
    0.3023   19.9169   68.7887 C   0  0  0  0  0
    0.0165   19.3821   70.2006 C   0  0  0  0  0
    1.3629   19.1056   70.8671 C   0  0  0  0  0
    2.3352   19.5218   69.8411 C   0  0  0  0  0
   -4.0165   23.8907   67.3276 O   0  0  0  0  0
    0.0466   22.2328   69.3308 O   0  0  0  0  0
    3.5818   19.4663   70.0009 O   0  0  0  0  0
   -3.7257   22.1650   68.7839 O   0  0  0  0  0
    1.9824   23.5984   65.2410 N   0  0  0  0  0
    0.4408   24.5932   66.5352 N   0  0  0  0  0
   -1.2913   21.4517   67.5835 N   0  0  0  0  0
    1.7447   19.9936   68.6510 N   0  0  0  0  0
  1 13  1  0  0  0
  2 13  1  0  0  0
  2  3  1  0  0  0
  2 16  1  0  0  0
  3  4  1  0  0  0
  3 19  1  0  0  0
  4  5  1  0  0  0
  6 17  1  0  0  0
  7 18  1  0  0  0
  9  8  1  0  0  0
  9 10  1  0  0  0
  9 20  1  0  0  0
 10 11  1  0  0  0
 11 12  1  0  0  0
 12 20  1  0  0  0
 18  5  1  0  0  0
 19  8  1  0  0  0
  5  6  2  0  0  0
  7 17  2  0  0  0
  8 14  2  0  0  0
 12 15  2  0  0  0
M  END
> <rmsd>
0.543892503

$$$$
PubChem-91885931 PubChem-91885932


 33 36  0  0  0  0  0  0  0  0999 V2000
   -3.4260   29.7569   72.7655 C   0  0  0  0  0
   -3.0552   30.5835   70.4530 C   0  0  0  0  0
   -3.1415   28.0878   70.9154 C   0  0  0  0  0
   -3.2428   25.7496   71.4319 C   0  0  0  0  0
   -2.8758   26.4207   69.2317 C   0  0  0  0  0
   -2.9234   27.7269   69.5808 C   0  0  0  0  0
   -2.5615   27.5999   67.4852 C   0  0  0  0  0
   -2.4930   25.1180   67.1031 C   0  0  0  0  0
   -1.1815   24.4289   67.4308 C   0  0  0  0  0
   -1.6271   23.1315   68.0494 C   0  0  0  0  0
   -3.0256   22.9623   67.5220 C   0  0  0  0  0
   -0.1114   21.1988   68.6177 C   0  0  0  0  0
    0.7236   20.0547   68.1497 C   0  0  0  0  0
    0.0892   18.7353   68.5704 C   0  0  0  0  0
    0.7096   17.5819   67.8542 C   0  0  0  0  0
    1.4234   16.6215   68.5773 C   0  0  0  0  0
    1.9969   15.5301   67.9182 C   0  0  0  0  0
    1.8578   15.3878   66.5333 C   0  0  0  0  0
    1.1340   16.3506   65.8105 C   0  0  0  0  0
    0.5606   17.4418   66.4691 C   0  0  0  0  0
    2.3526   14.0636   64.5036 C   0  0  0  0  0
   -3.2037   29.4568   71.3606 N   0  0  0  0  0
   -3.2974   27.0654   71.8136 N   0  0  0  0  0
   -3.0287   25.4149   70.1254 N   0  0  0  0  0
   -2.7276   28.5000   68.4946 N   0  0  0  0  0
   -2.6539   26.3181   67.9156 N   0  0  0  0  0
   -0.7881   22.0072   67.6559 N   0  0  0  0  0
    2.0670   20.1636   68.6956 N   0  0  0  0  0
   -3.5752   24.2383   67.3169 O   0  0  0  0  0
   -3.7967   22.2617   68.4487 O   0  0  0  0  0
   -0.2284   21.4391   69.8507 O   0  0  0  0  0
    2.4442   14.2863   65.9041 O   0  0  0  0  0
   -0.4776   24.2166   66.2416 O   0  0  0  0  0
  1 22  1  0  0  0
  2 22  1  0  0  0
  4 23  1  0  0  0
  5 24  1  0  0  0
  6 25  1  0  0  0
  6  3  1  0  0  0
  7 26  1  0  0  0
  8 26  1  0  0  0
  8  9  1  0  0  0
  8 29  1  0  0  0
  9 10  1  0  0  0
  9 33  1  0  0  0
 10 11  1  0  0  0
 10 27  1  0  0  0
 11 29  1  0  0  0
 11 30  1  0  0  0
 13 12  1  0  0  0
 13 14  1  0  0  0
 13 28  1  0  0  0
 14 15  1  0  0  0
 16 17  1  0  0  0
 18 19  1  0  0  0
 18 32  1  0  0  0
 20 15  1  0  0  0
 21 32  1  0  0  0
 22  3  1  0  0  0
 26  5  1  0  0  0
 27 12  1  0  0  0
  3 23  2  0  0  0
  4 24  2  0  0  0
  5  6  2  0  0  0
  7 25  2  0  0  0
 12 31  2  0  0  0
 15 16  2  0  0  0
 17 18  2  0  0  0
 19 20  2  0  0  0
M  END
> <rmsd>
0.453070939

$$$$
