MolPort-051-706-330 MCULE-8049727372


 34 35  0  0  0  0  0  0  0  0999 V2000
   -6.7930   22.1274   64.0347 C   0  0  0  0  0
   -6.6463   22.3191   65.5291 C   0  0  0  0  0
   -7.0292   23.7422   65.8882 C   0  0  0  0  0
   -5.2055   22.0455   65.9310 C   0  0  0  0  0
   -5.0730   21.8739   67.4402 C   0  0  0  0  0
   -2.9903   23.2721   67.8486 C   0  0  0  0  0
   -1.5308   23.3152   68.2068 C   0  0  0  0  0
   -0.0371   21.3497   68.7709 C   0  0  0  0  0
    0.4838   20.0046   68.3791 C   0  0  0  0  0
   -0.3955   18.9293   68.9872 C   0  0  0  0  0
   -0.3660   17.6792   68.1239 C   0  0  0  0  0
   -1.5233   16.7641   68.4877 C   0  0  0  0  0
   -2.8331   17.3932   68.0503 C   0  0  0  0  0
   -5.3042   17.0637   68.5826 C   0  0  0  0  0
   -5.6682   18.4716   68.3145 C   0  0  0  0  0
   -6.9370   19.0055   68.4437 C   0  0  0  0  0
   -5.5773   20.5259   67.8521 C   0  0  0  0  0
    2.9593   20.5039   68.1952 C   0  0  0  0  0
    4.3386   20.2946   68.7265 C   0  0  0  0  0
    5.2361   19.6962   67.6603 C   0  0  0  0  0
    4.9235   21.6041   69.2194 C   0  0  0  0  0
   -0.8093   24.4823   67.5264 C   0  0  0  0  0
    0.5646   24.6948   68.1328 C   0  0  0  0  0
   -3.6767   22.0169   67.8301 N   0  0  0  0  0
   -0.8928   22.0477   67.8667 N   0  0  0  0  0
   -3.9525   16.5906   68.5133 N   0  0  0  0  0
   -4.8011   19.4288   67.9353 N   0  0  0  0  0
    1.8634   19.8291   68.8161 N   0  0  0  0  0
   -3.6247   24.3416   67.6364 O   0  0  0  0  0
    0.2223   21.8309   69.9077 O   0  0  0  0  0
   -6.2093   16.2516   68.9102 O   0  0  0  0  0
   -6.8325   20.2795   68.1449 O   0  0  0  0  0
    2.7642   21.2680   67.2099 O   0  0  0  0  0
   -0.6905   24.2614   66.1524 O   0  0  0  0  0
  1  2  1  0  0  0
  2  3  1  0  0  0
  2  4  1  0  0  0
  5  4  1  0  0  0
  5 24  1  0  0  0
  5 17  1  0  0  0
  7  6  1  0  0  0
  7 25  1  0  0  0
  7 22  1  0  0  0
  9  8  1  0  0  0
  9 10  1  0  0  0
  9 28  1  0  0  0
 10 11  1  0  0  0
 11 12  1  0  0  0
 12 13  1  0  0  0
 13 26  1  0  0  0
 14 15  1  0  0  0
 15 27  1  0  0  0
 16 32  1  0  0  0
 17 32  1  0  0  0
 19 18  1  0  0  0
 19 20  1  0  0  0
 19 21  1  0  0  0
 22 23  1  0  0  0
 22 34  1  0  0  0
 24  6  1  0  0  0
 25  8  1  0  0  0
 26 14  1  0  0  0
 28 18  1  0  0  0
  6 29  2  0  0  0
  8 30  2  0  0  0
 14 31  2  0  0  0
 15 16  2  0  0  0
 17 27  2  0  0  0
 18 33  2  0  0  0
M  END
> <rmsd>
0.430206329

$$$$
MolPort-046-763-626 MolPort-047-945-838 CSSS06256040279 MCULE-1376694040 PubChem-131676367 PubChem-162639144


 34 37  0  0  0  0  0  0  0  0999 V2000
  -10.0784   23.3192   64.1219 C   0  0  0  0  0
  -10.3176   23.4268   66.5916 C   0  0  0  0  0
   -8.0149   23.5538   65.5278 C   0  0  0  0  0
   -5.8792   23.6789   64.4477 C   0  0  0  0  0
   -5.9922   23.7639   66.7731 C   0  0  0  0  0
   -7.3406   23.6547   66.7501 C   0  0  0  0  0
   -6.7052   23.7564   68.7805 C   0  0  0  0  0
   -4.2063   23.9094   68.5601 C   0  0  0  0  0
   -3.5655   22.5418   68.7170 C   0  0  0  0  0
   -2.1156   22.9164   68.6412 C   0  0  0  0  0
   -2.1025   24.1613   67.7518 C   0  0  0  0  0
   -1.6755   23.8963   66.3108 C   0  0  0  0  0
   -0.2024   21.2923   68.9179 C   0  0  0  0  0
    0.6079   20.1725   68.3574 C   0  0  0  0  0
    0.3763   18.9015   69.1641 C   0  0  0  0  0
    0.9026   17.7017   68.4490 C   0  0  0  0  0
    0.3245   17.2814   67.2449 C   0  0  0  0  0
    0.8154   16.1484   66.5895 C   0  0  0  0  0
    1.8826   15.4249   67.1325 C   0  0  0  0  0
    2.4551   15.8457   68.3444 C   0  0  0  0  0
    1.9646   16.9785   69.0000 C   0  0  0  0  0
    3.4291   13.5051   66.9314 C   0  0  0  0  0
   -9.4473   23.4335   65.4264 N   0  0  0  0  0
   -7.2450   23.5704   64.3951 N   0  0  0  0  0
   -5.2372   23.7758   65.6489 N   0  0  0  0  0
   -7.8223   23.6475   68.0084 N   0  0  0  0  0
   -5.5711   23.8370   68.0425 N   0  0  0  0  0
   -1.2809   21.8239   68.1496 N   0  0  0  0  0
    2.0185   20.5254   68.3685 N   0  0  0  0  0
   -3.3947   24.7256   67.7457 O   0  0  0  0  0
   -0.2865   23.7891   66.2375 O   0  0  0  0  0
    0.0560   21.7549   70.0628 O   0  0  0  0  0
    2.3512   14.2977   66.4524 O   0  0  0  0  0
   -3.9135   21.7077   67.6470 O   0  0  0  0  0
  1 23  1  0  0  0
  2 23  1  0  0  0
  4 24  1  0  0  0
  5 25  1  0  0  0
  6 26  1  0  0  0
  6  3  1  0  0  0
  7 27  1  0  0  0
  8 27  1  0  0  0
  8  9  1  0  0  0
  8 30  1  0  0  0
  9 10  1  0  0  0
  9 34  1  0  0  0
 10 11  1  0  0  0
 10 28  1  0  0  0
 11 30  1  0  0  0
 11 12  1  0  0  0
 12 31  1  0  0  0
 14 13  1  0  0  0
 14 15  1  0  0  0
 14 29  1  0  0  0
 15 16  1  0  0  0
 17 18  1  0  0  0
 19 20  1  0  0  0
 19 33  1  0  0  0
 21 16  1  0  0  0
 22 33  1  0  0  0
 23  3  1  0  0  0
 27  5  1  0  0  0
 28 13  1  0  0  0
  3 24  2  0  0  0
  4 25  2  0  0  0
  5  6  2  0  0  0
  7 26  2  0  0  0
 13 32  2  0  0  0
 16 17  2  0  0  0
 18 19  2  0  0  0
 20 21  2  0  0  0
M  END
> <rmsd>
0.59507978

$$$$
Molport-047-049-984 643573655 MCULE-4244885970 PubChem-133074807


 36 38  0  0  0  0  0  0  0  0999 V2000
    1.7819   20.1870   68.1870 O   0  0  0  0  0
   -0.4808   22.4287   69.9760 O   0  0  0  0  0
   -3.3856   24.1191   67.7115 O   0  0  0  0  0
   -2.4720   24.4801   65.2363 O   0  0  0  0  0
   -0.0952   22.2546   65.0363 O   0  0  0  0  0
   -5.2030   20.5829   70.5553 O   0  0  0  0  0
    1.5558   20.9738   67.0562 C   0  0  0  0  0
    2.8637   21.6280   66.6465 C   0  0  0  0  0
    0.4821   22.0260   67.3505 C   0  0  0  0  0
   -1.1435   21.6590   69.2336 C   0  0  0  0  0
   -2.3997   21.0423   69.7478 C   0  0  0  0  0
   -3.5576   22.0044   69.5611 C   0  0  0  0  0
   -3.8504   23.0250   67.2861 C   0  0  0  0  0
   -4.1673   22.8578   65.8527 C   0  0  0  0  0
   -5.1255   21.9100   65.4688 C   0  0  0  0  0
   -5.4256   21.7076   64.1195 C   0  0  0  0  0
   -4.7633   22.4449   63.1398 C   0  0  0  0  0
   -3.7906   23.3791   63.5071 C   0  0  0  0  0
   -3.4800   23.5871   64.8625 C   0  0  0  0  0
   -1.4218   24.8523   64.3504 C   0  0  0  0  0
   -0.1401   25.1575   65.1202 C   0  0  0  0  0
   -0.1844   26.5803   65.6328 C   0  0  0  0  0
    0.1317   22.8287   66.1355 C   0  0  0  0  0
   -4.6632   21.7202   70.5183 C   0  0  0  0  0
   -6.1841   22.6040   72.3453 C   0  0  0  0  0
   -5.6541   21.8831   73.5767 C   0  0  0  0  0
   -6.6783   21.8853   74.6622 C   0  0  0  0  0
   -6.4180   22.5735   75.8524 C   0  0  0  0  0
   -7.3705   22.5854   76.8788 C   0  0  0  0  0
   -8.5806   21.9008   76.7172 C   0  0  0  0  0
   -8.8364   21.1997   75.5327 C   0  0  0  0  0
   -7.8842   21.1884   74.5069 C   0  0  0  0  0
   -0.7169   21.3993   67.8936 N   0  0  0  0  0
   -4.0467   21.9385   68.1947 N   0  0  0  0  0
    0.0484   24.2531   66.2491 N   0  0  0  0  0
   -5.1222   22.7730   71.3675 N   0  0  0  0  0
  7  1  1  0  0  0
  7  8  1  0  0  0
  7  9  1  0  0  0
  9 33  1  0  0  0
  9 23  1  0  0  0
 11 10  1  0  0  0
 11 12  1  0  0  0
 12 34  1  0  0  0
 12 24  1  0  0  0
 13 14  1  0  0  0
 15 16  1  0  0  0
 17 18  1  0  0  0
 19  4  1  0  0  0
 19 14  1  0  0  0
 20  4  1  0  0  0
 20 21  1  0  0  0
 21 22  1  0  0  0
 21 35  1  0  0  0
 24 36  1  0  0  0
 25 36  1  0  0  0
 25 26  1  0  0  0
 26 27  1  0  0  0
 28 29  1  0  0  0
 30 31  1  0  0  0
 32 27  1  0  0  0
 33 10  1  0  0  0
 34 13  1  0  0  0
 35 23  1  0  0  0
 10  2  2  0  0  0
 13  3  2  0  0  0
 14 15  2  0  0  0
 16 17  2  0  0  0
 18 19  2  0  0  0
 23  5  2  0  0  0
 24  6  2  0  0  0
 27 28  2  0  0  0
 29 30  2  0  0  0
 31 32  2  0  0  0
M  END
> <rmsd>
0.474471658

$$$$
