MolPort-007-565-189 ChemDiv-4464-1037 MCULE-6249872393 PubChem-46499337


 21 21  0  0  0  0  0  0  0  0999 V2000
   -3.7674   22.0873   67.4519 N   0  0  0  0  0
   -0.8180   21.9701   67.8267 N   0  0  0  0  0
    1.6121   20.5369   69.3646 N   0  0  0  0  0
   -2.9266   23.1685   67.8439 C   0  0  0  0  0
   -1.4900   23.2027   67.4328 C   0  0  0  0  0
   -1.3909   23.3866   65.9284 C   0  0  0  0  0
   -0.5052   21.6590   69.1861 C   0  0  0  0  0
    0.1745   20.3768   69.5087 C   0  0  0  0  0
    2.5197   19.4613   69.6000 C   0  0  0  0  0
    4.8554   18.6479   69.6104 C   0  0  0  0  0
    4.9049   17.7786   68.3998 C   0  0  0  0  0
    4.3285   16.5042   68.4301 C   0  0  0  0  0
    4.3622   15.6932   67.2914 C   0  0  0  0  0
    4.9703   16.1568   66.1207 C   0  0  0  0  0
    5.5441   17.4316   66.0881 C   0  0  0  0  0
    5.5106   18.2427   67.2266 C   0  0  0  0  0
   -3.3997   24.1090   68.5328 O   0  0  0  0  0
   -0.0645   23.6203   65.5648 O   0  0  0  0  0
   -0.7671   22.4758   70.1090 O   0  0  0  0  0
    2.0863   18.3290   69.9503 O   0  0  0  0  0
    3.8901   19.6806   69.4431 O   0  0  0  0  0
  1  4  1  0  0  0
  2  7  1  0  0  0
  3  9  1  0  0  0
  5  4  1  0  0  0
  5  6  1  0  0  0
  5  2  1  0  0  0
  6 18  1  0  0  0
  8  7  1  0  0  0
  8  3  1  0  0  0
  9 21  1  0  0  0
 10 21  1  0  0  0
 10 11  1  0  0  0
 12 13  1  0  0  0
 14 15  1  0  0  0
 16 11  1  0  0  0
  4 17  2  0  0  0
  7 19  2  0  0  0
  9 20  2  0  0  0
 11 12  2  0  0  0
 13 14  2  0  0  0
 15 16  2  0  0  0
M  END
> <rmsd>
0.772413075

$$$$
MolPort-051-751-318 Molport-051-830-963


 35 37  0  0  0  0  0  0  0  0999 V2000
    2.1609   21.7829   67.5057 C   0  0  0  0  0
    1.1832   20.7588   68.0477 C   0  0  0  0  0
    1.4658   18.8710   69.8046 C   0  0  0  0  0
    0.3371   18.0142   69.3558 C   0  0  0  0  0
    0.4024   16.6095   69.4705 C   0  0  0  0  0
   -0.6992   15.8213   69.1220 C   0  0  0  0  0
   -1.8783   16.4170   68.6696 C   0  0  0  0  0
   -1.9668   17.8061   68.5713 C   0  0  0  0  0
   -3.2067   18.4228   68.0036 C   0  0  0  0  0
   -3.5824   19.7051   68.7265 C   0  0  0  0  0
   -4.0734   20.7194   67.7150 C   0  0  0  0  0
   -3.9952   23.2399   67.5118 C   0  0  0  0  0
   -3.9931   23.1851   66.0157 C   0  0  0  0  0
   -2.0573   21.9556   65.0315 C   0  0  0  0  0
   -0.8147   21.5615   65.8298 C   0  0  0  0  0
   -0.1360   21.4260   68.3090 C   0  0  0  0  0
   -0.3404   20.2093   65.3905 C   0  0  0  0  0
   -1.1379   19.0688   65.5596 C   0  0  0  0  0
   -0.6745   17.8175   65.1436 C   0  0  0  0  0
    0.5857   17.7015   64.5509 C   0  0  0  0  0
    1.3802   18.8372   64.3700 C   0  0  0  0  0
    0.9164   20.0887   64.7862 C   0  0  0  0  0
   -1.9636   24.4745   65.2781 C   0  0  0  0  0
   -0.6059   24.5343   64.6591 C   0  0  0  0  0
   -0.8537   18.5918   68.9004 C   0  0  0  0  0
    1.7381   20.1741   69.2643 N   0  0  0  0  0
   -4.0156   22.0483   68.3006 N   0  0  0  0  0
   -2.6298   23.2170   65.4953 N   0  0  0  0  0
   -1.0972   21.6049   67.2632 N   0  0  0  0  0
    0.4008   24.6610   65.6978 N   0  0  0  0  0
    2.2208   18.4475   70.7196 O   0  0  0  0  0
   -3.9516   24.3583   68.0866 O   0  0  0  0  0
   -0.4165   21.8321   69.4684 O   0  0  0  0  0
   -2.5173   25.5524   65.6248 O   0  0  0  0  0
    1.5314   15.9944   69.9034 F   0  0  0  0  0
  2  1  1  0  0  0
  2 26  1  0  0  0
  2 16  1  0  0  0
  3  4  1  0  0  0
  5 35  1  0  0  0
  5  6  1  0  0  0
  7  8  1  0  0  0
  9  8  1  0  0  0
  9 10  1  0  0  0
 10 11  1  0  0  0
 11 27  1  0  0  0
 13 12  1  0  0  0
 13 28  1  0  0  0
 14 28  1  0  0  0
 14 15  1  0  0  0
 15 29  1  0  0  0
 15 17  1  0  0  0
 18 19  1  0  0  0
 20 21  1  0  0  0
 22 17  1  0  0  0
 24 23  1  0  0  0
 24 30  1  0  0  0
 25  4  1  0  0  0
 26  3  1  0  0  0
 27 12  1  0  0  0
 28 23  1  0  0  0
 29 16  1  0  0  0
  3 31  2  0  0  0
  4  5  2  0  0  0
  6  7  2  0  0  0
  8 25  2  0  0  0
 12 32  2  0  0  0
 16 33  2  0  0  0
 17 18  2  0  0  0
 19 20  2  0  0  0
 21 22  2  0  0  0
 23 34  2  0  0  0
M  END
> <rmsd>
0.510466397

$$$$
