PubChem-16241582 PubChem-2438700 3323226 CSC028101718 MCULE-3323671237 MCULE-9185040685 MolPort-005-877-010 ZINC000003323226


 25 27  0  0  0  0  0  0  0  0999 V2000
    6.2355   21.1261   74.1131 N   0  0  0  0  0
    3.2399   19.2921   71.3333 N   0  0  0  0  0
    2.2951   20.6174   68.8425 N   0  0  0  0  0
    5.6769   21.5775   67.3532 N   0  0  0  0  0
    5.3050   20.6000   73.1718 C   0  0  0  0  0
    4.2928   19.6062   73.5895 C   0  0  0  0  0
    4.1365   19.1336   74.8986 C   0  0  0  0  0
    3.1412   18.2446   75.0622 C   0  0  0  0  0
    2.9697   17.7677   76.4412 C   0  0  0  0  0
    4.0814   18.5344   77.1888 C   0  0  0  0  0
    4.8276   19.4268   76.1705 C   0  0  0  0  0
    3.3414   19.0192   72.7376 C   0  0  0  0  0
    2.2127   18.8316   70.4482 C   0  0  0  0  0
    2.2880   19.1746   69.0024 C   0  0  0  0  0
    2.7049   20.8842   67.4750 C   0  0  0  0  0
    3.3291   22.2672   67.3811 C   0  0  0  0  0
    4.6682   22.3157   68.1042 C   0  0  0  0  0
    5.9502   20.3065   68.0479 C   0  0  0  0  0
    7.0155   20.4258   69.1496 C   0  0  0  0  0
    7.8535   22.3314   68.3671 C   0  0  0  0  0
    6.8621   22.4377   67.1976 C   0  0  0  0  0
    2.3506   17.9458   73.6150 S   0  0  0  0  0
    7.2355   21.7670   69.4899 O   0  0  0  0  0
    1.2449   18.1454   70.8704 O   0  0  0  0  0
    5.3540   20.9971   71.9783 O   0  0  0  0  0
  1  5  1  0  0  0
  2 13  1  0  0  0
  5  6  1  0  0  0
  6  7  1  0  0  0
  8 22  1  0  0  0
  9  8  1  0  0  0
  9 10  1  0  0  0
 10 11  1  0  0  0
 11  7  1  0  0  0
 12 22  1  0  0  0
 12  2  1  0  0  0
 14 13  1  0  0  0
 14  3  1  0  0  0
 15  3  1  0  0  0
 15 16  1  0  0  0
 16 17  1  0  0  0
 17  4  1  0  0  0
 18  4  1  0  0  0
 18 19  1  0  0  0
 19 23  1  0  0  0
 20 23  1  0  0  0
 20 21  1  0  0  0
 21  4  1  0  0  0
  5 25  2  0  0  0
  7  8  2  0  0  0
 12  6  2  0  0  0
 13 24  2  0  0  0
M  END
> <rmsd>
0.837184072

$$$$
PubChem-140979834


 36 42  0  0  0  0  0  0  0  0999 V2000
    2.7106   23.5703   75.1450 C   0  0  0  0  0
    4.1249   24.0618   75.2276 C   0  0  0  0  0
    4.8218   23.3266   74.1142 C   0  0  0  0  0
    2.5411   23.1089   73.7097 C   0  0  0  0  0
    5.3257   21.7989   71.6276 C   0  0  0  0  0
    4.9548   20.8320   70.4757 C   0  0  0  0  0
    3.4860   21.2144   70.3653 C   0  0  0  0  0
    2.5742   20.2503   69.6604 C   0  0  0  0  0
    1.3414   18.5645   69.2594 C   0  0  0  0  0
    1.2933   19.4231   68.1793 C   0  0  0  0  0
    5.0892   19.3591   70.8768 C   0  0  0  0  0
    5.7296   18.3633   70.1582 C   0  0  0  0  0
    5.5549   17.2311   70.9333 C   0  0  0  0  0
    5.7058   21.1088   69.1731 C   0  0  0  0  0
    5.7004   21.7701   66.8961 C   0  0  0  0  0
    7.0851   21.6295   66.8386 C   0  0  0  0  0
    7.7557   21.2193   67.9882 C   0  0  0  0  0
    6.4766   21.2491   72.4706 C   0  0  0  0  0
    7.7818   21.0928   72.0417 C   0  0  0  0  0
    8.4561   20.5098   73.0958 C   0  0  0  0  0
    7.5314   20.3298   74.1064 C   0  0  0  0  0
    5.6805   23.1934   71.0850 C   0  0  0  0  0
    6.7001   25.0140   70.6837 C   0  0  0  0  0
    5.4788   25.0268   70.0377 C   0  0  0  0  0
    3.8495   23.1207   73.0421 N   0  0  0  0  0
    4.0777   21.8473   72.4464 N   0  0  0  0  0
    2.1476   19.0924   70.1980 N   0  0  0  0  0
    2.0700   20.4909   68.4376 N   0  0  0  0  0
    4.8500   17.5513   72.0347 N   0  0  0  0  0
    4.5631   18.8402   72.0017 N   0  0  0  0  0
    5.0396   21.5093   68.0532 N   0  0  0  0  0
    7.0595   20.9682   69.1268 N   0  0  0  0  0
    6.3231   20.7756   73.7210 N   0  0  0  0  0
    6.8263   23.8504   71.3502 N   0  0  0  0  0
    3.0001   21.5506   71.6408 O   0  0  0  0  0
    4.8840   23.8917   70.3116 O   0  0  0  0  0
  1  2  1  0  0  0
  2  3  1  0  0  0
  3 25  1  0  0  0
  4 25  1  0  0  0
  4  1  1  0  0  0
  5 26  1  0  0  0
  5  6  1  0  0  0
  5 18  1  0  0  0
  5 22  1  0  0  0
  6  7  1  0  0  0
  6 11  1  0  0  0
  6 14  1  0  0  0
  7 35  1  0  0  0
  7  8  1  0  0  0
  9 27  1  0  0  0
 10 28  1  0  0  0
 12 13  1  0  0  0
 14 32  1  0  0  0
 15 31  1  0  0  0
 16 17  1  0  0  0
 19 20  1  0  0  0
 21 33  1  0  0  0
 22 36  1  0  0  0
 23 34  1  0  0  0
 24 36  1  0  0  0
 25 26  1  0  0  0
 26 35  1  0  0  0
 28  8  1  0  0  0
 30 29  1  0  0  0
 30 11  1  0  0  0
 33 18  1  0  0  0
  8 27  2  0  0  0
  9 10  2  0  0  0
 11 12  2  0  0  0
 13 29  2  0  0  0
 14 31  2  0  0  0
 15 16  2  0  0  0
 17 32  2  0  0  0
 18 19  2  0  0  0
 20 21  2  0  0  0
 22 34  2  0  0  0
 23 24  2  0  0  0
M  END
> <rmsd>
0.727321327

$$$$
PubChem-70160032


 29 33  0  0  0  0  0  0  0  0999 V2000
    4.4955   14.8364   70.8457 C   0  0  0  0  0
    3.8570   16.1638   70.4972 C   0  0  0  0  0
    2.3825   18.2371   71.0429 C   0  0  0  0  0
    2.4063   20.2269   70.1821 C   0  0  0  0  0
    3.1219   19.4273   71.0402 C   0  0  0  0  0
    5.2809   20.7860   71.4076 C   0  0  0  0  0
    6.5349   20.6759   72.2464 C   0  0  0  0  0
    5.9383   20.7866   70.0685 C   0  0  0  0  0
    6.8500   21.7486   68.4500 C   0  0  0  0  0
    7.0640   22.5301   67.2224 C   0  0  0  0  0
    8.3637   22.7879   66.7642 C   0  0  0  0  0
    8.5657   23.5290   65.5960 C   0  0  0  0  0
    7.4693   24.0160   64.8789 C   0  0  0  0  0
    6.1709   23.7619   65.3294 C   0  0  0  0  0
    5.9688   23.0210   66.4975 C   0  0  0  0  0
    1.7550   21.1435   68.4427 C   0  0  0  0  0
    1.6659   22.0429   67.2625 C   0  0  0  0  0
    2.8426   16.7311   71.8910 S   0  0  0  0  0
    1.3200   18.3299   70.1955 N   0  0  0  0  0
    1.3621   19.5741   69.7568 N   0  0  0  0  0
    4.4271   19.6183   71.6005 N   0  0  0  0  0
    7.6247   20.6272   71.5422 N   0  0  0  0  0
    7.2435   20.6508   70.2036 N   0  0  0  0  0
    5.6201   21.5147   68.9820 N   0  0  0  0  0
    7.8590   21.2919   69.2318 N   0  0  0  0  0
    6.5479   20.6716   73.6698 N   0  0  0  0  0
    4.5743   22.0275   71.6853 N   0  0  0  0  0
    2.7446   21.2490   69.3818 N   0  0  0  0  0
    0.9327   20.0713   68.6191 N   0  0  0  0  0
  1  2  1  0  0  0
  2 18  1  0  0  0
  3 18  1  0  0  0
  4 28  1  0  0  0
  5 21  1  0  0  0
  5  3  1  0  0  0
  6 21  1  0  0  0
  6  7  1  0  0  0
  6 27  1  0  0  0
  6  8  1  0  0  0
  7 26  1  0  0  0
  9 24  1  0  0  0
  9 10  1  0  0  0
 11 12  1  0  0  0
 13 14  1  0  0  0
 15 10  1  0  0  0
 16 29  1  0  0  0
 17 16  1  0  0  0
 20 19  1  0  0  0
 20  4  1  0  0  0
 23 22  1  0  0  0
 23  8  1  0  0  0
 23 25  1  0  0  0
 29 20  1  0  0  0
  3 19  2  0  0  0
  4  5  2  0  0  0
  7 22  2  0  0  0
  8 24  2  0  0  0
  9 25  2  0  0  0
 10 11  2  0  0  0
 12 13  2  0  0  0
 14 15  2  0  0  0
 16 28  2  0  0  0
M  END
> <rmsd>
0.740933776

$$$$
PubChem-154483924


 29 31  0  0  0  0  0  0  0  0999 V2000
    7.8469   20.9018   78.2798 C   0  0  0  0  0
    6.9606   20.1731   79.0752 C   0  0  0  0  0
    5.6629   19.9411   78.6133 C   0  0  0  0  0
    6.1200   21.1437   76.6163 C   0  0  0  0  0
    7.4288   21.3896   77.0403 C   0  0  0  0  0
    5.6649   21.6333   75.2877 C   0  0  0  0  0
    5.5209   20.7900   72.9185 C   0  0  0  0  0
    5.7587   19.6824   71.9420 C   0  0  0  0  0
    4.0799   19.9035   70.0369 C   0  0  0  0  0
    4.9697   20.5829   69.2860 C   0  0  0  0  0
    6.3727   20.6729   69.7222 C   0  0  0  0  0
    8.1782   19.9916   71.3457 C   0  0  0  0  0
    8.8593   18.8951   70.5988 C   0  0  0  0  0
    9.6739   19.1963   69.5020 C   0  0  0  0  0
   10.2994   18.1677   68.7910 C   0  0  0  0  0
   10.1089   16.8365   69.1743 C   0  0  0  0  0
    9.2919   16.5336   70.2680 C   0  0  0  0  0
    8.6663   17.5620   70.9792 C   0  0  0  0  0
    2.6686   19.6999   69.6340 C   0  0  0  0  0
    5.2733   20.4243   77.4027 N   0  0  0  0  0
    5.8601   20.5938   74.2904 N   0  0  0  0  0
    4.5091   19.3179   71.2764 N   0  0  0  0  0
    6.7726   20.0714   70.9637 N   0  0  0  0  0
    2.1556   20.2050   68.4043 N   0  0  0  0  0
    5.0374   21.8882   72.5297 O   0  0  0  0  0
    7.2177   21.2647   68.9975 O   0  0  0  0  0
    4.6020   21.1895   68.0888 O   0  0  0  0  0
    1.8958   19.0605   70.3955 O   0  0  0  0  0
   10.7148   15.8402   68.4854 F   0  0  0  0  0
  2  3  1  0  0  0
  4 20  1  0  0  0
  5  1  1  0  0  0
  6  4  1  0  0  0
  6 21  1  0  0  0
  8  7  1  0  0  0
  8 22  1  0  0  0
  8 23  1  0  0  0
  9 19  1  0  0  0
 10 11  1  0  0  0
 10 27  1  0  0  0
 11 23  1  0  0  0
 12 23  1  0  0  0
 12 13  1  0  0  0
 14 15  1  0  0  0
 16 17  1  0  0  0
 16 29  1  0  0  0
 18 13  1  0  0  0
 19 24  1  0  0  0
 21  7  1  0  0  0
 22  9  1  0  0  0
  1  2  2  0  0  0
  3 20  2  0  0  0
  4  5  2  0  0  0
  7 25  2  0  0  0
  9 10  2  0  0  0
 11 26  2  0  0  0
 13 14  2  0  0  0
 15 16  2  0  0  0
 17 18  2  0  0  0
 19 28  2  0  0  0
M  END
> <rmsd>
0.549981654

$$$$
PubChem-117746735


 21 22  0  0  0  0  0  0  0  0999 V2000
    5.9812   23.9377   70.7595 C   0  0  0  0  0
    5.8479   22.8776   71.7920 C   0  0  0  0  0
    5.0755   20.7278   72.4174 C   0  0  0  0  0
    5.6002   20.9102   73.7021 C   0  0  0  0  0
    6.2531   22.1142   73.9926 C   0  0  0  0  0
    3.8213   19.1898   70.7816 C   0  0  0  0  0
    4.8695   19.2251   69.6813 C   0  0  0  0  0
    4.2888   20.0511   68.5390 C   0  0  0  0  0
    2.8312   20.3082   68.8814 C   0  0  0  0  0
    2.7512   20.1890   70.3954 C   0  0  0  0  0
    5.6574   21.2194   67.2463 C   0  0  0  0  0
    6.7110   22.3096   67.2115 C   0  0  0  0  0
    5.2112   21.7166   71.4928 N   0  0  0  0  0
    6.3631   23.0701   73.0335 N   0  0  0  0  0
    5.4724   19.8908   74.6911 N   0  0  0  0  0
    4.4031   19.5047   72.0846 N   0  0  0  0  0
    6.9368   22.4139   75.5814 Cl  0  0  0  0  0
    1.4937   19.7506   70.8160 O   0  0  0  0  0
    2.0429   19.3324   68.2644 O   0  0  0  0  0
    4.9660   21.2696   68.4585 O   0  0  0  0  0
    7.6877   22.0549   68.1743 O   0  0  0  0  0
  1  2  1  0  0  0
  2 14  1  0  0  0
  3 13  1  0  0  0
  3 16  1  0  0  0
  4  5  1  0  0  0
  4 15  1  0  0  0
  5 17  1  0  0  0
  6 16  1  0  0  0
  6  7  1  0  0  0
  7  8  1  0  0  0
  8  9  1  0  0  0
  8 20  1  0  0  0
  9 10  1  0  0  0
  9 19  1  0  0  0
 10 18  1  0  0  0
 10  6  1  0  0  0
 11 20  1  0  0  0
 11 12  1  0  0  0
 12 21  1  0  0  0
  2 13  2  0  0  0
  3  4  2  0  0  0
  5 14  2  0  0  0
M  END
> <rmsd>
0.838857234

$$$$
PubChem-136421992


 20 21  0  0  0  0  0  0  0  0999 V2000
    1.1678   23.2629   70.1459 C   0  0  0  0  0
    2.3022   23.5452   69.5143 C   0  0  0  0  0
    4.7404   23.3686   69.1739 C   0  0  0  0  0
    5.4647   24.1836   70.2243 C   0  0  0  0  0
    6.9027   23.8028   70.0502 C   0  0  0  0  0
    6.8956   22.8498   68.8777 C   0  0  0  0  0
    7.8560   21.7055   69.1433 C   0  0  0  0  0
    3.5620   21.6232   70.5526 C   0  0  0  0  0
    2.8083   20.4785   70.2436 C   0  0  0  0  0
    2.9185   19.3621   71.0800 C   0  0  0  0  0
    4.4826   20.5091   72.4305 C   0  0  0  0  0
    3.5110   22.7975   69.7179 N   0  0  0  0  0
    3.7484   19.4008   72.1542 N   0  0  0  0  0
    4.3898   21.6033   71.6320 N   0  0  0  0  0
    5.3523   20.5229   73.5556 N   0  0  0  0  0
    1.9849   20.4321   69.0794 N   0  0  0  0  0
    5.5934   22.3541   68.7075 O   0  0  0  0  0
    7.9518   20.8955   68.0119 O   0  0  0  0  0
    7.6540   24.9334   69.7314 O   0  0  0  0  0
    2.2577   18.3168   70.8410 O   0  0  0  0  0
  2 12  1  0  0  0
  3 12  1  0  0  0
  3  4  1  0  0  0
  3 17  1  0  0  0
  4  5  1  0  0  0
  5  6  1  0  0  0
  5 19  1  0  0  0
  6 17  1  0  0  0
  6  7  1  0  0  0
  7 18  1  0  0  0
  8 14  1  0  0  0
  9 10  1  0  0  0
  9 16  1  0  0  0
 10 13  1  0  0  0
 11 15  1  0  0  0
 12  8  1  0  0  0
 13 11  1  0  0  0
  1  2  2  0  0  0
  8  9  2  0  0  0
 10 20  2  0  0  0
 11 14  2  0  0  0
M  END
> <rmsd>
0.813985705

$$$$
PubChem-90396595


 20 19  0  0  0  0  0  0  0  0999 V2000
    4.0748   22.2755   76.1550 C   0  0  0  0  0
    4.1553   22.3060   74.6389 C   0  0  0  0  0
    2.8244   22.8040   74.1017 C   0  0  0  0  0
    4.4791   20.9144   74.0848 C   0  0  0  0  0
    4.6031   20.9232   72.5937 C   0  0  0  0  0
    3.7968   20.0449   70.3628 C   0  0  0  0  0
    5.0136   19.2242   69.9447 C   0  0  0  0  0
    5.3770   19.4778   68.4875 C   0  0  0  0  0
    5.9905   20.8267   68.3155 C   0  0  0  0  0
    2.5398   19.4479   69.8179 C   0  0  0  0  0
    5.7705   19.1389   75.3267 C   0  0  0  0  0
    7.0564   18.6681   75.9029 C   0  0  0  0  0
    5.4820   21.6340   72.0335 O   0  0  0  0  0
    7.0899   21.0994   68.8650 O   0  0  0  0  0
    5.3518   21.7809   67.5354 O   0  0  0  0  0
    2.1868   18.2846   70.1489 O   0  0  0  0  0
    4.7418   18.4187   75.4250 O   0  0  0  0  0
    3.7182   20.1163   71.8148 N   0  0  0  0  0
    1.7341   20.2022   68.9210 N   0  0  0  0  0
    5.7136   20.4034   74.6669 N   0  0  0  0  0
  1  2  1  0  0  0
  2  3  1  0  0  0
  4  2  1  0  0  0
  4  5  1  0  0  0
  4 20  1  0  0  0
  5 18  1  0  0  0
  6 18  1  0  0  0
  6  7  1  0  0  0
  6 10  1  0  0  0
  7  8  1  0  0  0
  8  9  1  0  0  0
  9 15  1  0  0  0
 10 19  1  0  0  0
 12 11  1  0  0  0
 20 11  1  0  0  0
  5 13  2  0  0  0
  9 14  2  0  0  0
 10 16  2  0  0  0
 11 17  2  0  0  0
M  END
> <rmsd>
0.665694237

$$$$
PubChem-129752797 PubChem-141574126


 22 22  0  0  0  0  0  0  0  0999 V2000
    5.7296   20.4230   74.6989 N   0  0  0  0  0
    3.7169   20.1057   71.8076 N   0  0  0  0  0
    1.7304   20.2078   68.9153 N   0  0  0  0  0
    5.4098   19.9723   76.0475 C   0  0  0  0  0
    6.6397   19.9420   76.8902 C   0  0  0  0  0
    7.6778   19.0469   76.6018 C   0  0  0  0  0
    8.8218   19.0188   77.4052 C   0  0  0  0  0
    8.9288   19.8824   78.4997 C   0  0  0  0  0
    7.8910   20.7730   78.7919 C   0  0  0  0  0
    6.7467   20.8012   77.9887 C   0  0  0  0  0
    4.4870   20.8850   74.0817 C   0  0  0  0  0
    4.1335   22.2782   74.5825 C   0  0  0  0  0
    4.6051   20.9061   72.5895 C   0  0  0  0  0
    3.7938   20.0409   70.3550 C   0  0  0  0  0
    5.0091   19.2204   69.9318 C   0  0  0  0  0
    5.3713   19.4799   68.4754 C   0  0  0  0  0
    5.9871   20.8284   68.3085 C   0  0  0  0  0
    2.5355   19.4483   69.8084 C   0  0  0  0  0
    5.4836   21.6192   72.0311 O   0  0  0  0  0
    7.0875   21.0965   68.8579 O   0  0  0  0  0
    5.3493   21.7871   67.5333 O   0  0  0  0  0
    2.1811   18.2841   70.1343 O   0  0  0  0  0
  4  1  1  0  0  0
  4  5  1  0  0  0
  6  7  1  0  0  0
  8  9  1  0  0  0
 10  5  1  0  0  0
 11  1  1  0  0  0
 11 12  1  0  0  0
 11 13  1  0  0  0
 13  2  1  0  0  0
 14  2  1  0  0  0
 14 15  1  0  0  0
 14 18  1  0  0  0
 15 16  1  0  0  0
 16 17  1  0  0  0
 17 21  1  0  0  0
 18  3  1  0  0  0
  5  6  2  0  0  0
  7  8  2  0  0  0
  9 10  2  0  0  0
 13 19  2  0  0  0
 17 20  2  0  0  0
 18 22  2  0  0  0
M  END
> <rmsd>
0.66574055

$$$$
PubChem-129752797 PubChem-141574126


 22 22  0  0  0  0  0  0  0  0999 V2000
    5.8132   20.5821   74.4871 N   0  0  0  0  0
    3.7581   19.8846   71.7296 N   0  0  0  0  0
    1.6495   20.1845   68.9361 N   0  0  0  0  0
    5.7934   19.8647   75.7547 C   0  0  0  0  0
    7.1634   19.3900   76.1021 C   0  0  0  0  0
    7.8088   18.4398   75.3008 C   0  0  0  0  0
    9.0899   17.9931   75.6387 C   0  0  0  0  0
    9.7262   18.4928   76.7791 C   0  0  0  0  0
    9.0811   19.4382   77.5825 C   0  0  0  0  0
    7.7999   19.8853   77.2449 C   0  0  0  0  0
    4.4342   20.7002   74.0157 C   0  0  0  0  0
    3.6946   21.8497   74.6942 C   0  0  0  0  0
    4.4119   20.8679   72.5330 C   0  0  0  0  0
    3.7690   19.9261   70.2732 C   0  0  0  0  0
    4.9464   19.1241   69.7278 C   0  0  0  0  0
    6.2636   19.8663   69.9025 C   0  0  0  0  0
    6.4344   20.9108   68.8514 C   0  0  0  0  0
    2.4887   19.3702   69.7457 C   0  0  0  0  0
    4.9642   21.8680   71.9984 O   0  0  0  0  0
    7.3799   20.8178   68.0267 O   0  0  0  0  0
    5.5683   21.9951   68.7892 O   0  0  0  0  0
    2.1431   18.1888   70.0144 O   0  0  0  0  0
  4  1  1  0  0  0
  4  5  1  0  0  0
  6  7  1  0  0  0
  8  9  1  0  0  0
 10  5  1  0  0  0
 11  1  1  0  0  0
 11 12  1  0  0  0
 11 13  1  0  0  0
 13  2  1  0  0  0
 14  2  1  0  0  0
 14 15  1  0  0  0
 14 18  1  0  0  0
 15 16  1  0  0  0
 16 17  1  0  0  0
 17 21  1  0  0  0
 18  3  1  0  0  0
  5  6  2  0  0  0
  7  8  2  0  0  0
  9 10  2  0  0  0
 13 19  2  0  0  0
 17 20  2  0  0  0
 18 22  2  0  0  0
M  END
> <rmsd>
0.652432382

$$$$
PubChem-16741132


 16 15  0  0  0  0  0  0  0  0999 V2000
    8.2501   20.3033   72.0056 C   0  0  0  0  0
    7.2754   19.6411   72.9643 C   0  0  0  0  0
    8.0239   19.2965   74.2400 C   0  0  0  0  0
    6.0910   20.5662   73.2630 C   0  0  0  0  0
    5.3106   20.8740   72.0248 C   0  0  0  0  0
    3.9553   20.0476   70.0492 C   0  0  0  0  0
    4.9046   19.8507   68.8710 C   0  0  0  0  0
    5.7797   21.0414   68.6742 C   0  0  0  0  0
    2.7892   19.0692   69.9427 C   0  0  0  0  0
    5.2107   22.0689   71.6385 O   0  0  0  0  0
    5.2779   22.1527   68.3608 O   0  0  0  0  0
    7.1545   20.9200   68.8204 O   0  0  0  0  0
    2.0118   19.1207   71.1009 O   0  0  0  0  0
    4.6755   19.8196   71.2962 N   0  0  0  0  0
    5.2055   19.9589   74.2451 N   0  0  0  0  0
    1.7394   19.4832   68.5159 S   0  0  0  0  0
  1  2  1  0  0  0
  2  3  1  0  0  0
  4  2  1  0  0  0
  4  5  1  0  0  0
  4 15  1  0  0  0
  5 14  1  0  0  0
  6 14  1  0  0  0
  6  7  1  0  0  0
  6  9  1  0  0  0
  7  8  1  0  0  0
  8 12  1  0  0  0
  9 13  1  0  0  0
  9 16  1  0  0  0
  5 10  2  0  0  0
  8 11  2  0  0  0
M  END
> <rmsd>
0.733693838

$$$$
PubChem-138730275


 31 33  0  0  0  0  0  0  0  0999 V2000
    2.6162   21.7328   74.8665 C   0  0  0  0  0
    4.1324   21.7408   74.9309 C   0  0  0  0  0
    4.6676   23.1161   74.5641 C   0  0  0  0  0
    4.7313   20.6156   74.0784 C   0  0  0  0  0
    4.4427   20.7417   72.6117 C   0  0  0  0  0
    3.3439   19.7674   70.5508 C   0  0  0  0  0
    4.5011   19.1189   69.8090 C   0  0  0  0  0
    5.3909   20.1589   69.2064 C   0  0  0  0  0
    6.7550   20.2514   69.3830 C   0  0  0  0  0
    3.6627   21.5532   67.9937 C   0  0  0  0  0
    2.8287   20.3544   67.5774 C   0  0  0  0  0
    1.1032   19.5974   69.2767 C   0  0  0  0  0
    2.0694   19.0432   70.2460 C   0  0  0  0  0
    6.1841   17.8101   73.3488 C   0  0  0  0  0
    5.0232   17.0284   73.3238 C   0  0  0  0  0
    4.7599   16.1988   72.2299 C   0  0  0  0  0
    5.6570   16.1487   71.1588 C   0  0  0  0  0
    6.8159   16.9305   71.1803 C   0  0  0  0  0
    7.0780   17.7620   72.2733 C   0  0  0  0  0
    4.9440   21.6848   71.9410 O   0  0  0  0  0
   -0.1209   19.3378   69.4164 O   0  0  0  0  0
    1.8021   17.9656   70.8442 O   0  0  0  0  0
    7.9676   18.7389   75.0890 O   0  0  0  0  0
    5.6825   18.4388   75.8965 O   0  0  0  0  0
    3.5993   19.7751   71.9845 N   0  0  0  0  0
    7.1588   21.3138   68.6516 N   0  0  0  0  0
    6.0940   21.8389   68.0616 N   0  0  0  0  0
    5.0140   21.1446   68.3673 N   0  0  0  0  0
    1.5115   20.4371   68.1896 N   0  0  0  0  0
    6.1652   20.5052   74.3087 N   0  0  0  0  0
    6.5166   18.8588   74.7176 S   0  0  0  0  0
  1  2  1  0  0  0
  2  3  1  0  0  0
  2  4  1  0  0  0
  4  5  1  0  0  0
  4 30  1  0  0  0
  5 25  1  0  0  0
  6 25  1  0  0  0
  6  7  1  0  0  0
  6 13  1  0  0  0
  7  8  1  0  0  0
  9 26  1  0  0  0
 10 28  1  0  0  0
 10 11  1  0  0  0
 11 29  1  0  0  0
 12 13  1  0  0  0
 15 16  1  0  0  0
 17 18  1  0  0  0
 19 14  1  0  0  0
 28 27  1  0  0  0
 28  8  1  0  0  0
 29 12  1  0  0  0
 31 30  1  0  0  0
 31 14  1  0  0  0
  5 20  2  0  0  0
  8  9  2  0  0  0
 12 21  2  0  0  0
 13 22  2  0  0  0
 14 15  2  0  0  0
 16 17  2  0  0  0
 18 19  2  0  0  0
 26 27  2  0  0  0
 31 23  2  0  0  0
 31 24  2  0  0  0
M  END
> <rmsd>
0.638958991

$$$$
PubChem-132235837


 22 25  0  0  0  0  0  0  0  0999 V2000
    8.4472   22.5879   71.7732 C   0  0  0  0  0
    9.3587   22.8522   70.5999 C   0  0  0  0  0
    8.6736   21.5013   70.7335 C   0  0  0  0  0
    7.4965   21.4127   69.7996 C   0  0  0  0  0
    6.2396   20.9378   70.2311 C   0  0  0  0  0
    5.1923   20.8608   69.2853 C   0  0  0  0  0
    6.6571   21.6608   67.5996 C   0  0  0  0  0
    2.7118   20.5654   68.8952 C   0  0  0  0  0
    6.0200   20.5784   71.6684 C   0  0  0  0  0
    5.0333   21.5712   73.6844 C   0  0  0  0  0
    4.4083   22.5737   74.3921 C   0  0  0  0  0
    4.2859   22.0285   75.6599 C   0  0  0  0  0
    5.4349   21.2322   67.9991 N   0  0  0  0  0
    7.6739   21.7402   68.4918 N   0  0  0  0  0
    3.8755   20.3978   69.6426 N   0  0  0  0  0
    1.6957   19.7969   69.4496 N   0  0  0  0  0
    2.2230   19.1274   70.5728 N   0  0  0  0  0
    3.6069   19.4739   70.6707 N   0  0  0  0  0
    4.8122   20.7867   75.6693 N   0  0  0  0  0
    5.2702   20.5033   74.4630 N   0  0  0  0  0
    2.5858   21.3034   67.8827 O   0  0  0  0  0
    5.3751   21.6523   72.3364 O   0  0  0  0  0
  1  2  1  0  0  0
  2  3  1  0  0  0
  3  4  1  0  0  0
  3  1  1  0  0  0
  4 14  1  0  0  0
  5  6  1  0  0  0
  6 15  1  0  0  0
  7 13  1  0  0  0
  8 16  1  0  0  0
  9  5  1  0  0  0
  9 22  1  0  0  0
 10 22  1  0  0  0
 11 12  1  0  0  0
 15  8  1  0  0  0
 16 17  1  0  0  0
 17 18  1  0  0  0
 18 15  1  0  0  0
 20 19  1  0  0  0
 20 10  1  0  0  0
  4  5  2  0  0  0
  6 13  2  0  0  0
  7 14  2  0  0  0
  8 21  2  0  0  0
 10 11  2  0  0  0
 12 19  2  0  0  0
M  END
> <rmsd>
0.673885465

$$$$
PubChem-70324826


 32 35  0  0  0  0  0  0  0  0999 V2000
    3.1982   21.4788   65.0889 C   0  0  0  0  0
    3.4059   20.7506   66.4017 C   0  0  0  0  0
    3.4753   21.7475   67.5476 C   0  0  0  0  0
    3.4694   21.0266   68.8522 C   0  0  0  0  0
    4.5738   21.2536   69.4917 C   0  0  0  0  0
    4.8589   20.6616   70.8399 C   0  0  0  0  0
    2.6028   19.7351   70.7831 C   0  0  0  0  0
    0.4477   18.7759   70.4956 C   0  0  0  0  0
    1.6098   18.3956   72.5299 C   0  0  0  0  0
    2.9327   18.0302   73.2287 C   0  0  0  0  0
    2.7344   17.6214   74.6965 C   0  0  0  0  0
    0.4265   17.1318   74.4104 C   0  0  0  0  0
    0.5605   17.3254   72.8911 C   0  0  0  0  0
    1.3055   17.5139   76.5456 C   0  0  0  0  0
    5.6116   21.4348   72.9208 C   0  0  0  0  0
    5.9755   22.7738   73.5587 C   0  0  0  0  0
    7.0224   22.5503   74.6458 C   0  0  0  0  0
    6.5250   21.5132   75.6464 C   0  0  0  0  0
    6.1382   20.2369   74.9037 C   0  0  0  0  0
    6.6743   22.6558   69.1460 C   0  0  0  0  0
    7.7177   21.5511   69.1939 C   0  0  0  0  0
    7.8408   19.6615   68.0580 C   0  0  0  0  0
    8.0655   18.9963   66.7165 C   0  0  0  0  0
    4.0275   19.4619   71.0617 N   0  0  0  0  0
    2.4576   20.1777   69.3859 N   0  0  0  0  0
    1.7777   18.5423   71.0673 N   0  0  0  0  0
    1.3864   17.9442   75.1619 N   0  0  0  0  0
    4.6153   21.6478   71.8837 N   0  0  0  0  0
    5.0797   20.5265   73.9380 N   0  0  0  0  0
    5.3843   22.1217   68.7341 N   0  0  0  0  0
    4.7689   22.4673   67.5168 N   0  0  0  0  0
    7.9357   21.0461   67.9118 O   0  0  0  0  0
  1  2  1  0  0  0
  2  3  1  0  0  0
  3  4  1  0  0  0
  3 31  1  0  0  0
  5 30  1  0  0  0
  6  5  1  0  0  0
  6 24  1  0  0  0
  6 28  1  0  0  0
  7 24  1  0  0  0
  7 25  1  0  0  0
  7 26  1  0  0  0
  8 26  1  0  0  0
  9 26  1  0  0  0
  9 10  1  0  0  0
 10 11  1  0  0  0
 11 27  1  0  0  0
 12 27  1  0  0  0
 12 13  1  0  0  0
 13  9  1  0  0  0
 14 27  1  0  0  0
 15 28  1  0  0  0
 15 16  1  0  0  0
 15 29  1  0  0  0
 16 17  1  0  0  0
 17 18  1  0  0  0
 18 19  1  0  0  0
 19 29  1  0  0  0
 20 30  1  0  0  0
 20 21  1  0  0  0
 21 32  1  0  0  0
 22 32  1  0  0  0
 22 23  1  0  0  0
 25  4  1  0  0  0
 30 31  1  0  0  0
  4  5  2  0  0  0
M  END
> <rmsd>
0.728038669

$$$$
PubChem-87571354


 37 40  0  0  0  0  0  0  0  0999 V2000
    9.9564   18.7850   70.6061 C   0  0  0  0  0
    9.5880   18.7034   72.0763 C   0  0  0  0  0
    8.2422   20.7693   72.2854 C   0  0  0  0  0
    6.9083   21.4088   72.4858 C   0  0  0  0  0
    5.8862   20.8914   71.4653 C   0  0  0  0  0
    6.0626   21.5622   70.0939 C   0  0  0  0  0
    5.0343   20.9941   69.1215 C   0  0  0  0  0
    3.6315   21.0165   69.7248 C   0  0  0  0  0
    3.6298   20.4389   71.1576 C   0  0  0  0  0
    1.1997   19.8932   71.4903 C   0  0  0  0  0
   -0.8459   19.1376   71.5183 C   0  0  0  0  0
   -0.0470   20.1377   72.0302 C   0  0  0  0  0
   -0.4189   21.1952   73.0184 C   0  0  0  0  0
   -0.0228   20.7844   74.3958 C   0  0  0  0  0
    1.2468   21.1107   74.8850 C   0  0  0  0  0
    1.6324   20.7039   76.1658 C   0  0  0  0  0
    0.7447   19.9632   76.9604 C   0  0  0  0  0
   -0.5218   19.6330   76.4678 C   0  0  0  0  0
   -0.9049   20.0406   75.1868 C   0  0  0  0  0
    1.1358   19.5203   78.3268 C   0  0  0  0  0
   -2.2961   18.9301   71.8013 C   0  0  0  0  0
   -0.5516   17.2159   69.9417 C   0  0  0  0  0
   -0.9227   17.6577   68.5387 C   0  0  0  0  0
    0.2101   17.3176   67.5926 C   0  0  0  0  0
   -1.0215   16.4386   67.6468 C   0  0  0  0  0
    8.3578   19.3760   72.3162 O   0  0  0  0  0
    9.2563   21.4972   72.1099 O   0  0  0  0  0
    4.5788   21.1342   71.9455 O   0  0  0  0  0
    3.9250   19.0658   71.1456 O   0  0  0  0  0
    2.3486   20.6487   71.7570 O   0  0  0  0  0
    2.7577   20.3117   68.8947 O   0  0  0  0  0
    5.0484   21.7326   67.9372 O   0  0  0  0  0
    7.3415   21.3220   69.5868 O   0  0  0  0  0
    6.4752   21.1474   73.7880 O   0  0  0  0  0
    1.1527   18.8092   70.6876 N   0  0  0  0  0
   -0.0924   18.3589   70.7160 N   0  0  0  0  0
    2.8663   21.0295   76.6257 F   0  0  0  0  0
  1  2  1  0  0  0
  2 26  1  0  0  0
  3 26  1  0  0  0
  4  3  1  0  0  0
  4 34  1  0  0  0
  5  4  1  0  0  0
  5  6  1  0  0  0
  5 28  1  0  0  0
  6  7  1  0  0  0
  6 33  1  0  0  0
  7  8  1  0  0  0
  7 32  1  0  0  0
  8  9  1  0  0  0
  8 31  1  0  0  0
  9 28  1  0  0  0
  9 29  1  0  0  0
  9 30  1  0  0  0
 10 30  1  0  0  0
 12 10  1  0  0  0
 13 12  1  0  0  0
 13 14  1  0  0  0
 15 16  1  0  0  0
 16 37  1  0  0  0
 17 18  1  0  0  0
 19 14  1  0  0  0
 20 17  1  0  0  0
 21 11  1  0  0  0
 22 36  1  0  0  0
 22 23  1  0  0  0
 23 24  1  0  0  0
 24 25  1  0  0  0
 25 23  1  0  0  0
 36 35  1  0  0  0
 36 11  1  0  0  0
  3 27  2  0  0  0
 10 35  2  0  0  0
 11 12  2  0  0  0
 14 15  2  0  0  0
 16 17  2  0  0  0
 18 19  2  0  0  0
M  END
> <rmsd>
0.738778353

$$$$
PubChem-140623088


 30 32  0  0  0  0  0  0  0  0999 V2000
    7.3893   22.9018   66.2634 C   0  0  0  0  0
    7.2590   21.6388   67.0937 C   0  0  0  0  0
    7.4723   21.7406   69.3124 C   0  0  0  0  0
    6.0817   21.3327   68.9612 C   0  0  0  0  0
    5.0862   22.1862   69.7309 C   0  0  0  0  0
    3.1792   20.6433   70.0134 C   0  0  0  0  0
    4.9872   20.1649   71.7944 C   0  0  0  0  0
    5.5463   18.9438   72.4671 C   0  0  0  0  0
    5.6532   19.3571   73.9138 C   0  0  0  0  0
    7.0550   19.1078   74.4661 C   0  0  0  0  0
    1.0878   19.1818   70.0361 C   0  0  0  0  0
   -0.2850   18.9746   69.4723 C   0  0  0  0  0
   -0.4032   17.6745   68.6696 C   0  0  0  0  0
   -0.4790   16.4482   69.5814 C   0  0  0  0  0
   -1.6183   16.5821   70.5900 C   0  0  0  0  0
   -1.4478   17.8494   71.4253 C   0  0  0  0  0
   -1.3831   19.0918   70.5348 C   0  0  0  0  0
    7.5361   20.4441   66.2001 C   0  0  0  0  0
    8.2081   21.6683   68.1334 O   0  0  0  0  0
    5.9458   21.5494   67.5931 O   0  0  0  0  0
    1.5527   18.3787   70.8900 O   0  0  0  0  0
    3.7262   21.7115   69.5056 N   0  0  0  0  0
    3.8649   19.7890   70.9479 N   0  0  0  0  0
    5.3211   20.7741   73.9801 N   0  0  0  0  0
    4.5342   21.0579   72.8497 N   0  0  0  0  0
    1.8537   20.3058   69.5885 N   0  0  0  0  0
    7.1060   19.5039   75.7898 F   0  0  0  0  0
    7.9951   19.8220   73.7428 F   0  0  0  0  0
    7.3529   17.7590   74.3935 F   0  0  0  0  0
   -2.8408   16.5912   69.9407 F   0  0  0  0  0
  1  2  1  0  0  0
  2 19  1  0  0  0
  2 18  1  0  0  0
  2 20  1  0  0  0
  3 19  1  0  0  0
  3  4  1  0  0  0
  4 20  1  0  0  0
  4  5  1  0  0  0
  5 22  1  0  0  0
  6 23  1  0  0  0
  6 26  1  0  0  0
  7 23  1  0  0  0
  7  8  1  0  0  0
  7 25  1  0  0  0
  8  9  1  0  0  0
  9 24  1  0  0  0
  9 10  1  0  0  0
 10 27  1  0  0  0
 10 28  1  0  0  0
 10 29  1  0  0  0
 12 11  1  0  0  0
 12 13  1  0  0  0
 13 14  1  0  0  0
 14 15  1  0  0  0
 15 16  1  0  0  0
 15 30  1  0  0  0
 16 17  1  0  0  0
 17 12  1  0  0  0
 24 25  1  0  0  0
 26 11  1  0  0  0
  6 22  2  0  0  0
 11 21  2  0  0  0
M  END
> <rmsd>
0.777551413

$$$$
PubChem-132524118


 34 36  0  0  0  0  0  0  0  0999 V2000
    4.1765   18.7110   76.4593 C   0  0  0  0  0
    4.2612   20.2263   76.3978 C   0  0  0  0  0
    5.6157   20.7078   76.8856 C   0  0  0  0  0
    3.9286   20.7637   75.0041 C   0  0  0  0  0
    4.7967   20.1735   73.8920 C   0  0  0  0  0
    4.1726   20.3677   72.5527 C   0  0  0  0  0
    3.8635   19.4788   70.2183 C   0  0  0  0  0
    4.5435   18.4041   69.3862 C   0  0  0  0  0
    5.0742   18.9957   68.0890 C   0  0  0  0  0
    6.2571   19.8713   68.3427 C   0  0  0  0  0
    7.4974   19.4649   68.7980 C   0  0  0  0  0
    9.6499   20.6683   69.1382 C   0  0  0  0  0
    9.9426   21.8000   70.1145 C   0  0  0  0  0
    9.9753   21.2942   71.5472 C   0  0  0  0  0
    8.5687   21.0809   72.0730 C   0  0  0  0  0
    8.6146   20.5987   73.5135 C   0  0  0  0  0
    7.3069   19.9829   73.8745 C   0  0  0  0  0
    2.3868   19.4918   69.9944 C   0  0  0  0  0
    0.3411   20.7742   69.2454 C   0  0  0  0  0
    0.0556   20.4713   67.7813 C   0  0  0  0  0
   -1.3626   20.8027   67.4655 C   0  0  0  0  0
   -2.0087   19.7156   67.0748 C   0  0  0  0  0
   -1.0958   18.5837   67.1098 C   0  0  0  0  0
    0.0906   19.0010   67.5219 C   0  0  0  0  0
    3.7488   21.5046   72.2071 O   0  0  0  0  0
    7.2560   18.7555   74.1522 O   0  0  0  0  0
    1.6956   18.4690   70.2485 O   0  0  0  0  0
    4.1708   19.2825   71.6257 N   0  0  0  0  0
    8.2276   20.5933   68.8374 N   0  0  0  0  0
    6.1192   20.7771   73.8822 N   0  0  0  0  0
    8.8993   21.7104   74.4051 N   0  0  0  0  0
    7.4979   21.6086   68.4055 N   0  0  0  0  0
    6.2784   21.1960   68.1017 N   0  0  0  0  0
    1.7680   20.6839   69.5124 N   0  0  0  0  0
  1  2  1  0  0  0
  2  3  1  0  0  0
  2  4  1  0  0  0
  5  4  1  0  0  0
  5  6  1  0  0  0
  5 30  1  0  0  0
  6 28  1  0  0  0
  7 28  1  0  0  0
  7  8  1  0  0  0
  7 18  1  0  0  0
  8  9  1  0  0  0
  9 10  1  0  0  0
 10 33  1  0  0  0
 11 29  1  0  0  0
 12 29  1  0  0  0
 12 13  1  0  0  0
 13 14  1  0  0  0
 14 15  1  0  0  0
 15 16  1  0  0  0
 16 17  1  0  0  0
 16 31  1  0  0  0
 17 30  1  0  0  0
 18 34  1  0  0  0
 19 34  1  0  0  0
 19 20  1  0  0  0
 20 21  1  0  0  0
 20 24  1  0  0  0
 22 23  1  0  0  0
 29 32  1  0  0  0
  6 25  2  0  0  0
 10 11  2  0  0  0
 17 26  2  0  0  0
 18 27  2  0  0  0
 21 22  2  0  0  0
 23 24  2  0  0  0
 32 33  2  0  0  0
M  END
> <rmsd>
0.704229891

$$$$
PubChem-21124156


 24 25  0  0  0  0  0  0  0  0999 V2000
    8.7885   18.8622   67.2238 C   0  0  0  0  0
    8.8274   18.1075   66.0474 C   0  0  0  0  0
    7.7975   18.2165   65.0994 C   0  0  0  0  0
    6.7288   19.0878   65.3489 C   0  0  0  0  0
    6.6914   19.8399   66.5269 C   0  0  0  0  0
    7.7211   19.7307   67.4739 C   0  0  0  0  0
    4.5944   22.4237   68.9825 C   0  0  0  0  0
    3.8274   21.8160   70.1566 C   0  0  0  0  0
    3.1307   20.5012   69.7570 C   0  0  0  0  0
    2.3813   19.9335   70.9661 C   0  0  0  0  0
    3.2696   19.9181   72.2119 C   0  0  0  0  0
    3.8967   21.3115   72.3624 C   0  0  0  0  0
    4.6877   21.4613   73.6578 C   0  0  0  0  0
    7.7276   20.4944   68.6906 N   0  0  0  0  0
    6.7111   21.3627   69.1314 N   0  0  0  0  0
    5.6245   21.5192   68.4902 N   0  0  0  0  0
    7.8299   17.4421   63.8925 N   0  0  0  0  0
    4.6984   21.6163   71.2473 O   0  0  0  0  0
    5.8509   20.6912   73.6219 O   0  0  0  0  0
    4.2633   18.9415   72.0830 O   0  0  0  0  0
    1.9054   18.6506   70.6859 O   0  0  0  0  0
    2.2235   20.7380   68.7225 O   0  0  0  0  0
    8.7887   16.6776   63.6562 O   0  0  0  0  0
    6.8125   17.5477   62.9704 O   0  0  0  0  0
  2  3  1  0  0  0
  3 17  1  0  0  0
  4  5  1  0  0  0
  6 14  1  0  0  0
  6  1  1  0  0  0
  7 16  1  0  0  0
  8  7  1  0  0  0
  8  9  1  0  0  0
  8 18  1  0  0  0
  9 10  1  0  0  0
  9 22  1  0  0  0
 10 11  1  0  0  0
 10 21  1  0  0  0
 11 12  1  0  0  0
 11 20  1  0  0  0
 12 18  1  0  0  0
 12 13  1  0  0  0
 13 19  1  0  0  0
 14 15  1  0  0  0
 17 24  1  0  0  0
  1  2  2  0  0  0
  3  4  2  0  0  0
  5  6  2  0  0  0
 15 16  2  0  0  0
 17 23  2  0  0  0
M  CHG  2  17   1  24  -1
M  END
> <rmsd>
0.732127905

$$$$
PubChem-58629456


 30 33  0  0  0  0  0  0  0  0999 V2000
    8.3198   23.7639   67.5883 C   0  0  0  0  0
    7.8425   22.3881   67.1645 C   0  0  0  0  0
    5.9960   21.2795   68.4292 C   0  0  0  0  0
    3.7605   20.9304   67.8440 C   0  0  0  0  0
    3.5232   20.2527   69.0679 C   0  0  0  0  0
    4.5967   20.1018   69.9928 C   0  0  0  0  0
    5.8361   20.6395   69.6180 C   0  0  0  0  0
    7.0846   20.6658   70.2226 C   0  0  0  0  0
    5.3847   19.3365   72.3165 C   0  0  0  0  0
    5.0638   18.1469   73.2073 C   0  0  0  0  0
    6.3189   17.6305   73.8992 C   0  0  0  0  0
    6.7680   18.5489   75.0285 C   0  0  0  0  0
    7.4054   19.8192   74.4827 C   0  0  0  0  0
    5.4019   20.6046   73.1294 C   0  0  0  0  0
    2.1587   19.7327   69.3269 C   0  0  0  0  0
   -0.2070   19.3569   68.4867 C   0  0  0  0  0
   -0.2091   17.8838   68.2545 C   0  0  0  0  0
   -0.1245   17.3778   66.9523 C   0  0  0  0  0
   -0.1119   15.9961   66.7375 C   0  0  0  0  0
   -0.1814   15.1190   67.8242 C   0  0  0  0  0
   -0.2631   15.6232   69.1260 C   0  0  0  0  0
   -0.2759   17.0047   69.3410 C   0  0  0  0  0
    7.2620   21.6890   68.3005 N   0  0  0  0  0
    4.9906   21.4355   67.5369 N   0  0  0  0  0
    7.9331   21.3174   69.3838 N   0  0  0  0  0
    4.4059   19.4116   71.2386 N   0  0  0  0  0
    6.3838   20.8033   74.1498 N   0  0  0  0  0
    1.1388   19.8933   68.3345 N   0  0  0  0  0
    4.5444   21.5049   72.9241 O   0  0  0  0  0
    1.8828   19.1562   70.4138 O   0  0  0  0  0
  1  2  1  0  0  0
  2 23  1  0  0  0
  4 24  1  0  0  0
  5  6  1  0  0  0
  5 15  1  0  0  0
  6 26  1  0  0  0
  7  8  1  0  0  0
  7  3  1  0  0  0
  9 26  1  0  0  0
  9 10  1  0  0  0
  9 14  1  0  0  0
 10 11  1  0  0  0
 11 12  1  0  0  0
 12 13  1  0  0  0
 13 27  1  0  0  0
 15 28  1  0  0  0
 16 28  1  0  0  0
 16 17  1  0  0  0
 18 19  1  0  0  0
 20 21  1  0  0  0
 22 17  1  0  0  0
 23  3  1  0  0  0
 23 25  1  0  0  0
 27 14  1  0  0  0
  3 24  2  0  0  0
  4  5  2  0  0  0
  6  7  2  0  0  0
  8 25  2  0  0  0
 14 29  2  0  0  0
 15 30  2  0  0  0
 17 18  2  0  0  0
 19 20  2  0  0  0
 21 22  2  0  0  0
M  END
> <rmsd>
0.68078661

$$$$
PubChem-136451275


 20 21  0  0  0  0  0  0  0  0999 V2000
    3.3169   25.8195   70.4359 C   0  0  0  0  0
    4.1491   23.8970   69.7311 C   0  0  0  0  0
    2.3994   22.1996   68.8273 C   0  0  0  0  0
    2.7930   20.5484   70.3944 C   0  0  0  0  0
    3.5990   21.5832   70.7081 C   0  0  0  0  0
    4.5086   20.4047   72.5095 C   0  0  0  0  0
    2.8316   19.3889   71.1562 C   0  0  0  0  0
    5.7980   23.7881   68.2527 C   0  0  0  0  0
    3.9109   24.6410   70.8881 O   0  0  0  0  0
    2.0943   18.4050   70.8864 O   0  0  0  0  0
    5.5181   23.6402   69.6122 O   0  0  0  0  0
    5.6151   21.1082   67.7982 O   0  0  0  0  0
    6.9232   22.4605   65.9809 O   0  0  0  0  0
    7.9934   21.9625   68.4765 O   0  0  0  0  0
    3.4122   22.6415   69.7917 N   0  0  0  0  0
    2.0098   20.8410   69.2464 N   0  0  0  0  0
    4.4655   21.5404   71.7501 N   0  0  0  0  0
    3.6968   19.3411   72.2108 N   0  0  0  0  0
    5.4027   20.3247   73.6124 N   0  0  0  0  0
    6.5666   22.2694   67.6226 P   0  0  0  0  0
  1  9  1  0  0  0
  2  9  1  0  0  0
  2 15  1  0  0  0
  2 11  1  0  0  0
  3 15  1  0  0  0
  3 16  1  0  0  0
  5 17  1  0  0  0
  5 15  1  0  0  0
  6 18  1  0  0  0
  6 19  1  0  0  0
  7  4  1  0  0  0
  8 11  1  0  0  0
  8 20  1  0  0  0
 16  4  1  0  0  0
 18  7  1  0  0  0
 20 13  1  0  0  0
 20 14  1  0  0  0
  4  5  2  0  0  0
  6 17  2  0  0  0
  7 10  2  0  0  0
 20 12  2  0  0  0
M  END
> <rmsd>
0.77216053

$$$$
PubChem-42610901


 25 26  0  0  0  0  0  0  0  0999 V2000
    2.0110   19.4930   69.7715 B   0  0  0  0  0
    3.5558   19.5184   70.1350 C   0  0  0  0  0
    4.3092   18.5578   69.2241 C   0  0  0  0  0
    5.7896   18.6928   69.4000 C   0  0  0  0  0
    6.4935   17.6292   69.9694 C   0  0  0  0  0
    7.8715   17.7200   70.1599 C   0  0  0  0  0
    8.5531   18.8762   69.7793 C   0  0  0  0  0
    7.8706   19.9554   69.2002 C   0  0  0  0  0
    6.4735   19.8583   69.0046 C   0  0  0  0  0
    8.6485   21.1547   68.8173 C   0  0  0  0  0
    4.5042   19.9137   72.4408 C   0  0  0  0  0
    4.6893   19.4474   73.8342 C   0  0  0  0  0
    4.0868   18.2421   74.2278 C   0  0  0  0  0
    4.2345   17.7593   75.5299 C   0  0  0  0  0
    4.9891   18.4773   76.4579 C   0  0  0  0  0
    5.5959   19.6774   76.0835 C   0  0  0  0  0
    5.4529   20.1677   74.7814 C   0  0  0  0  0
    5.7624   20.9043   68.4226 O   0  0  0  0  0
    8.0883   22.1566   68.2992 O   0  0  0  0  0
   10.0222   21.1882   69.0296 O   0  0  0  0  0
    5.0256   20.9931   72.0487 O   0  0  0  0  0
    6.0747   21.3658   74.4495 O   0  0  0  0  0
    1.2419   18.2583   69.9048 O   0  0  0  0  0
    1.3503   20.7170   69.3294 O   0  0  0  0  0
    3.7335   19.1286   71.5260 N   0  0  0  0  0
  1 23  1  0  0  0
  1 24  1  0  0  0
  2  1  1  0  0  0
  2  3  1  0  0  0
  2 25  1  0  0  0
  3  4  1  0  0  0
  5  6  1  0  0  0
  7  8  1  0  0  0
  8 10  1  0  0  0
  9 18  1  0  0  0
  9  4  1  0  0  0
 10 20  1  0  0  0
 11 12  1  0  0  0
 13 14  1  0  0  0
 15 16  1  0  0  0
 17 22  1  0  0  0
 17 12  1  0  0  0
 25 11  1  0  0  0
  4  5  2  0  0  0
  6  7  2  0  0  0
  8  9  2  0  0  0
 10 19  2  0  0  0
 11 21  2  0  0  0
 12 13  2  0  0  0
 14 15  2  0  0  0
 16 17  2  0  0  0
M  END
> <rmsd>
0.833659291

$$$$
PubChem-52950223


 26 28  0  0  0  0  0  0  0  0999 V2000
   12.6797   24.0637   65.7871 C   0  0  0  0  0
   11.2205   23.3028   67.6337 C   0  0  0  0  0
   11.4323   24.4772   68.3751 C   0  0  0  0  0
   10.8151   24.6474   69.6176 C   0  0  0  0  0
    9.9844   23.6462   70.1277 C   0  0  0  0  0
    9.7734   22.4717   69.3976 C   0  0  0  0  0
   10.3875   22.3052   68.1511 C   0  0  0  0  0
    8.8698   21.4139   69.9313 C   0  0  0  0  0
    7.4711   21.6483   69.4728 C   0  0  0  0  0
    5.5408   22.3911   69.3291 C   0  0  0  0  0
    3.3303   22.0471   70.7896 C   0  0  0  0  0
    2.9960   20.7461   70.0386 C   0  0  0  0  0
    2.4241   19.7193   71.0194 C   0  0  0  0  0
    3.2817   19.6166   72.2827 C   0  0  0  0  0
    3.5242   21.0383   72.8068 C   0  0  0  0  0
    4.2481   21.0495   74.1488 C   0  0  0  0  0
   11.8210   23.1038   66.3877 O   0  0  0  0  0
    6.6307   22.4703   70.0520 O   0  0  0  0  0
    4.2216   21.8032   71.8539 O   0  0  0  0  0
    5.5810   20.6603   74.0005 O   0  0  0  0  0
    4.4966   18.9868   71.9908 O   0  0  0  0  0
    2.3087   18.4715   70.4037 O   0  0  0  0  0
    2.0566   21.0027   69.0385 O   0  0  0  0  0
    6.9233   21.0623   68.3920 N   0  0  0  0  0
    5.6901   21.5355   68.3010 N   0  0  0  0  0
    4.0360   23.3048   69.6657 S   0  0  0  0  0
  1 17  1  0  0  0
  2 17  1  0  0  0
  3  4  1  0  0  0
  5  6  1  0  0  0
  7  2  1  0  0  0
  8  6  1  0  0  0
  8  9  1  0  0  0
  9 18  1  0  0  0
 10 18  1  0  0  0
 10 26  1  0  0  0
 11 26  1  0  0  0
 11 12  1  0  0  0
 11 19  1  0  0  0
 12 13  1  0  0  0
 12 23  1  0  0  0
 13 14  1  0  0  0
 13 22  1  0  0  0
 14 15  1  0  0  0
 14 21  1  0  0  0
 15 19  1  0  0  0
 15 16  1  0  0  0
 16 20  1  0  0  0
 24 25  1  0  0  0
  2  3  2  0  0  0
  4  5  2  0  0  0
  6  7  2  0  0  0
  9 24  2  0  0  0
 10 25  2  0  0  0
M  END
> <rmsd>
0.702350557

$$$$
PubChem-159300204 PubChem-59132815


 27 29  0  0  0  0  0  0  0  0999 V2000
   10.7089   21.1606   70.2924 C   0  0  0  0  0
    9.7162   21.6019   71.3522 C   0  0  0  0  0
   10.3245   21.3812   72.7433 C   0  0  0  0  0
   10.0323   19.9806   73.2568 C   0  0  0  0  0
    8.5583   19.8460   73.4229 C   0  0  0  0  0
    7.6658   20.3994   72.3694 C   0  0  0  0  0
    6.3162   20.4056   72.5003 C   0  0  0  0  0
    5.3928   20.9758   71.4316 C   0  0  0  0  0
    6.1016   21.1029   70.0666 C   0  0  0  0  0
    7.4508   21.8005   70.2419 C   0  0  0  0  0
    8.3491   20.9155   71.1076 C   0  0  0  0  0
    5.1929   21.7892   69.0182 C   0  0  0  0  0
    3.7280   21.4079   69.1851 C   0  0  0  0  0
    3.3213   20.3842   70.1817 C   0  0  0  0  0
    4.1489   20.1239   71.2191 C   0  0  0  0  0
    2.0451   19.6436   69.9929 C   0  0  0  0  0
    5.1540   22.5422   66.7470 C   0  0  0  0  0
    5.3566   20.2270   67.1623 C   0  0  0  0  0
    8.1095   19.2939   74.4624 O   0  0  0  0  0
    8.0629   22.0096   69.0033 O   0  0  0  0  0
    2.8552   21.9910   68.4875 O   0  0  0  0  0
    3.8636   19.0749   72.0913 O   0  0  0  0  0
    1.4930   19.0491   70.9566 O   0  0  0  0  0
    4.9906   22.2461   71.8606 O   0  0  0  0  0
    5.7397   19.9901   73.6991 O   0  0  0  0  0
    1.4207   19.6001   68.7131 N   0  0  0  0  0
    5.7102   21.5536   67.6573 N   0  0  0  0  0
  1  2  1  0  0  0
  2  3  1  0  0  0
  3  4  1  0  0  0
  4  5  1  0  0  0
  5  6  1  0  0  0
  7 25  1  0  0  0
  8  7  1  0  0  0
  8  9  1  0  0  0
  8 24  1  0  0  0
  8 15  1  0  0  0
  9 10  1  0  0  0
  9 12  1  0  0  0
 10 11  1  0  0  0
 10 20  1  0  0  0
 11  2  1  0  0  0
 11  6  1  0  0  0
 12 13  1  0  0  0
 12 27  1  0  0  0
 13 14  1  0  0  0
 14 16  1  0  0  0
 15 22  1  0  0  0
 16 26  1  0  0  0
 17 27  1  0  0  0
 18 27  1  0  0  0
  5 19  2  0  0  0
  6  7  2  0  0  0
 13 21  2  0  0  0
 14 15  2  0  0  0
 16 23  2  0  0  0
M  END
> <rmsd>
0.743294895

$$$$
PubChem-141579056


 29 30  0  0  0  0  0  0  0  0999 V2000
    5.7563   20.3976   74.6481 N   0  0  0  0  0
    3.7058   20.1172   71.8101 N   0  0  0  0  0
    1.7251   20.1890   68.9112 N   0  0  0  0  0
    8.1954   19.3765   77.4375 N   0  0  0  0  0
    4.5021   20.8832   74.0769 C   0  0  0  0  0
    4.1552   22.2589   74.6231 C   0  0  0  0  0
    4.5924   20.9248   72.5862 C   0  0  0  0  0
    3.7849   20.0422   70.3584 C   0  0  0  0  0
    5.0031   19.2215   69.9444 C   0  0  0  0  0
    5.3760   19.4815   68.4910 C   0  0  0  0  0
    5.9969   20.8285   68.3305 C   0  0  0  0  0
    2.5298   19.4408   69.8144 C   0  0  0  0  0
    6.1227   19.0122   74.5761 C   0  0  0  0  0
    7.4527   18.5579   75.1278 C   0  0  0  0  0
    7.3714   18.5261   76.6404 C   0  0  0  0  0
    9.1346   20.2569   76.8323 C   0  0  0  0  0
    9.9274   21.0927   77.6242 C   0  0  0  0  0
   10.8528   21.9509   77.0225 C   0  0  0  0  0
   10.9851   21.9716   75.6304 C   0  0  0  0  0
   10.1916   21.1344   74.8396 C   0  0  0  0  0
    9.2644   20.2765   75.4391 C   0  0  0  0  0
    7.7952   17.1577   74.6335 C   0  0  0  0  0
    5.4529   21.6548   72.0218 O   0  0  0  0  0
    7.0939   21.0928   68.8887 O   0  0  0  0  0
    5.3677   21.7900   67.5518 O   0  0  0  0  0
    2.1773   18.2791   70.1513 O   0  0  0  0  0
    5.3101   18.1737   74.0952 O   0  0  0  0  0
    6.5567   17.7523   77.2116 O   0  0  0  0  0
    8.4732   19.4436   74.6403 O   0  0  0  0  0
  1 13  1  0  0  0
  4 16  1  0  0  0
  5  1  1  0  0  0
  5  6  1  0  0  0
  5  7  1  0  0  0
  7  2  1  0  0  0
  8  2  1  0  0  0
  8  9  1  0  0  0
  8 12  1  0  0  0
  9 10  1  0  0  0
 10 11  1  0  0  0
 11 25  1  0  0  0
 12  3  1  0  0  0
 14 13  1  0  0  0
 14 15  1  0  0  0
 14 22  1  0  0  0
 14 29  1  0  0  0
 15  4  1  0  0  0
 17 18  1  0  0  0
 19 20  1  0  0  0
 21 29  1  0  0  0
 21 16  1  0  0  0
  7 23  2  0  0  0
 11 24  2  0  0  0
 12 26  2  0  0  0
 13 27  2  0  0  0
 15 28  2  0  0  0
 16 17  2  0  0  0
 18 19  2  0  0  0
 20 21  2  0  0  0
M  END
> <rmsd>
0.657641292

$$$$
PubChem-71496532


 35 38  0  0  0  0  0  0  0  0999 V2000
    9.5991   20.7871   76.0851 C   0  0  0  0  0
    7.7169   21.6468   74.7345 C   0  0  0  0  0
    6.6025   21.3967   73.9352 C   0  0  0  0  0
    5.8545   22.4036   73.3994 C   0  0  0  0  0
    6.1765   23.7539   73.5924 C   0  0  0  0  0
    7.2820   24.0384   74.4169 C   0  0  0  0  0
    8.0493   22.9965   74.9800 C   0  0  0  0  0
    5.3845   24.8600   73.0209 C   0  0  0  0  0
    4.8198   24.9776   71.7597 C   0  0  0  0  0
    4.3280   26.6990   72.9171 C   0  0  0  0  0
    4.9639   24.0769   70.6004 C   0  0  0  0  0
    6.1211   23.3170   70.4171 C   0  0  0  0  0
    6.2503   22.4377   69.3319 C   0  0  0  0  0
    5.1927   22.3338   68.3932 C   0  0  0  0  0
    4.0416   23.1226   68.5613 C   0  0  0  0  0
    3.9373   23.9880   69.6598 C   0  0  0  0  0
    1.8015   23.7694   67.7253 C   0  0  0  0  0
    6.2789   20.5641   66.9893 C   0  0  0  0  0
    8.4853   21.7107   70.1215 C   0  0  0  0  0
    5.0287   20.5519   72.8250 C   0  0  0  0  0
    3.1205   19.8786   71.2950 C   0  0  0  0  0
    2.4344   18.7610   70.5779 C   0  0  0  0  0
    2.8876   18.6679   69.1252 C   0  0  0  0  0
    8.4567   20.5862   75.2651 O   0  0  0  0  0
    5.0717   25.9401   73.6922 O   0  0  0  0  0
    3.0070   23.0236   67.6241 O   0  0  0  0  0
    5.2278   21.4728   67.2834 O   0  0  0  0  0
    7.4134   21.6724   69.1882 O   0  0  0  0  0
    2.7589   21.0710   71.0992 O   0  0  0  0  0
    2.4998   19.8015   68.4067 O   0  0  0  0  0
    4.1404   26.1392   71.7025 N   0  0  0  0  0
    4.8332   21.8890   72.6987 N   0  0  0  0  0
    6.1014   20.2034   73.5792 N   0  0  0  0  0
    4.2133   19.5758   72.1690 N   0  0  0  0  0
    0.9897   18.9080   70.6559 N   0  0  0  0  0
  1 24  1  0  0  0
  2 24  1  0  0  0
  3  4  1  0  0  0
  4 32  1  0  0  0
  5  6  1  0  0  0
  5  8  1  0  0  0
  7  2  1  0  0  0
  8 25  1  0  0  0
  9 31  1  0  0  0
  9 11  1  0  0  0
 10 25  1  0  0  0
 12 13  1  0  0  0
 13 28  1  0  0  0
 14 15  1  0  0  0
 14 27  1  0  0  0
 15 26  1  0  0  0
 16 11  1  0  0  0
 17 26  1  0  0  0
 18 27  1  0  0  0
 19 28  1  0  0  0
 20 33  1  0  0  0
 20 34  1  0  0  0
 22 21  1  0  0  0
 22 23  1  0  0  0
 22 35  1  0  0  0
 23 30  1  0  0  0
 33  3  1  0  0  0
 34 21  1  0  0  0
  2  3  2  0  0  0
  4  5  2  0  0  0
  6  7  2  0  0  0
  8  9  2  0  0  0
 10 31  2  0  0  0
 11 12  2  0  0  0
 13 14  2  0  0  0
 15 16  2  0  0  0
 20 32  2  0  0  0
 21 29  2  0  0  0
M  END
> <rmsd>
0.78230679

$$$$
PubChem-163146509


 21 20  0  0  0  0  0  0  0  0999 V2000
    8.3603   22.8739   73.3578 C   0  0  0  0  0
    7.8601   21.9791   72.2400 C   0  0  0  0  0
    9.0066   21.6655   71.3027 C   0  0  0  0  0
    7.3088   20.6814   72.8115 C   0  0  0  0  0
    5.9423   20.8893   73.4539 C   0  0  0  0  0
    4.8981   21.1483   72.4177 C   0  0  0  0  0
    3.6718   20.3970   70.3320 C   0  0  0  0  0
    4.0006   19.5266   69.0978 C   0  0  0  0  0
    5.5177   19.5185   68.8034 C   0  0  0  0  0
    6.1086   20.8511   68.4351 C   0  0  0  0  0
    2.2957   20.1322   70.8582 C   0  0  0  0  0
    4.2570   22.2325   72.4429 O   0  0  0  0  0
    5.3988   21.8896   68.3632 O   0  0  0  0  0
    7.4680   20.9353   68.1691 O   0  0  0  0  0
    1.9391   19.5882   68.1102 O   0  0  0  0  0
    3.6584   19.2251   66.8512 O   0  0  0  0  0
    1.9798   18.9864   71.2753 O   0  0  0  0  0
    1.3645   21.1610   70.8960 O   0  0  0  0  0
    4.6447   20.1790   71.3972 N   0  0  0  0  0
    3.2306   19.9473   67.9164 N   0  0  0  0  0
    5.5854   19.7117   74.2248 N   0  0  0  0  0
  1  2  1  0  0  0
  2  3  1  0  0  0
  2  4  1  0  0  0
  4  5  1  0  0  0
  5  6  1  0  0  0
  5 21  1  0  0  0
  6 19  1  0  0  0
  7 19  1  0  0  0
  7  8  1  0  0  0
  7 11  1  0  0  0
  8  9  1  0  0  0
  8 20  1  0  0  0
  9 10  1  0  0  0
 10 14  1  0  0  0
 11 18  1  0  0  0
 20 15  1  0  0  0
 20 16  1  0  0  0
  6 12  2  0  0  0
 10 13  2  0  0  0
 11 17  2  0  0  0
M  CHG  1  16  -1
M  END
> <rmsd>
0.789639771

$$$$
PubChem-141901747


 14 13  0  0  0  0  0  0  0  0999 V2000
    4.8850   19.0273   69.3344 C   0  0  0  0  0
    6.3197   19.5432   69.3409 C   0  0  0  0  0
    6.4894   20.7999   68.5440 C   0  0  0  0  0
    3.9944   19.8689   70.2395 C   0  0  0  0  0
    2.5580   19.5350   70.0124 C   0  0  0  0  0
    4.7877   20.7071   72.4798 C   0  0  0  0  0
    7.6190   21.3514   68.4993 O   0  0  0  0  0
    5.4250   21.3641   67.8488 O   0  0  0  0  0
    2.1293   18.3714   70.2414 O   0  0  0  0  0
    0.3626   20.2761   69.3245 O   0  0  0  0  0
    4.8982   21.8801   72.0337 O   0  0  0  0  0
    1.6715   20.5454   69.5385 N   0  0  0  0  0
    4.3409   19.6463   71.6359 N   0  0  0  0  0
    5.1962   20.3670   74.1842 S   0  0  0  0  0
  1  2  1  0  0  0
  2  3  1  0  0  0
  3  8  1  0  0  0
  4  1  1  0  0  0
  4  5  1  0  0  0
  4 13  1  0  0  0
  5 12  1  0  0  0
  6 14  1  0  0  0
 12 10  1  0  0  0
 13  6  1  0  0  0
  3  7  2  0  0  0
  5  9  2  0  0  0
  6 11  2  0  0  0
M  END
> <rmsd>
0.587772906

$$$$
PubChem-143643091 PubChem-143643092


 37 39  0  0  0  0  0  0  0  0999 V2000
    2.5422   20.6315   73.1325 C   0  0  0  0  0
    3.7172   19.9852   72.4177 C   0  0  0  0  0
    4.9339   20.8294   72.5947 C   0  0  0  0  0
    7.2132   21.1327   73.6274 C   0  0  0  0  0
    8.1525   20.8851   72.4613 C   0  0  0  0  0
    8.9256   22.1518   72.1291 C   0  0  0  0  0
    8.0792   23.1029   71.3410 C   0  0  0  0  0
    7.7146   24.3221   71.9222 C   0  0  0  0  0
    6.9270   25.2332   71.2145 C   0  0  0  0  0
    6.5036   24.9315   69.9186 C   0  0  0  0  0
    6.8692   23.7193   69.3289 C   0  0  0  0  0
    7.6586   22.7949   70.0326 C   0  0  0  0  0
    7.6233   21.1516   68.1627 C   0  0  0  0  0
    6.3196   20.3783   68.2556 C   0  0  0  0  0
    4.0937   20.5625   67.5517 C   0  0  0  0  0
    2.7807   21.1486   67.9787 C   0  0  0  0  0
    2.0559   18.9745   69.0525 C   0  0  0  0  0
    2.4133   18.9565   70.4990 C   0  0  0  0  0
    4.2300   20.6043   66.0306 C   0  0  0  0  0
    3.5883   19.4144   65.3968 C   0  0  0  0  0
    2.1970   19.2572   65.4147 C   0  0  0  0  0
    1.5987   18.1458   64.8054 C   0  0  0  0  0
    2.4107   17.1779   64.1969 C   0  0  0  0  0
    3.7992   17.3368   64.1697 C   0  0  0  0  0
    4.3866   18.4561   64.7654 C   0  0  0  0  0
    0.1127   17.9509   64.8856 C   0  0  0  0  0
    5.0161   21.9505   72.0215 O   0  0  0  0  0
    8.0419   21.5783   69.4538 O   0  0  0  0  0
    2.5274   22.3600   67.7433 O   0  0  0  0  0
    1.8276   18.1520   71.2712 O   0  0  0  0  0
    5.9888   20.3705   73.4419 N   0  0  0  0  0
    5.1905   21.2912   68.1718 N   0  0  0  0  0
    1.7932   20.3402   68.6223 N   0  0  0  0  0
    3.4200   19.8407   70.9987 N   0  0  0  0  0
   -0.1978   17.2880   66.0584 F   0  0  0  0  0
   -0.5344   19.1745   64.8730 F   0  0  0  0  0
   -0.3366   17.2031   63.8108 F   0  0  0  0  0
  1  2  1  0  0  0
  2  3  1  0  0  0
  2 34  1  0  0  0
  3 31  1  0  0  0
  4 31  1  0  0  0
  4  5  1  0  0  0
  5  6  1  0  0  0
  6  7  1  0  0  0
  8  9  1  0  0  0
 10 11  1  0  0  0
 12 28  1  0  0  0
 12  7  1  0  0  0
 13 28  1  0  0  0
 13 14  1  0  0  0
 14 32  1  0  0  0
 15 32  1  0  0  0
 15 16  1  0  0  0
 15 19  1  0  0  0
 16 33  1  0  0  0
 17 33  1  0  0  0
 17 18  1  0  0  0
 18 34  1  0  0  0
 19 20  1  0  0  0
 21 22  1  0  0  0
 23 24  1  0  0  0
 25 20  1  0  0  0
 26 22  1  0  0  0
 26 35  1  0  0  0
 26 36  1  0  0  0
 26 37  1  0  0  0
  3 27  2  0  0  0
  7  8  2  0  0  0
  9 10  2  0  0  0
 11 12  2  0  0  0
 16 29  2  0  0  0
 18 30  2  0  0  0
 20 21  2  0  0  0
 22 23  2  0  0  0
 24 25  2  0  0  0
M  END
> <rmsd>
0.766334414

$$$$
PubChem-165176162


 31 36  0  0  0  0  0  0  0  0999 V2000
    1.1732   22.5542   74.1520 C   0  0  0  0  0
    2.1013   21.8105   75.0716 C   0  0  0  0  0
    3.2509   21.3668   74.1851 C   0  0  0  0  0
    4.3878   22.4130   74.2038 C   0  0  0  0  0
    4.8434   22.7362   75.6360 C   0  0  0  0  0
    5.6958   21.6161   76.2417 C   0  0  0  0  0
    6.8163   21.2199   75.2796 C   0  0  0  0  0
    5.6292   21.9997   73.3889 C   0  0  0  0  0
    5.5031   22.9587   71.3829 C   0  0  0  0  0
    6.7207   22.8943   70.4674 C   0  0  0  0  0
    6.8303   24.1916   69.6725 C   0  0  0  0  0
    8.0088   24.1197   68.7118 C   0  0  0  0  0
    7.8509   22.9000   67.8111 C   0  0  0  0  0
    6.6896   21.6727   69.5291 C   0  0  0  0  0
    4.8494   20.2997   69.1389 C   0  0  0  0  0
    3.4702   20.5039   69.7389 C   0  0  0  0  0
    2.4557   20.6820   68.6322 C   0  0  0  0  0
    3.0182   19.2211   70.3689 C   0  0  0  0  0
    2.3751   19.7696   72.6891 C   0  0  0  0  0
    1.5315   22.0818   72.7582 C   0  0  0  0  0
    0.9308   19.4101   72.3327 C   0  0  0  0  0
    0.6906   19.7456   70.8781 C   0  0  0  0  0
    6.2665   20.8273   73.9834 N   0  0  0  0  0
    7.8368   21.6746   68.6136 N   0  0  0  0  0
    5.4371   21.5813   68.7881 N   0  0  0  0  0
    1.4805   19.5900   68.7309 N   0  0  0  0  0
    1.6121   19.0106   70.0087 N   0  0  0  0  0
    3.3281   19.0937   71.8055 N   0  0  0  0  0
    2.7071   21.2039   72.8359 N   0  0  0  0  0
    5.3176   21.7439   72.0518 O   0  0  0  0  0
    4.9118   20.5161   76.5410 F   0  0  0  0  0
  1  2  1  0  0  0
  3  2  1  0  0  0
  3  4  1  0  0  0
  3 29  1  0  0  0
  4  5  1  0  0  0
  5  6  1  0  0  0
  6  7  1  0  0  0
  6 31  1  0  0  0
  7 23  1  0  0  0
  8 23  1  0  0  0
  8 30  1  0  0  0
  8  4  1  0  0  0
  9 30  1  0  0  0
  9 10  1  0  0  0
 10 11  1  0  0  0
 11 12  1  0  0  0
 12 13  1  0  0  0
 13 24  1  0  0  0
 14 24  1  0  0  0
 14 25  1  0  0  0
 14 10  1  0  0  0
 15 25  1  0  0  0
 15 16  1  0  0  0
 16 17  1  0  0  0
 17 26  1  0  0  0
 18 27  1  0  0  0
 18 28  1  0  0  0
 18 16  1  0  0  0
 19 28  1  0  0  0
 19 29  1  0  0  0
 19 21  1  0  0  0
 20 29  1  0  0  0
 20  1  1  0  0  0
 21 22  1  0  0  0
 22 27  1  0  0  0
 26 27  1  0  0  0
M  END
> <rmsd>
0.657433093

$$$$
PubChem-67493773


 38 42  0  0  0  0  0  0  0  0999 V2000
    7.7290   16.9179   80.8078 C   0  0  0  0  0
    7.3096   18.4898   79.1264 C   0  0  0  0  0
    6.2733   19.3964   78.4675 C   0  0  0  0  0
    4.5389   17.7128   79.0967 C   0  0  0  0  0
    5.6558   16.8864   79.7272 C   0  0  0  0  0
    4.5423   18.6896   76.7644 C   0  0  0  0  0
    5.0870   19.5647   75.8147 C   0  0  0  0  0
    4.5387   19.6905   74.5300 C   0  0  0  0  0
    3.4178   18.8908   74.1795 C   0  0  0  0  0
    2.8650   18.0324   75.1405 C   0  0  0  0  0
    3.4170   17.9340   76.4172 C   0  0  0  0  0
    2.8260   18.8704   72.8258 C   0  0  0  0  0
    3.2077   19.1433   70.3361 C   0  0  0  0  0
    3.1400   19.4728   68.2023 C   0  0  0  0  0
    3.9963   19.1633   69.2154 C   0  0  0  0  0
    5.4535   18.8865   69.0262 C   0  0  0  0  0
    4.9819   19.0850   66.6030 C   0  0  0  0  0
    3.5958   19.7253   66.8100 C   0  0  0  0  0
    6.6975   21.6859   66.1419 C   0  0  0  0  0
    7.7354   20.9492   65.3463 C   0  0  0  0  0
    8.0151   21.4074   64.0538 C   0  0  0  0  0
    8.9654   20.7567   63.2608 C   0  0  0  0  0
    9.6421   19.6390   63.7574 C   0  0  0  0  0
    9.3698   19.1734   65.0466 C   0  0  0  0  0
    8.4212   19.8262   65.8380 C   0  0  0  0  0
    5.1105   20.7292   73.6451 C   0  0  0  0  0
    6.6988   17.7712   80.2448 N   0  0  0  0  0
    5.1137   18.5916   78.0810 N   0  0  0  0  0
    3.6736   18.9262   71.6715 N   0  0  0  0  0
    1.9389   19.4615   70.0002 N   0  0  0  0  0
    1.8989   19.6707   68.6883 N   0  0  0  0  0
    5.9315   19.3490   67.7078 N   0  0  0  0  0
    6.4739   21.1154   73.7866 N   0  0  0  0  0
    1.5795   18.7275   72.6936 O   0  0  0  0  0
    5.2806   21.8397   68.4112 O   0  0  0  0  0
    7.6245   21.1749   68.6133 O   0  0  0  0  0
    4.3884   21.3334   72.8096 O   0  0  0  0  0
    6.3815   21.0314   67.7811 S   0  0  0  0  0
  1 27  1  0  0  0
  2 27  1  0  0  0
  2  3  1  0  0  0
  3 28  1  0  0  0
  4 28  1  0  0  0
  4  5  1  0  0  0
  5 27  1  0  0  0
  7  8  1  0  0  0
  8 26  1  0  0  0
  9 10  1  0  0  0
  9 12  1  0  0  0
 11  6  1  0  0  0
 12 29  1  0  0  0
 15 13  1  0  0  0
 16 15  1  0  0  0
 16 32  1  0  0  0
 17 32  1  0  0  0
 17 18  1  0  0  0
 18 14  1  0  0  0
 19 20  1  0  0  0
 21 22  1  0  0  0
 23 24  1  0  0  0
 25 20  1  0  0  0
 26 33  1  0  0  0
 28  6  1  0  0  0
 29 13  1  0  0  0
 31 30  1  0  0  0
 31 14  1  0  0  0
 38 32  1  0  0  0
 38 19  1  0  0  0
  6  7  2  0  0  0
  8  9  2  0  0  0
 10 11  2  0  0  0
 12 34  2  0  0  0
 13 30  2  0  0  0
 14 15  2  0  0  0
 20 21  2  0  0  0
 22 23  2  0  0  0
 24 25  2  0  0  0
 26 37  2  0  0  0
 38 35  2  0  0  0
 38 36  2  0  0  0
M  END
> <rmsd>
0.69905138

$$$$
PubChem-131910642 MCULE-6488383302 MolPort-045-932-092


 32 34  0  0  0  0  0  0  0  0999 V2000
    3.4073   20.7126   74.9390 C   0  0  0  0  0
    4.3678   19.5599   74.6932 C   0  0  0  0  0
    3.5904   18.2627   74.5444 C   0  0  0  0  0
    5.2840   19.7978   73.4876 C   0  0  0  0  0
    7.4339   21.0679   73.0997 C   0  0  0  0  0
    8.1410   22.3842   73.1583 C   0  0  0  0  0
    8.2316   23.0227   71.7770 C   0  0  0  0  0
    6.4807   22.5500   70.0322 C   0  0  0  0  0
    5.1818   22.7336   69.5533 C   0  0  0  0  0
    4.7900   22.0281   68.4149 C   0  0  0  0  0
    3.4004   22.1687   67.8913 C   0  0  0  0  0
    2.7291   20.8092   67.7963 C   0  0  0  0  0
    2.4523   19.5456   69.9720 C   0  0  0  0  0
    3.8641   19.0358   69.9381 C   0  0  0  0  0
    3.9192   17.6965   69.2326 C   0  0  0  0  0
    4.5397   19.9944   72.1995 C   0  0  0  0  0
    6.9502   21.0541   68.2475 C   0  0  0  0  0
    9.2723   20.1353   67.9813 C   0  0  0  0  0
    9.7005   18.6861   68.1887 C   0  0  0  0  0
    7.8030   18.0086   66.4554 C   0  0  0  0  0
    7.4729   19.4940   66.3430 C   0  0  0  0  0
    6.1645   20.9309   73.7385 N   0  0  0  0  0
    6.9024   23.2286   71.2154 N   0  0  0  0  0
    2.0039   20.5148   69.0222 N   0  0  0  0  0
    4.4217   18.9042   71.2811 N   0  0  0  0  0
    5.6799   21.2150   67.7810 N   0  0  0  0  0
    7.3352   21.7179   69.3729 N   0  0  0  0  0
    7.8736   20.1906   67.5633 N   0  0  0  0  0
    7.9413   20.1029   72.4674 O   0  0  0  0  0
    1.6510   19.1294   70.8532 O   0  0  0  0  0
    4.0211   21.1129   71.9356 O   0  0  0  0  0
    9.6046   17.7712   66.6101 S   0  0  0  0  0
  1  2  1  0  0  0
  2  3  1  0  0  0
  4  2  1  0  0  0
  4 22  1  0  0  0
  4 16  1  0  0  0
  6  5  1  0  0  0
  6  7  1  0  0  0
  7 23  1  0  0  0
  8  9  1  0  0  0
 10 26  1  0  0  0
 11 10  1  0  0  0
 11 12  1  0  0  0
 12 24  1  0  0  0
 14 13  1  0  0  0
 14 15  1  0  0  0
 14 25  1  0  0  0
 17 27  1  0  0  0
 17 28  1  0  0  0
 18 28  1  0  0  0
 18 19  1  0  0  0
 19 32  1  0  0  0
 20 32  1  0  0  0
 20 21  1  0  0  0
 21 28  1  0  0  0
 22  5  1  0  0  0
 23  8  1  0  0  0
 24 13  1  0  0  0
 25 16  1  0  0  0
  5 29  2  0  0  0
  8 27  2  0  0  0
  9 10  2  0  0  0
 13 30  2  0  0  0
 16 31  2  0  0  0
 17 26  2  0  0  0
M  END
> <rmsd>
0.666683912

$$$$
PubChem-67535053


 25 26  0  0  0  0  0  0  0  0999 V2000
    2.0109   19.4933   69.7714 B   0  0  0  0  0
    3.5557   19.5186   70.1349 C   0  0  0  0  0
    4.3091   18.5580   69.2241 C   0  0  0  0  0
    5.7894   18.6930   69.4000 C   0  0  0  0  0
    6.4934   17.6295   69.9695 C   0  0  0  0  0
    7.8714   17.7202   70.1599 C   0  0  0  0  0
    8.5529   18.8764   69.7792 C   0  0  0  0  0
    7.8705   19.9555   69.2001 C   0  0  0  0  0
    6.4734   19.8585   69.0044 C   0  0  0  0  0
    8.6484   21.1549   68.8171 C   0  0  0  0  0
    4.5041   19.9141   72.4406 C   0  0  0  0  0
    4.6892   19.4480   73.8341 C   0  0  0  0  0
    4.0868   18.2427   74.2278 C   0  0  0  0  0
    4.2345   17.7600   75.5298 C   0  0  0  0  0
    4.9892   18.4781   76.4578 C   0  0  0  0  0
    5.5959   19.6782   76.0835 C   0  0  0  0  0
    5.4528   20.1684   74.7812 C   0  0  0  0  0
    5.7623   20.9045   68.4225 O   0  0  0  0  0
    8.0882   22.1567   68.2990 O   0  0  0  0  0
   10.0221   21.1883   69.0294 O   0  0  0  0  0
    5.0254   20.9936   72.0485 O   0  0  0  0  0
    6.0745   21.3666   74.4492 O   0  0  0  0  0
    1.3502   20.7171   69.3292 O   0  0  0  0  0
    1.2418   18.2586   69.9048 O   0  0  0  0  0
    3.7334   19.1290   71.5259 N   0  0  0  0  0
  1 23  1  0  0  0
  1 24  1  0  0  0
  2  1  1  0  0  0
  2  3  1  0  0  0
  2 25  1  0  0  0
  3  4  1  0  0  0
  5  6  1  0  0  0
  7  8  1  0  0  0
  8 10  1  0  0  0
  9 18  1  0  0  0
  9  4  1  0  0  0
 10 20  1  0  0  0
 11 12  1  0  0  0
 13 14  1  0  0  0
 15 16  1  0  0  0
 17 22  1  0  0  0
 17 12  1  0  0  0
 25 11  1  0  0  0
  4  5  2  0  0  0
  6  7  2  0  0  0
  8  9  2  0  0  0
 10 19  2  0  0  0
 11 21  2  0  0  0
 12 13  2  0  0  0
 14 15  2  0  0  0
 16 17  2  0  0  0
M  END
> <rmsd>
0.833897233

$$$$
PubChem-58712534


 19 20  0  0  0  0  0  0  0  0999 V2000
    6.3832   20.9130   74.6135 C   0  0  0  0  0
    4.8652   20.5490   72.6362 C   0  0  0  0  0
    3.4843   19.8867   70.5980 C   0  0  0  0  0
    4.2227   20.4589   69.5642 C   0  0  0  0  0
    2.2180   19.4274   70.1731 C   0  0  0  0  0
    6.3529   21.4685   68.5694 C   0  0  0  0  0
    6.4796   22.4194   66.4050 C   0  0  0  0  0
    7.8384   22.6716   66.5826 C   0  0  0  0  0
    8.4258   22.3025   67.7912 C   0  0  0  0  0
    5.4669   20.0873   73.8452 N   0  0  0  0  0
    3.9560   19.6922   71.9388 N   0  0  0  0  0
    1.9080   19.6166   68.8640 N   0  0  0  0  0
    5.5991   20.8555   69.6210 N   0  0  0  0  0
    5.7639   21.8272   67.3961 N   0  0  0  0  0
    7.6767   21.7124   68.7587 N   0  0  0  0  0
    5.0966   21.7159   72.2182 O   0  0  0  0  0
    1.4088   18.8687   70.9595 O   0  0  0  0  0
    3.2493   20.3509   68.2114 S   0  0  0  0  0
   10.4722   22.6608   68.1189 I   0  0  0  0  0
  1 10  1  0  0  0
  2 11  1  0  0  0
  4 18  1  0  0  0
  4 13  1  0  0  0
  5  3  1  0  0  0
  6 15  1  0  0  0
  7 14  1  0  0  0
  8  9  1  0  0  0
  9 19  1  0  0  0
 10  2  1  0  0  0
 11  3  1  0  0  0
 12 18  1  0  0  0
 12  5  1  0  0  0
 13  6  1  0  0  0
  2 16  2  0  0  0
  3  4  2  0  0  0
  5 17  2  0  0  0
  6 14  2  0  0  0
  7  8  2  0  0  0
  9 15  2  0  0  0
M  END
> <rmsd>
0.614810824

$$$$
PubChem-129691525 PubChem-57190603


 15 14  0  0  0  0  0  0  0  0999 V2000
    5.7221   20.4268   74.6900 N   0  0  0  0  0
    3.7190   20.1026   71.8112 N   0  0  0  0  0
    1.7341   20.2109   68.9182 N   0  0  0  0  0
    4.4819   20.8841   74.0842 C   0  0  0  0  0
    4.1420   22.2688   74.6011 C   0  0  0  0  0
    4.6066   20.9017   72.5955 C   0  0  0  0  0
    3.7969   20.0402   70.3586 C   0  0  0  0  0
    5.0121   19.2200   69.9344 C   0  0  0  0  0
    5.3725   19.4784   68.4773 C   0  0  0  0  0
    5.9864   20.8275   68.3081 C   0  0  0  0  0
    2.5386   19.4492   69.8101 C   0  0  0  0  0
    5.4878   21.6130   72.0391 O   0  0  0  0  0
    7.0872   21.0977   68.8559 O   0  0  0  0  0
    5.3465   21.7845   67.5326 O   0  0  0  0  0
    2.1835   18.2846   70.1336 O   0  0  0  0  0
  4  1  1  0  0  0
  4  5  1  0  0  0
  4  6  1  0  0  0
  6  2  1  0  0  0
  7  2  1  0  0  0
  7  8  1  0  0  0
  7 11  1  0  0  0
  8  9  1  0  0  0
  9 10  1  0  0  0
 10 14  1  0  0  0
 11  3  1  0  0  0
  6 12  2  0  0  0
 10 13  2  0  0  0
 11 15  2  0  0  0
M  END
> <rmsd>
0.665881276

$$$$
PubChem-131910081 CSCCC(=O)N1C[C@@H]2C[C@H]1C(=O)N[C@@H](C(C)C)C(=O)N[C@H](Cc1cccc MCULE-8658521632 MolPort-045-932-809 ZINC000952862623


 38 41  0  0  0  0  0  0  0  0999 V2000
    4.6637   15.1768   72.9344 C   0  0  0  0  0
    7.1831   15.8741   72.8504 C   0  0  0  0  0
    8.3530   16.6985   72.3434 C   0  0  0  0  0
    8.3891   18.0403   73.0039 C   0  0  0  0  0
    7.6281   19.1832   70.8790 C   0  0  0  0  0
    7.7782   20.6102   70.3776 C   0  0  0  0  0
    7.7864   21.4891   71.6214 C   0  0  0  0  0
    8.2826   20.5792   72.7292 C   0  0  0  0  0
    7.6619   20.9283   74.0566 C   0  0  0  0  0
    5.4463   19.6444   73.7177 C   0  0  0  0  0
    4.6814   18.7124   74.6650 C   0  0  0  0  0
    3.8923   19.4767   75.7181 C   0  0  0  0  0
    5.6267   17.7419   75.3464 C   0  0  0  0  0
    4.4893   20.4480   72.8855 C   0  0  0  0  0
    2.6257   20.4904   71.1827 C   0  0  0  0  0
    1.3756   20.7920   72.0016 C   0  0  0  0  0
    0.5635   21.8689   71.3624 C   0  0  0  0  0
   -0.7150   21.5763   70.8761 C   0  0  0  0  0
   -1.4837   22.5796   70.2781 C   0  0  0  0  0
   -0.9761   23.8780   70.1683 C   0  0  0  0  0
    0.2994   24.1741   70.6584 C   0  0  0  0  0
    1.0684   23.1715   71.2566 C   0  0  0  0  0
    2.2997   19.7025   69.9485 C   0  0  0  0  0
    3.2750   21.4909   68.4213 C   0  0  0  0  0
    4.7473   21.3369   68.6131 C   0  0  0  0  0
    5.3801   21.0043   69.7900 C   0  0  0  0  0
    5.6611   16.3514   71.9786 S   0  0  0  0  0
    8.7663   18.1243   74.2033 O   0  0  0  0  0
    8.3351   21.6401   74.8456 O   0  0  0  0  0
    4.4614   21.7063   72.9753 O   0  0  0  0  0
    1.7590   18.5695   70.0527 O   0  0  0  0  0
    8.0174   19.2213   72.2771 N   0  0  0  0  0
    6.3557   20.5052   74.4699 N   0  0  0  0  0
    3.5987   19.7721   71.9934 N   0  0  0  0  0
    2.5944   20.2206   68.6467 N   0  0  0  0  0
    6.6869   20.9660   69.4808 N   0  0  0  0  0
    6.8428   21.2581   68.2004 N   0  0  0  0  0
    5.6657   21.4919   67.6402 N   0  0  0  0  0
  1 27  1  0  0  0
  2 27  1  0  0  0
  2  3  1  0  0  0
  3  4  1  0  0  0
  4 32  1  0  0  0
  5 32  1  0  0  0
  6  5  1  0  0  0
  6  7  1  0  0  0
  6 36  1  0  0  0
  7  8  1  0  0  0
  8  9  1  0  0  0
  8 32  1  0  0  0
  9 33  1  0  0  0
 10 33  1  0  0  0
 10 11  1  0  0  0
 10 14  1  0  0  0
 11 12  1  0  0  0
 11 13  1  0  0  0
 14 34  1  0  0  0
 15 34  1  0  0  0
 15 16  1  0  0  0
 15 23  1  0  0  0
 16 17  1  0  0  0
 18 19  1  0  0  0
 20 21  1  0  0  0
 22 17  1  0  0  0
 23 35  1  0  0  0
 24 35  1  0  0  0
 24 25  1  0  0  0
 25 38  1  0  0  0
 26 36  1  0  0  0
 36 37  1  0  0  0
  4 28  2  0  0  0
  9 29  2  0  0  0
 14 30  2  0  0  0
 17 18  2  0  0  0
 19 20  2  0  0  0
 21 22  2  0  0  0
 23 31  2  0  0  0
 25 26  2  0  0  0
 37 38  2  0  0  0
M  END
> <rmsd>
0.748513699

$$$$
PubChem-89411666


 30 32  0  0  0  0  0  0  0  0999 V2000
   -0.0439   16.3627   74.2976 C   0  0  0  0  0
   -0.1643   16.0675   72.8180 C   0  0  0  0  0
    1.2025   16.1670   72.1710 C   0  0  0  0  0
    0.5978   17.5339   70.0249 C   0  0  0  0  0
    1.2274   19.7577   69.5134 C   0  0  0  0  0
   -0.1266   20.1437   69.4710 C   0  0  0  0  0
   -1.0985   19.1534   69.7173 C   0  0  0  0  0
    3.6794   20.4017   69.4105 C   0  0  0  0  0
    4.0976   20.3709   70.8661 C   0  0  0  0  0
    5.5002   20.9330   70.8984 C   0  0  0  0  0
    5.6088   21.8582   69.7008 C   0  0  0  0  0
    4.4998   21.4987   68.7573 C   0  0  0  0  0
    6.4642   21.2955   67.7117 C   0  0  0  0  0
    7.2538   20.0729   67.2888 C   0  0  0  0  0
    6.8280   22.4464   66.7893 C   0  0  0  0  0
    6.7806   21.0261   72.7004 C   0  0  0  0  0
    6.8631   21.4625   74.1503 C   0  0  0  0  0
    1.0682   15.8475   70.3873 S   0  0  0  0  0
    1.5525   18.4660   69.7869 N   0  0  0  0  0
   -0.7128   17.8794   69.9845 N   0  0  0  0  0
   -0.5005   21.5043   69.1913 N   0  0  0  0  0
    2.2638   20.7215   69.3000 N   0  0  0  0  0
   -2.8201   19.4922   69.6256 Cl  0  0  0  0  0
    0.1319   22.1747   68.3493 O   0  0  0  0  0
   -1.5163   22.1080   69.8955 O   0  0  0  0  0
    5.0910   21.0136   67.5932 O   0  0  0  0  0
    6.8104   21.6259   69.0348 O   0  0  0  0  0
    5.6990   21.6527   72.0775 O   0  0  0  0  0
    5.7566   20.9841   74.8521 O   0  0  0  0  0
    4.1048   19.0577   71.3352 O   0  0  0  0  0
  1  2  1  0  0  0
  2  3  1  0  0  0
  3 18  1  0  0  0
  4 18  1  0  0  0
  4 20  1  0  0  0
  5 19  1  0  0  0
  5 22  1  0  0  0
  6  7  1  0  0  0
  6 21  1  0  0  0
  7 23  1  0  0  0
  8 22  1  0  0  0
  8  9  1  0  0  0
  9 10  1  0  0  0
  9 30  1  0  0  0
 10 11  1  0  0  0
 10 28  1  0  0  0
 11 12  1  0  0  0
 11 27  1  0  0  0
 12 26  1  0  0  0
 12  8  1  0  0  0
 13 26  1  0  0  0
 13 27  1  0  0  0
 13 14  1  0  0  0
 13 15  1  0  0  0
 16 28  1  0  0  0
 16 17  1  0  0  0
 17 29  1  0  0  0
 21 25  1  0  0  0
  4 19  2  0  0  0
  5  6  2  0  0  0
  7 20  2  0  0  0
 21 24  2  0  0  0
M  CHG  2  21   1  25  -1
M  END
> <rmsd>
0.826101661

$$$$
PubChem-88679490


 27 30  0  0  0  0  0  0  0  0999 V2000
    7.3589   18.6563   67.6558 C   0  0  0  0  0
    6.6266   18.4333   68.9721 C   0  0  0  0  0
    5.6314   19.5402   69.3353 C   0  0  0  0  0
    6.4486   18.7843   71.4822 C   0  0  0  0  0
    6.7725   19.9917   72.2740 C   0  0  0  0  0
    5.6370   20.7430   71.5702 C   0  0  0  0  0
    6.4738   19.7580   73.7275 C   0  0  0  0  0
    7.1346   18.8059   74.5073 C   0  0  0  0  0
    6.5791   18.9802   75.7529 C   0  0  0  0  0
    6.8401   18.3077   76.9444 C   0  0  0  0  0
    6.1194   18.7011   78.0862 C   0  0  0  0  0
    5.1705   19.7433   78.0104 C   0  0  0  0  0
    4.9313   20.4040   76.7919 C   0  0  0  0  0
    5.6597   19.9903   75.6784 C   0  0  0  0  0
    2.8877   19.4694   70.7787 C   0  0  0  0  0
    2.7562   20.7117   69.9645 C   0  0  0  0  0
    6.0023   20.9028   68.7857 C   0  0  0  0  0
    5.8945   17.1058   68.8833 C   0  0  0  0  0
    5.4088   19.5145   70.8037 N   0  0  0  0  0
    5.5812   20.4931   74.4384 N   0  0  0  0  0
    4.1685   18.9312   71.1342 N   0  0  0  0  0
    2.3035   20.3750   68.6265 N   0  0  0  0  0
    7.8041   18.3749   70.3359 S   0  0  0  0  0
    5.1447   21.8591   71.6250 O   0  0  0  0  0
    1.8460   18.8726   71.1562 O   0  0  0  0  0
    7.0930   21.4498   69.1002 O   0  0  0  0  0
    5.1440   21.5436   67.9033 O   0  0  0  0  0
  1  2  1  0  0  0
  2  3  1  0  0  0
  2 18  1  0  0  0
  2 23  1  0  0  0
  3 19  1  0  0  0
  3 17  1  0  0  0
  4 23  1  0  0  0
  4  5  1  0  0  0
  5  6  1  0  0  0
  5  7  1  0  0  0
  8  9  1  0  0  0
 10 11  1  0  0  0
 12 13  1  0  0  0
 14 20  1  0  0  0
 14  9  1  0  0  0
 16 15  1  0  0  0
 16 22  1  0  0  0
 17 27  1  0  0  0
 19  4  1  0  0  0
 19 21  1  0  0  0
 19  6  1  0  0  0
 20  7  1  0  0  0
 21 15  1  0  0  0
  6 24  2  0  0  0
  7  8  2  0  0  0
  9 10  2  0  0  0
 11 12  2  0  0  0
 13 14  2  0  0  0
 15 25  2  0  0  0
 17 26  2  0  0  0
M  CHG  2  19   1  27  -1
M  END
> <rmsd>
0.567435324

$$$$
PubChem-136457137


 22 23  0  0  0  0  0  0  0  0999 V2000
    7.7202   27.3498   65.3025 C   0  0  0  0  0
    7.7924   26.7365   66.6847 C   0  0  0  0  0
    6.7865   25.6104   66.7894 C   0  0  0  0  0
    6.8626   24.9923   68.1717 C   0  0  0  0  0
    5.8738   23.8443   68.2924 C   0  0  0  0  0
    4.2102   23.8683   69.7626 C   0  0  0  0  0
    2.4798   22.1739   68.8145 C   0  0  0  0  0
    2.8255   20.5315   70.4022 C   0  0  0  0  0
    3.6383   21.5594   70.7217 C   0  0  0  0  0
    4.4888   20.3930   72.5591 C   0  0  0  0  0
    2.8303   19.3817   71.1796 C   0  0  0  0  0
    5.5818   23.6259   69.6407 O   0  0  0  0  0
    2.0854   18.4048   70.9058 O   0  0  0  0  0
    5.5970   21.1870   67.7409 O   0  0  0  0  0
    8.0191   21.9384   68.3750 O   0  0  0  0  0
    6.8930   22.5554   65.9315 O   0  0  0  0  0
    3.4849   22.6079   69.7901 N   0  0  0  0  0
    2.0685   20.8223   69.2361 N   0  0  0  0  0
    4.4786   21.5194   71.7849 N   0  0  0  0  0
    3.6702   19.3362   72.2548 N   0  0  0  0  0
    5.3553   20.3156   73.6841 N   0  0  0  0  0
    6.5787   22.3245   67.5772 P   0  0  0  0  0
  1  2  1  0  0  0
  2  3  1  0  0  0
  3  4  1  0  0  0
  4  5  1  0  0  0
  5 12  1  0  0  0
  5 22  1  0  0  0
  6 12  1  0  0  0
  6 17  1  0  0  0
  7 17  1  0  0  0
  7 18  1  0  0  0
  9 19  1  0  0  0
  9 17  1  0  0  0
 10 20  1  0  0  0
 10 21  1  0  0  0
 11  8  1  0  0  0
 18  8  1  0  0  0
 20 11  1  0  0  0
 22 15  1  0  0  0
 22 16  1  0  0  0
  8  9  2  0  0  0
 10 19  2  0  0  0
 11 13  2  0  0  0
 22 14  2  0  0  0
M  END
> <rmsd>
0.774972379

$$$$
PubChem-139962158


 37 41  0  0  0  0  0  0  0  0999 V2000
    5.6469   22.8240   66.6756 C   0  0  0  0  0
    5.9150   21.4440   67.2687 C   0  0  0  0  0
    7.4002   21.2470   67.3543 C   0  0  0  0  0
    9.3909   19.9821   66.6566 C   0  0  0  0  0
    5.4866   19.9331   69.0684 C   0  0  0  0  0
    4.1966   19.4501   69.7044 C   0  0  0  0  0
    3.1848   20.5466   69.4719 C   0  0  0  0  0
    3.8323   21.4285   68.4333 C   0  0  0  0  0
    1.0268   19.2468   69.7429 C   0  0  0  0  0
   -0.1750   18.6762   69.1272 C   0  0  0  0  0
   -1.6449   18.2015   67.5068 C   0  0  0  0  0
   -2.2560   17.5451   68.5592 C   0  0  0  0  0
   -3.5956   16.8921   68.4344 C   0  0  0  0  0
   -3.6952   17.7256   66.1858 C   0  0  0  0  0
   -2.2214   18.1577   66.1256 C   0  0  0  0  0
   -5.2456   16.1428   66.9499 C   0  0  0  0  0
    4.7874   20.1534   72.1054 C   0  0  0  0  0
    4.9087   19.7633   73.5148 C   0  0  0  0  0
    4.6406   18.4815   74.0003 C   0  0  0  0  0
    4.8869   18.6006   75.3478 C   0  0  0  0  0
    5.2742   19.8874   75.6045 C   0  0  0  0  0
    5.5936   20.3150   76.8914 C   0  0  0  0  0
    5.5055   19.3736   77.9325 C   0  0  0  0  0
    5.1059   18.0460   77.6673 C   0  0  0  0  0
    4.7899   17.6454   76.3566 C   0  0  0  0  0
    8.0975   21.9930   68.0965 O   0  0  0  0  0
    7.9932   20.2255   66.6125 O   0  0  0  0  0
    1.2414   19.0824   70.9743 O   0  0  0  0  0
    5.0456   21.3384   71.7617 O   0  0  0  0  0
    5.2798   21.3006   68.5875 N   0  0  0  0  0
    1.9469   19.9939   68.9425 N   0  0  0  0  0
   -0.4742   18.8168   67.8133 N   0  0  0  0  0
   -3.8513   16.5362   67.0328 N   0  0  0  0  0
    4.3738   19.1862   71.1306 N   0  0  0  0  0
    5.2954   20.6270   74.4863 N   0  0  0  0  0
   -1.3491   17.7784   69.9513 S   0  0  0  0  0
    5.0028   16.8909   78.9777 Cl  0  0  0  0  0
  1  2  1  0  0  0
  2  3  1  0  0  0
  2 30  1  0  0  0
  3 27  1  0  0  0
  4 27  1  0  0  0
  5 30  1  0  0  0
  5  6  1  0  0  0
  6  7  1  0  0  0
  6 34  1  0  0  0
  7  8  1  0  0  0
  7 31  1  0  0  0
  8 30  1  0  0  0
  9 10  1  0  0  0
 10 36  1  0  0  0
 11 32  1  0  0  0
 12 36  1  0  0  0
 13 12  1  0  0  0
 13 33  1  0  0  0
 14 33  1  0  0  0
 14 15  1  0  0  0
 15 11  1  0  0  0
 16 33  1  0  0  0
 17 18  1  0  0  0
 19 20  1  0  0  0
 21 35  1  0  0  0
 21 22  1  0  0  0
 23 24  1  0  0  0
 24 37  1  0  0  0
 25 20  1  0  0  0
 31  9  1  0  0  0
 34 17  1  0  0  0
 35 18  1  0  0  0
  3 26  2  0  0  0
  9 28  2  0  0  0
 10 32  2  0  0  0
 11 12  2  0  0  0
 17 29  2  0  0  0
 18 19  2  0  0  0
 20 21  2  0  0  0
 22 23  2  0  0  0
 24 25  2  0  0  0
M  END
> <rmsd>
0.61375618

$$$$
PubChem-135734291


 21 22  0  0  0  0  0  0  0  0999 V2000
    2.0833   26.0669   71.9399 C   0  0  0  0  0
    2.5229   25.3118   70.9389 C   0  0  0  0  0
    3.9127   24.7714   70.9675 C   0  0  0  0  0
    4.1772   23.9272   69.7302 C   0  0  0  0  0
    2.4206   22.2395   68.8208 C   0  0  0  0  0
    2.8075   20.5775   70.3776 C   0  0  0  0  0
    3.6138   21.6092   70.7010 C   0  0  0  0  0
    4.5221   20.4137   72.4920 C   0  0  0  0  0
    2.8455   19.4108   71.1288 C   0  0  0  0  0
    5.8423   23.7808   68.2735 C   0  0  0  0  0
    3.4285   22.6763   69.7933 N   0  0  0  0  0
    2.0275   20.8791   69.2302 N   0  0  0  0  0
    4.4800   21.5560   71.7428 N   0  0  0  0  0
    3.7101   19.3532   72.1835 N   0  0  0  0  0
    5.4158   20.3235   73.5946 N   0  0  0  0  0
    2.1084   18.4296   70.8493 O   0  0  0  0  0
    5.5448   23.6575   69.6319 O   0  0  0  0  0
    7.9264   22.0381   68.4579 O   0  0  0  0  0
    5.6098   20.9460   67.9226 O   0  0  0  0  0
    6.9977   22.4133   66.0412 O   0  0  0  0  0
    6.6452   22.2623   67.6879 P   0  0  0  0  0
  3  2  1  0  0  0
  3  4  1  0  0  0
  4 11  1  0  0  0
  4 17  1  0  0  0
  5 11  1  0  0  0
  5 12  1  0  0  0
  7 13  1  0  0  0
  7 11  1  0  0  0
  8 14  1  0  0  0
  8 15  1  0  0  0
  9  6  1  0  0  0
 10 17  1  0  0  0
 10 21  1  0  0  0
 12  6  1  0  0  0
 14  9  1  0  0  0
 21 19  1  0  0  0
 21 20  1  0  0  0
  1  2  2  0  0  0
  6  7  2  0  0  0
  8 13  2  0  0  0
  9 16  2  0  0  0
 21 18  2  0  0  0
M  END
> <rmsd>
0.784755886

$$$$
PubChem-56627265


 27 30  0  0  0  0  0  0  0  0999 V2000
    7.3589   18.6563   67.6558 C   0  0  0  0  0
    6.6266   18.4333   68.9721 C   0  0  0  0  0
    5.6314   19.5402   69.3353 C   0  0  0  0  0
    6.4486   18.7843   71.4822 C   0  0  0  0  0
    6.7725   19.9917   72.2740 C   0  0  0  0  0
    5.6370   20.7430   71.5702 C   0  0  0  0  0
    6.4738   19.7580   73.7275 C   0  0  0  0  0
    7.1346   18.8059   74.5073 C   0  0  0  0  0
    6.5791   18.9802   75.7529 C   0  0  0  0  0
    6.8401   18.3077   76.9444 C   0  0  0  0  0
    6.1194   18.7011   78.0862 C   0  0  0  0  0
    5.1705   19.7433   78.0104 C   0  0  0  0  0
    4.9313   20.4040   76.7919 C   0  0  0  0  0
    5.6597   19.9903   75.6784 C   0  0  0  0  0
    2.8877   19.4694   70.7787 C   0  0  0  0  0
    2.7562   20.7117   69.9645 C   0  0  0  0  0
    6.0023   20.9028   68.7857 C   0  0  0  0  0
    5.8945   17.1058   68.8833 C   0  0  0  0  0
    5.4088   19.5145   70.8037 N   0  0  0  0  0
    5.5812   20.4931   74.4384 N   0  0  0  0  0
    4.1685   18.9312   71.1342 N   0  0  0  0  0
    2.3035   20.3750   68.6265 N   0  0  0  0  0
    7.8041   18.3749   70.3359 S   0  0  0  0  0
    5.1447   21.8591   71.6250 O   0  0  0  0  0
    1.8460   18.8726   71.1562 O   0  0  0  0  0
    7.0930   21.4498   69.1002 O   0  0  0  0  0
    5.1440   21.5436   67.9033 O   0  0  0  0  0
  1  2  1  0  0  0
  2  3  1  0  0  0
  2 18  1  0  0  0
  2 23  1  0  0  0
  3 19  1  0  0  0
  3 17  1  0  0  0
  4 19  1  0  0  0
  4 23  1  0  0  0
  4  5  1  0  0  0
  5  6  1  0  0  0
  5  7  1  0  0  0
  8  9  1  0  0  0
 10 11  1  0  0  0
 12 13  1  0  0  0
 14 20  1  0  0  0
 14  9  1  0  0  0
 16 15  1  0  0  0
 16 22  1  0  0  0
 17 27  1  0  0  0
 19 21  1  0  0  0
 19  6  1  0  0  0
 20  7  1  0  0  0
 21 15  1  0  0  0
  6 24  2  0  0  0
  7  8  2  0  0  0
  9 10  2  0  0  0
 11 12  2  0  0  0
 13 14  2  0  0  0
 15 25  2  0  0  0
 17 26  2  0  0  0
M  CHG  1  19   1
M  END
> <rmsd>
0.567435324

$$$$
PubChem-136488320


 20 21  0  0  0  0  0  0  0  0999 V2000
    6.3903   26.3204   68.6345 C   0  0  0  0  0
    6.9990   24.9802   68.2706 C   0  0  0  0  0
    5.9489   23.8840   68.3457 C   0  0  0  0  0
    4.2478   23.8607   69.7766 C   0  0  0  0  0
    2.5309   22.1632   68.8097 C   0  0  0  0  0
    2.8574   20.5242   70.4049 C   0  0  0  0  0
    3.6698   21.5509   70.7294 C   0  0  0  0  0
    4.4950   20.3899   72.5818 C   0  0  0  0  0
    2.8495   19.3778   71.1874 C   0  0  0  0  0
    5.6231   23.6259   69.6808 O   0  0  0  0  0
    2.1045   18.4021   70.9094 O   0  0  0  0  0
    5.5576   21.2826   67.6284 O   0  0  0  0  0
    7.0157   22.6828   65.9712 O   0  0  0  0  0
    7.9806   21.8602   68.4235 O   0  0  0  0  0
    3.5290   22.5967   69.7929 N   0  0  0  0  0
    2.1128   20.8134   69.2306 N   0  0  0  0  0
    4.4971   21.5131   71.8029 N   0  0  0  0  0
    3.6766   19.3342   72.2724 N   0  0  0  0  0
    5.3479   20.3148   73.7173 N   0  0  0  0  0
    6.6053   22.3708   67.5819 P   0  0  0  0  0
  1  2  1  0  0  0
  2  3  1  0  0  0
  3 10  1  0  0  0
  3 20  1  0  0  0
  4 10  1  0  0  0
  4 15  1  0  0  0
  5 15  1  0  0  0
  5 16  1  0  0  0
  7 17  1  0  0  0
  7 15  1  0  0  0
  8 18  1  0  0  0
  8 19  1  0  0  0
  9  6  1  0  0  0
 16  6  1  0  0  0
 18  9  1  0  0  0
 20 13  1  0  0  0
 20 14  1  0  0  0
  6  7  2  0  0  0
  8 17  2  0  0  0
  9 11  2  0  0  0
 20 12  2  0  0  0
M  END
> <rmsd>
0.763973892

$$$$
PubChem-136488320


 20 21  0  0  0  0  0  0  0  0999 V2000
    6.7932   25.6273   66.8073 C   0  0  0  0  0
    6.8733   24.9935   68.1826 C   0  0  0  0  0
    5.8814   23.8474   68.2961 C   0  0  0  0  0
    4.2148   23.8657   69.7632 C   0  0  0  0  0
    2.4846   22.1715   68.8138 C   0  0  0  0  0
    2.8276   20.5299   70.4027 C   0  0  0  0  0
    3.6411   21.5573   70.7223 C   0  0  0  0  0
    4.4884   20.3916   72.5617 C   0  0  0  0  0
    2.8305   19.3807   71.1813 C   0  0  0  0  0
    5.5865   23.6233   69.6428 O   0  0  0  0  0
    2.0849   18.4043   70.9074 O   0  0  0  0  0
    5.5970   21.1936   67.7316 O   0  0  0  0  0
    8.0206   21.9340   68.3730 O   0  0  0  0  0
    6.9001   22.5662   65.9307 O   0  0  0  0  0
    3.4894   22.6054   69.7899 N   0  0  0  0  0
    2.0718   20.8206   69.2359 N   0  0  0  0  0
    4.4801   21.5175   71.7866 N   0  0  0  0  0
    3.6691   19.3354   72.2573 N   0  0  0  0  0
    5.3535   20.3143   73.6878 N   0  0  0  0  0
    6.5826   22.3286   67.5747 P   0  0  0  0  0
  1  2  1  0  0  0
  2  3  1  0  0  0
  3 10  1  0  0  0
  3 20  1  0  0  0
  4 10  1  0  0  0
  4 15  1  0  0  0
  5 15  1  0  0  0
  5 16  1  0  0  0
  7 17  1  0  0  0
  7 15  1  0  0  0
  8 18  1  0  0  0
  8 19  1  0  0  0
  9  6  1  0  0  0
 16  6  1  0  0  0
 18  9  1  0  0  0
 20 13  1  0  0  0
 20 14  1  0  0  0
  6  7  2  0  0  0
  8 17  2  0  0  0
  9 11  2  0  0  0
 20 12  2  0  0  0
M  END
> <rmsd>
0.775200248

$$$$
PubChem-137119843


 20 21  0  0  0  0  0  0  0  0999 V2000
    2.1000   20.3723   64.5832 C   0  0  0  0  0
    1.4609   19.0157   64.8192 C   0  0  0  0  0
    0.8767   18.9420   66.2283 C   0  0  0  0  0
    1.7848   19.5104   67.2877 C   0  0  0  0  0
    2.8962   20.3183   66.9675 C   0  0  0  0  0
    3.2878   20.5217   65.5228 C   0  0  0  0  0
    3.6959   20.8382   68.0125 C   0  0  0  0  0
    3.3367   20.5726   69.3611 C   0  0  0  0  0
    2.2064   19.7687   69.6134 C   0  0  0  0  0
    4.0823   21.1664   70.5007 C   0  0  0  0  0
    4.9242   21.6045   67.6869 C   0  0  0  0  0
    1.8425   19.5178   70.7935 O   0  0  0  0  0
    4.4844   22.3601   70.4419 O   0  0  0  0  0
    4.8797   22.5412   66.8438 O   0  0  0  0  0
    7.2081   21.8999   68.0494 O   0  0  0  0  0
    1.4758   19.2721   68.5852 N   0  0  0  0  0
    4.3307   20.3944   71.6768 N   0  0  0  0  0
    5.0243   20.9371   72.7643 N   0  0  0  0  0
    5.2331   20.2328   73.7988 N   0  0  0  0  0
    6.1638   21.2694   68.3131 N   0  0  0  0  0
  1  2  1  0  0  0
  2  3  1  0  0  0
  3  4  1  0  0  0
  5  7  1  0  0  0
  6  5  1  0  0  0
  6  1  1  0  0  0
  7 11  1  0  0  0
  8  9  1  0  0  0
  8 10  1  0  0  0
  9 16  1  0  0  0
 10 17  1  0  0  0
 11 20  1  0  0  0
 16  4  1  0  0  0
 17 18  1  0  0  0
  4  5  2  0  0  0
  7  8  2  0  0  0
  9 12  2  0  0  0
 10 13  2  0  0  0
 11 14  2  0  0  0
 18 19  2  0  0  0
 20 15  2  0  0  0
M  END
> <rmsd>
0.900372684

$$$$
PubChem-136450513 PubChem-136450514


 19 20  0  0  0  0  0  0  0  0999 V2000
    3.8444   24.7927   70.9440 C   0  0  0  0  0
    4.1071   23.9439   69.7142 C   0  0  0  0  0
    2.3436   22.2509   68.8357 C   0  0  0  0  0
    2.7743   20.5845   70.3764 C   0  0  0  0  0
    3.5717   21.6248   70.6947 C   0  0  0  0  0
    4.5333   20.4238   72.4541 C   0  0  0  0  0
    2.8443   19.4108   71.1140 C   0  0  0  0  0
    5.7613   23.7757   68.2467 C   0  0  0  0  0
    3.3586   22.6959   69.7972 N   0  0  0  0  0
    1.9730   20.8835   69.2431 N   0  0  0  0  0
    4.4605   21.5726   71.7174 N   0  0  0  0  0
    3.7302   19.3550   72.1509 N   0  0  0  0  0
    5.4505   20.3349   73.5373 N   0  0  0  0  0
    2.1169   18.4214   70.8380 O   0  0  0  0  0
    5.4748   23.6765   69.6096 O   0  0  0  0  0
    6.8916   22.3664   66.2134 O   0  0  0  0  0
    5.5417   20.9352   67.9374 O   0  0  0  0  0
    8.0034   22.0211   68.5563 O   0  0  0  0  0
    6.5721   22.2522   67.6860 P   0  0  0  0  0
  1  2  1  0  0  0
  2  9  1  0  0  0
  2 15  1  0  0  0
  3  9  1  0  0  0
  3 10  1  0  0  0
  5 11  1  0  0  0
  5  9  1  0  0  0
  6 12  1  0  0  0
  6 13  1  0  0  0
  7  4  1  0  0  0
  8 15  1  0  0  0
  8 19  1  0  0  0
 10  4  1  0  0  0
 12  7  1  0  0  0
 19 17  1  0  0  0
 19 18  1  0  0  0
  4  5  2  0  0  0
  6 11  2  0  0  0
  7 14  2  0  0  0
 19 16  2  0  0  0
M  END
> <rmsd>
0.786470354

$$$$
PubChem-73969269


 18 17  0  0  0  0  0  0  0  0999 V2000
    1.7493   21.8584   75.2004 C   0  0  0  0  0
    2.6987   22.6263   74.3004 C   0  0  0  0  0
    2.5002   24.1109   74.5206 C   0  0  0  0  0
    4.1403   22.2592   74.6196 C   0  0  0  0  0
    4.4921   20.8751   74.0884 C   0  0  0  0  0
    4.6218   20.8861   72.6001 C   0  0  0  0  0
    3.8037   20.0353   70.3624 C   0  0  0  0  0
    5.0149   19.2145   69.9286 C   0  0  0  0  0
    5.3701   19.4810   68.4716 C   0  0  0  0  0
    5.9859   20.8300   68.3081 C   0  0  0  0  0
    2.5414   19.4510   69.8163 C   0  0  0  0  0
    5.5058   21.5945   72.0449 O   0  0  0  0  0
    7.0894   21.0947   68.8532 O   0  0  0  0  0
    5.3448   21.7929   67.5411 O   0  0  0  0  0
    2.1848   18.2852   70.1342 O   0  0  0  0  0
    5.6882   20.4447   74.6623 O   0  0  0  0  0
    3.7320   20.0900   71.8156 N   0  0  0  0  0
    1.7345   20.2203   68.9332 N   0  0  0  0  0
  1  2  1  0  0  0
  2  3  1  0  0  0
  2  4  1  0  0  0
  5  4  1  0  0  0
  5  6  1  0  0  0
  5 16  1  0  0  0
  6 17  1  0  0  0
  7 17  1  0  0  0
  7  8  1  0  0  0
  7 11  1  0  0  0
  8  9  1  0  0  0
  9 10  1  0  0  0
 10 14  1  0  0  0
 11 18  1  0  0  0
  6 12  2  0  0  0
 10 13  2  0  0  0
 11 15  2  0  0  0
M  END
> <rmsd>
0.664702535

$$$$
PubChem-118521256


 25 28  0  0  0  0  0  0  0  0999 V2000
   -2.2552   16.9154   74.1900 C   0  0  0  0  0
   -1.4353   16.7289   72.9207 C   0  0  0  0  0
   -0.4537   17.8791   72.6748 C   0  0  0  0  0
   -1.1962   19.2131   72.5234 C   0  0  0  0  0
   -0.1839   20.3342   72.2143 C   0  0  0  0  0
    1.5310   18.9182   73.0682 C   0  0  0  0  0
    0.5372   18.0775   73.8092 C   0  0  0  0  0
    1.5744   18.1791   71.7242 C   0  0  0  0  0
    1.2733   19.2959   69.3762 C   0  0  0  0  0
    3.3600   20.2743   69.3466 C   0  0  0  0  0
    3.2554   19.6753   70.4959 C   0  0  0  0  0
    5.5238   20.4461   71.2608 C   0  0  0  0  0
    4.6226   20.8749   68.9315 C   0  0  0  0  0
    1.0220   20.2513   72.9751 O   0  0  0  0  0
    1.1244   16.8660   74.1928 O   0  0  0  0  0
    0.2892   17.6330   71.4937 O   0  0  0  0  0
    4.7495   21.3895   67.7886 O   0  0  0  0  0
    1.9990   19.0394   70.6216 N   0  0  0  0  0
    2.1860   20.1081   68.5625 N   0  0  0  0  0
    4.3405   19.5878   71.4216 N   0  0  0  0  0
    5.7269   20.8294   69.8526 N   0  0  0  0  0
    6.9860   21.2956   69.4527 N   0  0  0  0  0
    5.3698   21.6491   72.0719 N   0  0  0  0  0
    5.4241   21.6367   73.3455 N   0  0  0  0  0
    5.6465   20.4536   74.0630 N   0  0  0  0  0
  1  2  1  0  0  0
  3  2  1  0  0  0
  3  4  1  0  0  0
  3 16  1  0  0  0
  4  5  1  0  0  0
  5 14  1  0  0  0
  6 14  1  0  0  0
  6  7  1  0  0  0
  6  8  1  0  0  0
  7 15  1  0  0  0
  7  3  1  0  0  0
  8 16  1  0  0  0
  8 18  1  0  0  0
  9 18  1  0  0  0
  9 19  1  0  0  0
 11 20  1  0  0  0
 11 18  1  0  0  0
 12 20  1  0  0  0
 12 21  1  0  0  0
 12 23  1  0  0  0
 13 10  1  0  0  0
 19 10  1  0  0  0
 21 13  1  0  0  0
 21 22  1  0  0  0
 25 24  1  0  0  0
 10 11  2  0  0  0
 13 17  2  0  0  0
 23 24  2  0  0  0
M  END
> <rmsd>
0.614519477

$$$$
PubChem-139728517


 30 31  0  0  0  0  0  0  0  0999 V2000
    5.7491   20.3984   74.6386 N   0  0  0  0  0
    3.7088   20.1164   71.8076 N   0  0  0  0  0
    1.7150   20.1860   68.9193 N   0  0  0  0  0
    8.7706   20.1246   76.8920 N   0  0  0  0  0
    4.5043   20.8965   74.0685 C   0  0  0  0  0
    4.1882   22.2754   74.6199 C   0  0  0  0  0
    4.5951   20.9292   72.5785 C   0  0  0  0  0
    3.7824   20.0399   70.3556 C   0  0  0  0  0
    4.9994   19.2199   69.9374 C   0  0  0  0  0
    5.3717   19.4870   68.4851 C   0  0  0  0  0
    5.9997   20.8316   68.3325 C   0  0  0  0  0
    2.5255   19.4374   69.8168 C   0  0  0  0  0
    5.8245   19.0917   75.2220 C   0  0  0  0  0
    7.1594   18.5504   75.6743 C   0  0  0  0  0
    7.6018   19.3052   76.9116 C   0  0  0  0  0
    9.5691   20.2262   75.7192 C   0  0  0  0  0
    9.2194   19.4930   74.5799 C   0  0  0  0  0
   10.0066   19.5813   73.4276 C   0  0  0  0  0
   11.1386   20.4025   73.4138 C   0  0  0  0  0
   11.4851   21.1357   74.5532 C   0  0  0  0  0
   10.7007   21.0468   75.7073 C   0  0  0  0  0
   12.6876   22.0084   74.5379 C   0  0  0  0  0
    7.0600   17.0701   76.0235 C   0  0  0  0  0
    5.4542   21.6570   72.0091 O   0  0  0  0  0
    7.0994   21.0861   68.8902 O   0  0  0  0  0
    5.3740   21.8020   67.5621 O   0  0  0  0  0
    2.1765   18.2747   70.1534 O   0  0  0  0  0
    4.7698   18.4161   75.3821 O   0  0  0  0  0
    6.9226   19.2321   77.9709 O   0  0  0  0  0
    8.0875   18.6707   74.5848 O   0  0  0  0  0
  1 13  1  0  0  0
  4 16  1  0  0  0
  5  1  1  0  0  0
  5  6  1  0  0  0
  5  7  1  0  0  0
  7  2  1  0  0  0
  8  2  1  0  0  0
  8  9  1  0  0  0
  8 12  1  0  0  0
  9 10  1  0  0  0
 10 11  1  0  0  0
 11 26  1  0  0  0
 12  3  1  0  0  0
 14 13  1  0  0  0
 14 15  1  0  0  0
 14 23  1  0  0  0
 14 30  1  0  0  0
 15  4  1  0  0  0
 17 30  1  0  0  0
 17 18  1  0  0  0
 19 20  1  0  0  0
 21 16  1  0  0  0
 22 20  1  0  0  0
  7 24  2  0  0  0
 11 25  2  0  0  0
 12 27  2  0  0  0
 13 28  2  0  0  0
 15 29  2  0  0  0
 16 17  2  0  0  0
 18 19  2  0  0  0
 20 21  2  0  0  0
M  END
> <rmsd>
0.656711459

$$$$
PubChem-123878277


 21 22  0  0  0  0  0  0  0  0999 V2000
    8.8600   22.7289   74.0192 C   0  0  0  0  0
    7.6022   23.1843   73.2933 C   0  0  0  0  0
    6.7988   22.0134   72.7249 C   0  0  0  0  0
    7.6147   21.2655   71.6543 C   0  0  0  0  0
    7.8863   22.1010   70.4023 C   0  0  0  0  0
    6.6198   22.0892   68.5706 C   0  0  0  0  0
    4.6225   21.8057   69.5005 C   0  0  0  0  0
    3.1603   21.9107   69.0648 C   0  0  0  0  0
    2.5065   20.5390   68.9334 C   0  0  0  0  0
    2.5964   19.7791   70.2570 C   0  0  0  0  0
    4.0635   19.5862   70.6412 C   0  0  0  0  0
    4.8048   20.9244   70.7492 C   0  0  0  0  0
    5.4955   22.5810   72.1394 C   0  0  0  0  0
    9.3457   22.5113   70.3744 C   0  0  0  0  0
    7.5886   21.3485   69.2604 O   0  0  0  0  0
    5.4367   21.3457   68.4597 O   0  0  0  0  0
    4.4941   21.6077   71.9389 O   0  0  0  0  0
    1.9828   18.5314   70.1217 O   0  0  0  0  0
    6.4855   21.1276   73.7593 O   0  0  0  0  0
    4.1731   18.8461   71.8886 N   0  0  0  0  0
    1.1150   20.7128   68.5543 N   0  0  0  0  0
  1  2  1  0  0  0
  2  3  1  0  0  0
  3  4  1  0  0  0
  3 19  1  0  0  0
  4  5  1  0  0  0
  5 15  1  0  0  0
  5 14  1  0  0  0
  6 15  1  0  0  0
  6 16  1  0  0  0
  7 16  1  0  0  0
  7  8  1  0  0  0
  8  9  1  0  0  0
  9 10  1  0  0  0
  9 21  1  0  0  0
 10 11  1  0  0  0
 10 18  1  0  0  0
 11 12  1  0  0  0
 11 20  1  0  0  0
 12 17  1  0  0  0
 12  7  1  0  0  0
 13 17  1  0  0  0
 13  3  1  0  0  0
M  END
> <rmsd>
0.697848737

$$$$
