PubChem-78076203


 39 43  0  0  0  0  0  0  0  0999 V2000
   -8.2815   22.7251   63.9279 C   0  0  0  0  0
   -7.8034   24.0530   64.4263 C   0  0  0  0  0
   -7.1343   24.1459   65.6623 C   0  0  0  0  0
   -6.9495   22.9096   66.5264 C   0  0  0  0  0
   -6.0807   23.1585   67.7662 C   0  0  0  0  0
   -4.5899   23.0157   67.3852 C   0  0  0  0  0
   -4.4387   25.3804   67.0726 C   0  0  0  0  0
   -3.6893   26.6359   67.4630 C   0  0  0  0  0
   -2.2896   26.5244   66.9485 C   0  0  0  0  0
   -1.7010   25.3171   66.8278 C   0  0  0  0  0
   -2.4109   24.0406   67.2813 C   0  0  0  0  0
   -1.6122   23.4188   68.4201 C   0  0  0  0  0
   -0.1580   21.4023   68.8203 C   0  0  0  0  0
    0.4616   20.1537   68.2879 C   0  0  0  0  0
   -0.1256   18.9372   68.9766 C   0  0  0  0  0
   -0.3605   25.2213   66.1926 C   0  0  0  0  0
    0.3748   26.4581   65.7951 C   0  0  0  0  0
   -0.2233   27.6521   65.9449 C   0  0  0  0  0
   -1.5871   27.7455   66.5056 C   0  0  0  0  0
    0.4867   28.9062   65.5442 C   0  0  0  0  0
    2.4576   25.2488   65.1191 C   0  0  0  0  0
   -5.9370   25.5261   67.4081 C   0  0  0  0  0
   -6.7003   25.4097   66.1203 C   0  0  0  0  0
   -6.9281   26.5490   65.3517 C   0  0  0  0  0
   -7.5896   26.4610   64.1277 C   0  0  0  0  0
   -8.0336   25.2051   63.6482 C   0  0  0  0  0
   -9.0079   26.1011   61.5184 C   0  0  0  0  0
   -5.8637   24.6464   69.6622 C   0  0  0  0  0
   -3.8133   24.2213   67.7280 N   0  0  0  0  0
   -0.9775   22.1942   67.9621 N   0  0  0  0  0
    1.9000   20.1841   68.4873 N   0  0  0  0  0
   -6.4151   24.4786   68.3217 N   0  0  0  0  0
    0.0341   21.7475   70.0186 O   0  0  0  0  0
    0.1354   24.0853   65.9682 O   0  0  0  0  0
   -2.1504   28.8691   66.6096 O   0  0  0  0  0
    1.6753   26.4253   65.2621 O   0  0  0  0  0
   -8.7031   25.0478   62.4213 O   0  0  0  0  0
   -7.7910   27.6313   63.4068 O   0  0  0  0  0
   -4.0774   21.8954   68.0437 O   0  0  0  0  0
  1  2  1  0  0  0
  4  3  1  0  0  0
  4  5  1  0  0  0
  5  6  1  0  0  0
  5 32  1  0  0  0
  6 29  1  0  0  0
  6 39  1  0  0  0
  7 29  1  0  0  0
  7  8  1  0  0  0
  7 22  1  0  0  0
  8  9  1  0  0  0
 10 16  1  0  0  0
 11 10  1  0  0  0
 11 12  1  0  0  0
 11 29  1  0  0  0
 12 30  1  0  0  0
 14 13  1  0  0  0
 14 15  1  0  0  0
 14 31  1  0  0  0
 16 17  1  0  0  0
 17 36  1  0  0  0
 18 19  1  0  0  0
 19  9  1  0  0  0
 20 18  1  0  0  0
 21 36  1  0  0  0
 22 23  1  0  0  0
 22 32  1  0  0  0
 23  3  1  0  0  0
 24 25  1  0  0  0
 25 38  1  0  0  0
 26 37  1  0  0  0
 26  2  1  0  0  0
 27 37  1  0  0  0
 28 32  1  0  0  0
 30 13  1  0  0  0
  2  3  2  0  0  0
  9 10  2  0  0  0
 13 33  2  0  0  0
 16 34  2  0  0  0
 17 18  2  0  0  0
 19 35  2  0  0  0
 23 24  2  0  0  0
 25 26  2  0  0  0
M  END
> <rmsd>
0.369249851

$$$$
PubChem-20622314


 18 17  0  0  0  0  0  0  0  0999 V2000
   -2.1831   26.2950   67.4488 C   0  0  0  0  0
   -1.7591   24.8770   67.1138 C   0  0  0  0  0
   -2.9800   23.9966   66.9122 C   0  0  0  0  0
   -2.8047   21.7537   69.2399 C   0  0  0  0  0
   -3.2126   20.3185   69.5086 C   0  0  0  0  0
   -1.3374   21.8252   68.9672 C   0  0  0  0  0
    0.6312   21.2304   67.4969 C   0  0  0  0  0
    0.8416   20.7857   66.0635 C   0  0  0  0  0
    2.5535   21.0253   68.8099 C   0  0  0  0  0
   -0.8938   24.8604   65.8990 C   0  0  0  0  0
   -0.5981   25.2952   63.4330 C   0  0  0  0  0
   -3.4993   23.6208   68.1532 O   0  0  0  0  0
   -0.5922   22.4590   69.7609 O   0  0  0  0  0
    0.2913   24.4449   65.9949 O   0  0  0  0  0
   -3.5562   22.2673   68.1030 N   0  0  0  0  0
   -0.7902   21.1980   67.8038 N   0  0  0  0  0
    1.3451   20.3358   68.3932 N   0  0  0  0  0
   -1.4054   25.3046   64.6406 N   0  0  0  0  0
  2  1  1  0  0  0
  2  3  1  0  0  0
  2 10  1  0  0  0
  3 12  1  0  0  0
  4 15  1  0  0  0
  4  5  1  0  0  0
  4  6  1  0  0  0
  6 16  1  0  0  0
  7 16  1  0  0  0
  7  8  1  0  0  0
  7 17  1  0  0  0
  9 17  1  0  0  0
 10 18  1  0  0  0
 11 18  1  0  0  0
 15 12  1  0  0  0
  6 13  2  0  0  0
 10 14  2  0  0  0
M  END
> <rmsd>
0.580630898

$$$$
PubChem-87753627


 26 27  0  0  0  0  0  0  0  0999 V2000
    1.8202   28.6923   66.0967 C   0  0  0  0  0
    1.2682   28.7390   67.3797 C   0  0  0  0  0
    0.5636   27.6391   67.8783 C   0  0  0  0  0
    0.4057   26.4867   67.1001 C   0  0  0  0  0
    0.9627   26.4469   65.8123 C   0  0  0  0  0
    1.6675   27.5458   65.3126 C   0  0  0  0  0
   -0.5852   24.1249   67.0065 C   0  0  0  0  0
   -1.3866   23.0951   67.7360 C   0  0  0  0  0
   -2.7208   22.8308   67.0375 C   0  0  0  0  0
   -0.2019   21.3376   69.1038 C   0  0  0  0  0
    0.5557   20.0513   69.1692 C   0  0  0  0  0
   -0.2412   18.9098   68.5502 C   0  0  0  0  0
   -1.4020   18.5336   69.4095 C   0  0  0  0  0
   -2.7219   18.6260   69.0426 C   0  0  0  0  0
   -2.5691   17.8495   71.0386 C   0  0  0  0  0
   -0.3241   25.3802   67.6466 N   0  0  0  0  0
   -3.5352   24.0374   67.0114 N   0  0  0  0  0
   -0.6193   21.8622   67.8414 N   0  0  0  0  0
   -3.4576   18.1916   70.0818 N   0  0  0  0  0
   -1.2917   18.0465   70.6562 N   0  0  0  0  0
    1.8219   20.1929   68.4726 N   0  0  0  0  0
   -0.1599   23.8840   65.8440 O   0  0  0  0  0
   -3.8695   24.5346   65.9177 O   0  0  0  0  0
   -3.9507   24.6242   68.1843 O   0  0  0  0  0
   -3.4171   21.8161   67.6976 O   0  0  0  0  0
   -0.4720   21.9508   70.1707 O   0  0  0  0  0
  2  3  1  0  0  0
  4  5  1  0  0  0
  4 16  1  0  0  0
  6  1  1  0  0  0
  8  7  1  0  0  0
  8  9  1  0  0  0
  8 18  1  0  0  0
  9 17  1  0  0  0
  9 25  1  0  0  0
 11 10  1  0  0  0
 11 12  1  0  0  0
 11 21  1  0  0  0
 12 13  1  0  0  0
 14 19  1  0  0  0
 15 20  1  0  0  0
 16  7  1  0  0  0
 17 24  1  0  0  0
 18 10  1  0  0  0
 20 13  1  0  0  0
  1  2  2  0  0  0
  3  4  2  0  0  0
  5  6  2  0  0  0
  7 22  2  0  0  0
 10 26  2  0  0  0
 13 14  2  0  0  0
 15 19  2  0  0  0
 17 23  2  0  0  0
M  CHG  2  17   1  24  -1
M  END
> <rmsd>
0.507354975

$$$$
PubChem-87753627


 26 27  0  0  0  0  0  0  0  0999 V2000
    1.8211   28.8036   66.4685 C   0  0  0  0  0
    1.3871   28.7777   67.7966 C   0  0  0  0  0
    0.6890   27.6680   68.2827 C   0  0  0  0  0
    0.4201   26.5783   67.4468 C   0  0  0  0  0
    0.8588   26.6112   66.1140 C   0  0  0  0  0
    1.5569   27.7200   65.6267 C   0  0  0  0  0
   -0.6624   24.2606   67.2863 C   0  0  0  0  0
   -1.4336   23.2077   68.0152 C   0  0  0  0  0
   -2.8334   23.0344   67.4249 C   0  0  0  0  0
   -0.1986   21.3231   69.1491 C   0  0  0  0  0
    0.5136   20.0125   69.0592 C   0  0  0  0  0
   -0.3769   18.9422   68.4404 C   0  0  0  0  0
   -1.4703   18.5431   69.3747 C   0  0  0  0  0
   -2.8131   18.7018   69.1364 C   0  0  0  0  0
   -2.5130   17.7834   71.0539 C   0  0  0  0  0
   -0.2991   25.4594   67.9824 N   0  0  0  0  0
   -3.6015   24.2645   67.5536 N   0  0  0  0  0
   -0.7064   21.9473   67.9678 N   0  0  0  0  0
   -3.4694   18.2189   70.2068 N   0  0  0  0  0
   -1.2680   17.9669   70.5708 N   0  0  0  0  0
    1.7173   20.1630   68.2613 N   0  0  0  0  0
   -0.3510   24.0885   66.0764 O   0  0  0  0  0
   -4.0127   24.8471   66.5305 O   0  0  0  0  0
   -3.8894   24.7806   68.7960 O   0  0  0  0  0
   -3.5057   21.9982   68.0764 O   0  0  0  0  0
   -0.3500   21.8683   70.2747 O   0  0  0  0  0
  2  3  1  0  0  0
  4  5  1  0  0  0
  4 16  1  0  0  0
  6  1  1  0  0  0
  8  7  1  0  0  0
  8  9  1  0  0  0
  8 18  1  0  0  0
  9 17  1  0  0  0
  9 25  1  0  0  0
 11 10  1  0  0  0
 11 12  1  0  0  0
 11 21  1  0  0  0
 12 13  1  0  0  0
 14 19  1  0  0  0
 15 20  1  0  0  0
 16  7  1  0  0  0
 17 24  1  0  0  0
 18 10  1  0  0  0
 20 13  1  0  0  0
  1  2  2  0  0  0
  3  4  2  0  0  0
  5  6  2  0  0  0
  7 22  2  0  0  0
 10 26  2  0  0  0
 13 14  2  0  0  0
 15 19  2  0  0  0
 17 23  2  0  0  0
M  CHG  2  17   1  24  -1
M  END
> <rmsd>
0.44567588

$$$$
PubChem-92239070 4900918 ZINC000004900918


 27 28  0  0  0  0  0  0  0  0999 V2000
    1.3066   18.1373   65.1749 C   0  0  0  0  0
    1.4264   20.2567   65.7930 C   0  0  0  0  0
    1.8106   20.8434   67.1566 C   0  0  0  0  0
    0.9095   22.0374   67.4785 C   0  0  0  0  0
    0.9055   23.0064   66.2917 C   0  0  0  0  0
    0.6812   22.2805   64.9521 C   0  0  0  0  0
   -0.7680   21.8492   64.7135 C   0  0  0  0  0
   -1.0678   21.8652   69.0387 C   0  0  0  0  0
   -2.4937   21.4880   69.2561 C   0  0  0  0  0
   -3.5549   23.6145   68.3974 C   0  0  0  0  0
   -3.0183   25.7699   69.4824 C   0  0  0  0  0
   -1.9296   26.3355   68.6359 C   0  0  0  0  0
   -0.6119   26.3480   69.1065 C   0  0  0  0  0
    0.4123   26.8638   68.3063 C   0  0  0  0  0
    0.1205   27.3634   67.0333 C   0  0  0  0  0
   -1.1951   27.3453   66.5594 C   0  0  0  0  0
   -2.2194   26.8297   67.3596 C   0  0  0  0  0
    2.2162   19.1395   65.5144 O   0  0  0  0  0
    1.6028   21.2193   64.7723 O   0  0  0  0  0
   -0.9198   21.4061   63.4000 O   0  0  0  0  0
   -0.0261   24.0309   66.4763 O   0  0  0  0  0
   -0.4281   22.4402   69.9590 O   0  0  0  0  0
   -4.2517   24.1868   67.5171 O   0  0  0  0  0
   -2.9828   24.3489   69.4405 O   0  0  0  0  0
    1.7066   19.8730   68.1562 O   0  0  0  0  0
   -0.4470   21.5933   67.7826 N   0  0  0  0  0
   -3.3521   22.2032   68.3217 N   0  0  0  0  0
  1 18  1  0  0  0
  2 18  1  0  0  0
  2  3  1  0  0  0
  2 19  1  0  0  0
  3  4  1  0  0  0
  3 25  1  0  0  0
  4  5  1  0  0  0
  4 26  1  0  0  0
  5  6  1  0  0  0
  5 21  1  0  0  0
  6 19  1  0  0  0
  6  7  1  0  0  0
  7 20  1  0  0  0
  9  8  1  0  0  0
  9 27  1  0  0  0
 10 24  1  0  0  0
 11 24  1  0  0  0
 11 12  1  0  0  0
 13 14  1  0  0  0
 15 16  1  0  0  0
 17 12  1  0  0  0
 26  8  1  0  0  0
 27 10  1  0  0  0
  8 22  2  0  0  0
 10 23  2  0  0  0
 12 13  2  0  0  0
 14 15  2  0  0  0
 16 17  2  0  0  0
M  END
> <rmsd>
0.554666281

$$$$
PubChem-67908940


 30 32  0  0  0  0  0  0  0  0999 V2000
   -3.0155   21.0351   70.4487 C   0  0  0  0  0
   -2.6129   21.1521   68.9797 C   0  0  0  0  0
   -2.7825   19.7869   68.3028 C   0  0  0  0  0
   -4.2114   19.3739   68.1139 C   0  0  0  0  0
   -5.1200   19.0035   69.1033 C   0  0  0  0  0
   -6.1337   18.8245   67.2242 C   0  0  0  0  0
   -4.8738   19.2487   66.9212 C   0  0  0  0  0
   -4.4788   19.4761   65.6063 C   0  0  0  0  0
   -5.4364   19.2465   64.6033 C   0  0  0  0  0
   -6.7335   18.8085   64.9550 C   0  0  0  0  0
   -1.1658   21.5505   68.8370 C   0  0  0  0  0
    0.7762   22.0445   67.2644 C   0  0  0  0  0
    1.6168   20.7739   67.2801 C   0  0  0  0  0
    0.9307   22.7701   65.9228 C   0  0  0  0  0
    0.4165   21.9941   64.7416 C   0  0  0  0  0
    1.3261   21.5037   63.7977 C   0  0  0  0  0
    0.8689   20.7957   62.6826 C   0  0  0  0  0
   -0.5007   20.5796   62.5046 C   0  0  0  0  0
   -1.4148   21.0722   63.4405 C   0  0  0  0  0
   -0.9579   21.7783   64.5558 C   0  0  0  0  0
   -3.5420   23.5267   68.6586 C   0  0  0  0  0
   -6.3139   18.6680   68.5481 N   0  0  0  0  0
   -7.0664   18.6017   66.2652 N   0  0  0  0  0
   -0.6249   21.7361   67.5262 N   0  0  0  0  0
   -3.4617   22.1406   68.3093 N   0  0  0  0  0
   -0.4373   21.7289   69.8525 O   0  0  0  0  0
    1.7917   20.3280   68.5898 O   0  0  0  0  0
    0.3290   24.0297   65.9776 O   0  0  0  0  0
   -2.8451   23.9976   69.5970 O   0  0  0  0  0
   -4.3957   24.3623   67.9519 O   0  0  0  0  0
  2  1  1  0  0  0
  2  3  1  0  0  0
  2 11  1  0  0  0
  2 25  1  0  0  0
  3  4  1  0  0  0
  5 22  1  0  0  0
  6 23  1  0  0  0
  7  8  1  0  0  0
  7  4  1  0  0  0
  9 10  1  0  0  0
 11 24  1  0  0  0
 12 24  1  0  0  0
 12 13  1  0  0  0
 12 14  1  0  0  0
 13 27  1  0  0  0
 14 15  1  0  0  0
 14 28  1  0  0  0
 16 17  1  0  0  0
 18 19  1  0  0  0
 20 15  1  0  0  0
 21 30  1  0  0  0
 22  6  1  0  0  0
 25 21  1  0  0  0
  4  5  2  0  0  0
  6  7  2  0  0  0
  8  9  2  0  0  0
 10 23  2  0  0  0
 11 26  2  0  0  0
 15 16  2  0  0  0
 17 18  2  0  0  0
 19 20  2  0  0  0
 21 29  2  0  0  0
M  END
> <rmsd>
0.438608557

$$$$
PubChem-88988842


 32 34  0  0  0  0  0  0  0  0999 V2000
   -0.3851   21.3092   72.7769 C   0  0  0  0  0
   -1.4758   20.3925   72.3205 C   0  0  0  0  0
   -2.5576   20.1646   73.0903 C   0  0  0  0  0
   -2.7033   20.8511   74.4168 C   0  0  0  0  0
   -3.6101   19.2290   72.6445 C   0  0  0  0  0
   -4.6956   18.9719   73.3640 C   0  0  0  0  0
   -1.3062   19.7174   70.9844 C   0  0  0  0  0
   -1.6662   20.6128   69.7865 C   0  0  0  0  0
   -3.1305   21.0561   69.8750 C   0  0  0  0  0
   -2.6573   23.0748   68.7130 C   0  0  0  0  0
   -1.1755   22.6942   68.5879 C   0  0  0  0  0
    0.6514   21.4530   69.6055 C   0  0  0  0  0
    0.9659   20.3466   68.5976 C   0  0  0  0  0
    2.4958   18.8926   69.6001 C   0  0  0  0  0
    3.9496   18.4641   69.7183 C   0  0  0  0  0
    4.1478   17.5910   70.9608 C   0  0  0  0  0
    3.6934   16.1607   70.7004 C   0  0  0  0  0
    4.5253   15.5440   69.5586 C   0  0  0  0  0
    4.6742   16.4714   68.3765 C   0  0  0  0  0
    4.4056   17.7839   68.4484 C   0  0  0  0  0
    2.6157   14.2503   68.8336 C   0  0  0  0  0
    4.2599   13.2696   70.2013 C   0  0  0  0  0
   -1.0076   23.1485   66.2394 C   0  0  0  0  0
   -3.0416   23.9272   67.5464 C   0  0  0  0  0
   -3.4863   21.8699   68.7180 N   0  0  0  0  0
   -0.7809   21.7909   69.6853 N   0  0  0  0  0
    2.3749   20.0022   68.6679 N   0  0  0  0  0
    4.0453   14.2239   69.1247 N   0  0  0  0  0
   -0.9306   22.1039   67.2678 N   0  0  0  0  0
   -2.2106   23.9720   66.3821 N   0  0  0  0  0
   -4.1026   24.6028   67.5845 O   0  0  0  0  0
    0.1296   23.9566   66.2845 O   0  0  0  0  0
  1  2  1  0  0  0
  3  5  1  0  0  0
  4  3  1  0  0  0
  7  2  1  0  0  0
  8  7  1  0  0  0
  8  9  1  0  0  0
  8 26  1  0  0  0
  9 25  1  0  0  0
 10 25  1  0  0  0
 10 11  1  0  0  0
 10 24  1  0  0  0
 11 26  1  0  0  0
 11 29  1  0  0  0
 12 26  1  0  0  0
 12 13  1  0  0  0
 13 27  1  0  0  0
 14 27  1  0  0  0
 15 14  1  0  0  0
 15 16  1  0  0  0
 15 20  1  0  0  0
 16 17  1  0  0  0
 17 18  1  0  0  0
 18 19  1  0  0  0
 18 28  1  0  0  0
 21 28  1  0  0  0
 22 28  1  0  0  0
 23 29  1  0  0  0
 23 30  1  0  0  0
 23 32  1  0  0  0
 30 24  1  0  0  0
  2  3  2  0  0  0
  5  6  2  0  0  0
 19 20  2  0  0  0
 24 31  2  0  0  0
M  END
> <rmsd>
0.547768056

$$$$
PubChem-9928275


 25 25  0  0  0  0  0  0  0  0999 V2000
   -2.1609   19.0988   68.8815 C   0  0  0  0  0
   -2.7068   20.0936   69.8973 C   0  0  0  0  0
   -4.1117   19.6626   70.2970 C   0  0  0  0  0
   -2.6586   21.5483   69.3809 C   0  0  0  0  0
   -3.1813   22.4810   70.4724 C   0  0  0  0  0
   -1.2243   21.9214   69.0723 C   0  0  0  0  0
    0.5465   22.3079   67.2759 C   0  0  0  0  0
    1.5029   21.4408   67.6286 C   0  0  0  0  0
    0.8647   23.3857   66.3245 C   0  0  0  0  0
   -3.7833   22.8883   67.4843 C   0  0  0  0  0
   -4.8980   24.0141   65.6025 C   0  0  0  0  0
   -5.7632   23.6571   64.4468 C   0  0  0  0  0
   -5.1848   23.2876   63.2276 C   0  0  0  0  0
   -5.9977   22.9279   62.1481 C   0  0  0  0  0
   -7.3890   22.9314   62.2889 C   0  0  0  0  0
   -7.9676   23.2923   63.5098 C   0  0  0  0  0
   -7.1549   23.6522   64.5895 C   0  0  0  0  0
   -0.3902   22.0210   70.0144 O   0  0  0  0  0
   -0.0390   24.1785   65.9494 O   0  0  0  0  0
   -3.2963   23.9825   67.8819 O   0  0  0  0  0
   -4.5938   22.8459   66.3507 O   0  0  0  0  0
   -0.8112   22.1641   67.7201 N   0  0  0  0  0
    1.2447   20.3104   68.4564 N   0  0  0  0  0
    2.1881   23.5491   65.8205 N   0  0  0  0  0
   -3.5071   21.6709   68.1884 N   0  0  0  0  0
  1  2  1  0  0  0
  2  3  1  0  0  0
  4  2  1  0  0  0
  4  5  1  0  0  0
  4  6  1  0  0  0
  4 25  1  0  0  0
  6 22  1  0  0  0
  7  9  1  0  0  0
  8 23  1  0  0  0
  9 24  1  0  0  0
 10 21  1  0  0  0
 11 21  1  0  0  0
 11 12  1  0  0  0
 13 14  1  0  0  0
 15 16  1  0  0  0
 17 12  1  0  0  0
 22  7  1  0  0  0
 25 10  1  0  0  0
  6 18  2  0  0  0
  7  8  2  0  0  0
  9 19  2  0  0  0
 10 20  2  0  0  0
 12 13  2  0  0  0
 14 15  2  0  0  0
 16 17  2  0  0  0
M  END
> <rmsd>
0.443060577

$$$$
PubChem-117759384


 21 20  0  0  0  0  0  0  0  0999 V2000
   -3.9666   24.8196   65.8469 C   0  0  0  0  0
   -3.5686   24.1487   67.1156 C   0  0  0  0  0
   -2.7412   22.8994   67.0664 C   0  0  0  0  0
   -1.3878   23.0956   67.7558 C   0  0  0  0  0
   -0.5420   24.0998   67.0382 C   0  0  0  0  0
   -0.2139   21.3020   69.0834 C   0  0  0  0  0
    0.5455   20.0202   69.1078 C   0  0  0  0  0
    2.9193   20.9058   69.1630 C   0  0  0  0  0
    5.2720   21.7604   69.0307 C   0  0  0  0  0
    4.9292   23.2132   69.3128 C   0  0  0  0  0
    5.7599   21.0901   70.3034 C   0  0  0  0  0
    6.3901   21.7220   68.0107 C   0  0  0  0  0
   -3.9222   24.6179   68.1861 O   0  0  0  0  0
   -0.1897   23.9044   65.8446 O   0  0  0  0  0
   -0.1384   25.2533   67.6963 O   0  0  0  0  0
   -0.4312   21.9181   70.1605 O   0  0  0  0  0
    2.7504   21.3708   70.3238 O   0  0  0  0  0
    4.1408   21.0686   68.4959 O   0  0  0  0  0
   -3.4450   21.8548   67.6706 O   0  0  0  0  0
   -0.6721   21.8301   67.8385 N   0  0  0  0  0
    1.8614   20.2013   68.5102 N   0  0  0  0  0
  1  2  1  0  0  0
  3  2  1  0  0  0
  3  4  1  0  0  0
  3 19  1  0  0  0
  4  5  1  0  0  0
  4 20  1  0  0  0
  5 15  1  0  0  0
  7  6  1  0  0  0
  7 21  1  0  0  0
  8 18  1  0  0  0
  9 18  1  0  0  0
  9 10  1  0  0  0
  9 11  1  0  0  0
  9 12  1  0  0  0
 20  6  1  0  0  0
 21  8  1  0  0  0
  2 13  2  0  0  0
  5 14  2  0  0  0
  6 16  2  0  0  0
  8 17  2  0  0  0
M  END
> <rmsd>
0.490670204

$$$$
PubChem-117759384


 21 20  0  0  0  0  0  0  0  0999 V2000
   -4.3538   23.8482   65.4511 C   0  0  0  0  0
   -3.7175   23.6507   66.7831 C   0  0  0  0  0
   -2.9760   22.3795   67.0699 C   0  0  0  0  0
   -1.4974   22.6475   67.3656 C   0  0  0  0  0
   -0.7862   23.2015   66.1715 C   0  0  0  0  0
   -0.1406   21.3417   69.0425 C   0  0  0  0  0
    0.5493   20.0764   69.4210 C   0  0  0  0  0
    2.9139   20.6178   68.6876 C   0  0  0  0  0
    5.2155   21.0638   67.8009 C   0  0  0  0  0
    5.0062   22.5483   67.5557 C   0  0  0  0  0
    5.9403   20.8571   69.1197 C   0  0  0  0  0
    6.0808   20.5124   66.6877 C   0  0  0  0  0
   -3.8078   24.5226   67.6332 O   0  0  0  0  0
   -0.7122   22.5364   65.1043 O   0  0  0  0  0
   -0.1986   24.4571   66.2436 O   0  0  0  0  0
   -0.0902   22.3345   69.8163 O   0  0  0  0  0
    3.0232   21.4963   69.5867 O   0  0  0  0  0
    3.9659   20.3693   67.7959 O   0  0  0  0  0
   -3.5754   21.7287   68.1509 O   0  0  0  0  0
   -0.8366   21.4241   67.7985 N   0  0  0  0  0
    1.7092   19.8588   68.5674 N   0  0  0  0  0
  1  2  1  0  0  0
  3  2  1  0  0  0
  3  4  1  0  0  0
  3 19  1  0  0  0
  4  5  1  0  0  0
  4 20  1  0  0  0
  5 15  1  0  0  0
  7  6  1  0  0  0
  7 21  1  0  0  0
  8 18  1  0  0  0
  9 18  1  0  0  0
  9 10  1  0  0  0
  9 11  1  0  0  0
  9 12  1  0  0  0
 20  6  1  0  0  0
 21  8  1  0  0  0
  2 13  2  0  0  0
  5 14  2  0  0  0
  6 16  2  0  0  0
  8 17  2  0  0  0
M  END
> <rmsd>
0.36269486

$$$$
PubChem-123549971


 33 36  0  0  0  0  0  0  0  0999 V2000
    3.3525   27.2823   67.5605 C   0  0  0  0  0
    2.6601   25.9641   67.5567 C   0  0  0  0  0
    1.5754   25.7398   66.7055 C   0  0  0  0  0
    0.9071   24.4927   66.6756 C   0  0  0  0  0
    1.3052   23.4396   67.5598 C   0  0  0  0  0
    2.4508   23.6973   68.3543 C   0  0  0  0  0
    3.0866   24.9112   68.3575 C   0  0  0  0  0
    4.1902   23.6708   69.7053 C   0  0  0  0  0
    3.1573   22.8787   69.2144 C   0  0  0  0  0
    0.6154   22.0503   67.5380 C   0  0  0  0  0
    0.6921   21.3545   68.8984 C   0  0  0  0  0
    0.5157   21.0149   70.9761 C   0  0  0  0  0
    1.0780   19.9193   70.3998 C   0  0  0  0  0
    1.4497   18.8006   71.1409 C   0  0  0  0  0
    1.2209   18.8388   72.5295 C   0  0  0  0  0
    0.6365   19.9785   73.1274 C   0  0  0  0  0
    0.2745   21.0911   72.3452 C   0  0  0  0  0
    1.5843   17.7136   73.3432 C   0  0  0  0  0
    1.3150   21.1915   66.4523 C   0  0  0  0  0
   -1.5749   23.0092   68.0588 C   0  0  0  0  0
   -3.0229   23.0594   67.6141 C   0  0  0  0  0
   -0.5769   25.2950   64.8550 C   0  0  0  0  0
    4.1474   24.9159   69.1800 N   0  0  0  0  0
    0.2590   21.9449   70.0473 N   0  0  0  0  0
    1.2033   20.1044   69.0792 N   0  0  0  0  0
    1.8771   16.8063   73.9992 N   0  0  0  0  0
   -0.8075   22.1493   67.1572 N   0  0  0  0  0
    0.6995   19.9552   66.3436 F   0  0  0  0  0
    2.6508   20.9984   66.7631 F   0  0  0  0  0
    1.2392   21.8163   65.2190 F   0  0  0  0  0
   -3.6203   21.8143   67.8099 O   0  0  0  0  0
   -3.7022   24.0205   68.3604 O   0  0  0  0  0
   -0.1327   24.2918   65.7587 O   0  0  0  0  0
  1  2  1  0  0  0
  3  4  1  0  0  0
  4 33  1  0  0  0
  5  6  1  0  0  0
  7 23  1  0  0  0
  7  2  1  0  0  0
  9  6  1  0  0  0
 10  5  1  0  0  0
 10 11  1  0  0  0
 10 19  1  0  0  0
 10 27  1  0  0  0
 12 24  1  0  0  0
 13 25  1  0  0  0
 13 14  1  0  0  0
 15 16  1  0  0  0
 15 18  1  0  0  0
 17 12  1  0  0  0
 19 28  1  0  0  0
 19 29  1  0  0  0
 19 30  1  0  0  0
 20 27  1  0  0  0
 20 21  1  0  0  0
 21 31  1  0  0  0
 21 32  1  0  0  0
 22 33  1  0  0  0
 23  8  1  0  0  0
 25 11  1  0  0  0
  2  3  2  0  0  0
  4  5  2  0  0  0
  6  7  2  0  0  0
  8  9  2  0  0  0
 11 24  2  0  0  0
 12 13  2  0  0  0
 14 15  2  0  0  0
 16 17  2  0  0  0
 18 26  3  0  0  0
M  END
> <rmsd>
0.538300574

$$$$
PubChem-58655517


 31 32  0  0  0  0  0  0  0  0999 V2000
    0.9067   24.6165   71.1570 C   0  0  0  0  0
    0.6469   24.2152   69.7177 C   0  0  0  0  0
    0.9514   22.7406   69.5219 C   0  0  0  0  0
    0.9466   22.4195   68.0419 C   0  0  0  0  0
    1.8388   21.2620   67.8070 C   0  0  0  0  0
    0.8017   19.6650   69.5819 C   0  0  0  0  0
   -0.0119   20.5633   70.3362 C   0  0  0  0  0
   -0.8936   20.0400   71.2906 C   0  0  0  0  0
   -0.9711   18.6693   71.5309 C   0  0  0  0  0
   -0.1581   17.7953   70.8155 C   0  0  0  0  0
    0.7175   18.2929   69.8511 C   0  0  0  0  0
   -1.0582   22.9817   66.6085 C   0  0  0  0  0
   -2.4714   22.6589   66.1985 C   0  0  0  0  0
   -2.8640   23.4435   64.9380 C   0  0  0  0  0
   -4.2475   23.0683   64.4256 C   0  0  0  0  0
   -3.3933   23.0033   67.3413 C   0  0  0  0  0
   -4.9884   22.2487   69.1462 C   0  0  0  0  0
   -5.6202   20.9577   69.6504 C   0  0  0  0  0
   -4.6282   20.0885   70.4164 C   0  0  0  0  0
    2.7381   21.3623   66.9325 O   0  0  0  0  0
   -0.0089   21.9588   70.2180 O   0  0  0  0  0
   -0.4782   24.0158   66.1748 O   0  0  0  0  0
   -3.5014   24.2022   67.7217 O   0  0  0  0  0
   -2.5478   21.2892   65.9181 O   0  0  0  0  0
    1.7180   20.0411   68.5407 N   0  0  0  0  0
   -0.3964   22.1363   67.5518 N   0  0  0  0  0
   -4.1300   21.9733   68.0051 N   0  0  0  0  0
   -0.2234   16.4629   71.0496 F   0  0  0  0  0
   -4.0799   20.8033   71.4670 F   0  0  0  0  0
   -5.2939   18.9882   70.9214 F   0  0  0  0  0
   -3.6195   19.6550   69.5747 F   0  0  0  0  0
  1  2  1  0  0  0
  3  2  1  0  0  0
  3  4  1  0  0  0
  3 21  1  0  0  0
  4  5  1  0  0  0
  4 26  1  0  0  0
  5 25  1  0  0  0
  7 21  1  0  0  0
  7  8  1  0  0  0
  9 10  1  0  0  0
 10 28  1  0  0  0
 11  6  1  0  0  0
 13 12  1  0  0  0
 13 14  1  0  0  0
 13 16  1  0  0  0
 13 24  1  0  0  0
 14 15  1  0  0  0
 16 27  1  0  0  0
 17 27  1  0  0  0
 17 18  1  0  0  0
 18 19  1  0  0  0
 19 29  1  0  0  0
 19 30  1  0  0  0
 19 31  1  0  0  0
 25  6  1  0  0  0
 26 12  1  0  0  0
  5 20  2  0  0  0
  6  7  2  0  0  0
  8  9  2  0  0  0
 10 11  2  0  0  0
 12 22  2  0  0  0
 16 23  2  0  0  0
M  END
> <rmsd>
0.484074295

$$$$
PubChem-155150749


 37 40  0  0  0  0  0  0  0  0999 V2000
   -2.6003   23.8593   61.7900 C   0  0  0  0  0
   -2.8731   22.3631   61.8853 C   0  0  0  0  0
   -4.1571   22.0307   62.6540 C   0  0  0  0  0
   -4.3105   20.5047   62.6636 C   0  0  0  0  0
   -5.4732   20.0213   63.5282 C   0  0  0  0  0
   -4.9663   19.3367   64.7915 C   0  0  0  0  0
   -4.3613   20.3399   65.7633 C   0  0  0  0  0
   -2.9357   22.1221   64.9262 C   0  0  0  0  0
   -4.1184   22.6162   64.0771 C   0  0  0  0  0
   -2.6192   23.0734   66.0874 C   0  0  0  0  0
   -3.6812   23.1336   67.1953 C   0  0  0  0  0
   -1.2125   22.9298   66.5852 C   0  0  0  0  0
    0.5358   21.5463   67.7899 C   0  0  0  0  0
    0.8202   20.0692   68.0463 C   0  0  0  0  0
    2.1089   20.4941   69.9869 C   0  0  0  0  0
    1.8953   22.0074   69.9113 C   0  0  0  0  0
    0.6330   22.3577   69.0967 C   0  0  0  0  0
   -0.8169   21.1251   70.6295 C   0  0  0  0  0
   -2.1784   21.1512   71.3164 C   0  0  0  0  0
   -1.9465   23.6361   71.4916 C   0  0  0  0  0
   -0.5978   23.5067   70.7876 C   0  0  0  0  0
   -2.6328   22.2897   73.5134 C   0  0  0  0  0
   -2.7057   23.5445   74.3422 C   0  0  0  0  0
   -3.9233   23.5478   75.2257 C   0  0  0  0  0
   -1.9748   23.3774   75.6461 C   0  0  0  0  0
   -5.3480   22.6289   61.9190 C   0  0  0  0  0
   -3.0158   20.7091   65.3288 N   0  0  0  0  0
   -3.5881   24.3993   67.9010 N   0  0  0  0  0
   -3.5394   22.0395   68.1433 N   0  0  0  0  0
   -0.7722   21.6995   67.1668 N   0  0  0  0  0
    2.1436   19.9176   68.6452 N   0  0  0  0  0
   -0.6228   22.3664   69.8685 N   0  0  0  0  0
   -2.2766   22.3624   72.1251 N   0  0  0  0  0
   -0.4227   23.9064   66.4867 O   0  0  0  0  0
   -2.8814   21.1676   74.0380 O   0  0  0  0  0
   -3.1627   23.3859   76.3946 O   0  0  0  0  0
   -6.0240   18.6972   65.4083 F   0  0  0  0  0
  1  2  1  0  0  0
  2  3  1  0  0  0
  3  4  1  0  0  0
  3 26  1  0  0  0
  4  5  1  0  0  0
  5  6  1  0  0  0
  6  7  1  0  0  0
  6 37  1  0  0  0
  7 27  1  0  0  0
  8 27  1  0  0  0
  8  9  1  0  0  0
  8 10  1  0  0  0
  9  3  1  0  0  0
 10 11  1  0  0  0
 10 12  1  0  0  0
 11 28  1  0  0  0
 11 29  1  0  0  0
 12 30  1  0  0  0
 13 30  1  0  0  0
 13 14  1  0  0  0
 14 31  1  0  0  0
 15 31  1  0  0  0
 15 16  1  0  0  0
 16 17  1  0  0  0
 17 32  1  0  0  0
 17 13  1  0  0  0
 18 32  1  0  0  0
 18 19  1  0  0  0
 19 33  1  0  0  0
 20 33  1  0  0  0
 20 21  1  0  0  0
 21 32  1  0  0  0
 23 22  1  0  0  0
 23 24  1  0  0  0
 24 36  1  0  0  0
 25 36  1  0  0  0
 25 23  1  0  0  0
 33 22  1  0  0  0
 12 34  2  0  0  0
 22 35  2  0  0  0
M  END
> <rmsd>
0.470837027

$$$$
PubChem-155150834


 31 33  0  0  0  0  0  0  0  0999 V2000
   -2.3215   25.7508   61.2218 C   0  0  0  0  0
   -2.2910   24.2921   61.6242 C   0  0  0  0  0
   -3.4195   24.0140   62.6038 C   0  0  0  0  0
   -3.4293   22.5531   63.0510 C   0  0  0  0  0
   -4.3210   22.3785   64.2565 C   0  0  0  0  0
   -3.0329   22.0594   65.0031 C   0  0  0  0  0
   -1.6579   20.8768   63.5284 C   0  0  0  0  0
   -1.5705   20.6246   62.0288 C   0  0  0  0  0
   -2.9479   20.7148   61.4426 C   0  0  0  0  0
   -3.8079   21.6185   61.9174 C   0  0  0  0  0
   -0.8706   19.2922   61.7221 C   0  0  0  0  0
   -0.5471   19.1572   60.2412 C   0  0  0  0  0
    0.5886   20.0878   59.8591 C   0  0  0  0  0
   -1.6508   18.1279   62.1709 C   0  0  0  0  0
   -2.7082   23.1527   66.0270 C   0  0  0  0  0
   -3.7067   23.1484   67.1925 C   0  0  0  0  0
   -1.2807   23.0668   66.4849 C   0  0  0  0  0
    0.5834   21.7354   67.5659 C   0  0  0  0  0
    0.9364   20.2481   67.7495 C   0  0  0  0  0
    2.8039   20.9872   69.0471 C   0  0  0  0  0
    2.2211   22.3646   69.3866 C   0  0  0  0  0
    0.7950   22.5524   68.8507 C   0  0  0  0  0
   -0.7989   23.3530   70.1656 C   0  0  0  0  0
   -2.2016   22.2134   63.8085 N   0  0  0  0  0
   -2.2643   17.2128   62.5252 N   0  0  0  0  0
   -3.6068   21.9306   67.9821 N   0  0  0  0  0
   -3.5000   24.3063   68.0454 N   0  0  0  0  0
   -0.7826   21.8646   67.0791 N   0  0  0  0  0
    1.7394   19.9917   68.9513 N   0  0  0  0  0
   -0.5214   24.0585   66.3199 O   0  0  0  0  0
   -0.1295   22.1749   69.8307 O   0  0  0  0  0
  1  2  1  0  0  0
  2  3  1  0  0  0
  3  4  1  0  0  0
  4  5  1  0  0  0
  4 24  1  0  0  0
  4 10  1  0  0  0
  5  6  1  0  0  0
  6 24  1  0  0  0
  6 15  1  0  0  0
  7 24  1  0  0  0
  7  8  1  0  0  0
  8  9  1  0  0  0
  8 11  1  0  0  0
 11 12  1  0  0  0
 11 14  1  0  0  0
 12 13  1  0  0  0
 15 16  1  0  0  0
 15 17  1  0  0  0
 16 26  1  0  0  0
 16 27  1  0  0  0
 17 28  1  0  0  0
 18 28  1  0  0  0
 18 19  1  0  0  0
 19 29  1  0  0  0
 20 29  1  0  0  0
 20 21  1  0  0  0
 21 22  1  0  0  0
 22 31  1  0  0  0
 22 18  1  0  0  0
 23 31  1  0  0  0
  9 10  2  0  0  0
 17 30  2  0  0  0
 14 25  3  0  0  0
M  END
> <rmsd>
0.396194488

$$$$
PubChem-137342756 1772713263 MCULE-4531210556 MolPort-046-754-446 ZINC001772713263


 38 40  0  0  0  0  0  0  0  0999 V2000
    1.5749   24.4541   68.7018 C   0  0  0  0  0
    2.8421   23.6471   68.4948 C   0  0  0  0  0
    3.1932   23.5661   67.0194 C   0  0  0  0  0
    2.7574   22.2633   69.1444 C   0  0  0  0  0
    1.8114   21.2954   68.4317 C   0  0  0  0  0
    1.7044   18.7932   68.0377 C   0  0  0  0  0
    2.0584   17.4080   68.4723 C   0  0  0  0  0
    3.5359   17.1599   68.2412 C   0  0  0  0  0
    0.4137   17.1360   70.4022 C   0  0  0  0  0
   -0.7755   17.3695   69.5295 C   0  0  0  0  0
   -2.3582   18.9592   68.8701 C   0  0  0  0  0
   -2.9733   20.3050   69.1896 C   0  0  0  0  0
   -3.8111   20.7824   68.0232 C   0  0  0  0  0
   -3.9011   23.2168   67.3395 C   0  0  0  0  0
   -3.2377   22.9318   66.0277 C   0  0  0  0  0
   -0.8476   25.4662   65.4007 C   0  0  0  0  0
   -0.4550   26.8327   65.0248 C   0  0  0  0  0
    0.9001   27.1887   64.9667 C   0  0  0  0  0
    1.2735   28.4871   64.6072 C   0  0  0  0  0
    0.2945   29.4375   64.3042 C   0  0  0  0  0
   -1.0582   29.0897   64.3615 C   0  0  0  0  0
   -1.4319   27.7913   64.7204 C   0  0  0  0  0
   -0.7705   23.4483   65.9832 C   0  0  0  0  0
   -0.2529   22.1170   66.4299 C   0  0  0  0  0
   -0.8180   20.9992   65.5724 C   0  0  0  0  0
    0.3821   21.5521   68.8142 C   0  0  0  0  0
    2.1799   19.9269   68.7709 N   0  0  0  0  0
    1.7452   17.2033   69.8814 N   0  0  0  0  0
   -1.4316   18.6020   69.9281 N   0  0  0  0  0
   -4.2081   22.1621   68.2535 N   0  0  0  0  0
   -2.0681   23.7819   65.8368 N   0  0  0  0  0
   -2.1287   25.0475   65.4675 N   0  0  0  0  0
    0.0370   24.4933   65.7196 N   0  0  0  0  0
   -0.5918   21.8981   67.8270 N   0  0  0  0  0
    1.0036   18.9502   67.0033 O   0  0  0  0  0
    0.2421   16.8848   71.6234 O   0  0  0  0  0
   -4.2428   24.3950   67.6219 O   0  0  0  0  0
    0.0285   21.4488   70.0187 O   0  0  0  0  0
  1  2  1  0  0  0
  2  3  1  0  0  0
  2  4  1  0  0  0
  5  4  1  0  0  0
  5 27  1  0  0  0
  5 26  1  0  0  0
  7  6  1  0  0  0
  7  8  1  0  0  0
  7 28  1  0  0  0
 10  9  1  0  0  0
 10 29  1  0  0  0
 11 29  1  0  0  0
 11 12  1  0  0  0
 12 13  1  0  0  0
 13 30  1  0  0  0
 15 14  1  0  0  0
 15 31  1  0  0  0
 16 17  1  0  0  0
 16 33  1  0  0  0
 18 19  1  0  0  0
 20 21  1  0  0  0
 22 17  1  0  0  0
 23 31  1  0  0  0
 24 23  1  0  0  0
 24 25  1  0  0  0
 24 34  1  0  0  0
 27  6  1  0  0  0
 28  9  1  0  0  0
 30 14  1  0  0  0
 31 32  1  0  0  0
 34 26  1  0  0  0
  6 35  2  0  0  0
  9 36  2  0  0  0
 14 37  2  0  0  0
 16 32  2  0  0  0
 17 18  2  0  0  0
 19 20  2  0  0  0
 21 22  2  0  0  0
 23 33  2  0  0  0
 26 38  2  0  0  0
M  END
> <rmsd>
0.537253141

$$$$
PubChem-133077544 2037916309


 39 42  0  0  0  0  0  0  0  0999 V2000
   -1.0467   26.5144   66.5863 C   0  0  0  0  0
   -1.4075   25.2946   68.7465 C   0  0  0  0  0
   -2.9186   25.4828   68.7775 C   0  0  0  0  0
   -4.7563   24.5114   67.4312 C   0  0  0  0  0
   -5.4252   25.7433   67.3790 C   0  0  0  0  0
   -6.6021   25.8831   66.6450 C   0  0  0  0  0
   -7.1196   24.7992   65.9421 C   0  0  0  0  0
   -6.4645   23.5680   65.9829 C   0  0  0  0  0
   -5.2921   23.4042   66.7383 C   0  0  0  0  0
   -4.6569   22.0705   66.7817 C   0  0  0  0  0
   -3.1453   20.4205   67.9958 C   0  0  0  0  0
   -2.2183   20.4386   69.2079 C   0  0  0  0  0
   -1.1222   21.4504   69.1000 C   0  0  0  0  0
    0.2507   23.0609   67.7335 C   0  0  0  0  0
   -0.1923   24.1807   66.8411 C   0  0  0  0  0
    1.5464   22.4213   67.2355 C   0  0  0  0  0
    2.1832   21.5767   68.2965 C   0  0  0  0  0
    3.2171   21.9674   69.1131 C   0  0  0  0  0
    2.6606   19.9418   69.5655 C   0  0  0  0  0
   -4.1081   19.2845   68.1266 C   0  0  0  0  0
   -4.9886   17.0956   67.2578 C   0  0  0  0  0
   -4.7502   16.1593   66.0930 C   0  0  0  0  0
   -7.1100   15.1792   65.9043 C   0  0  0  0  0
   -7.6844   13.7665   66.0225 C   0  0  0  0  0
   -6.5059   12.8042   66.2020 C   0  0  0  0  0
   -5.3429   13.7017   66.3048 C   0  0  0  0  0
   -0.9040   25.3055   67.3782 N   0  0  0  0  0
   -3.8632   21.6876   67.9089 N   0  0  0  0  0
   -0.8099   22.0731   67.8508 N   0  0  0  0  0
    3.5112   20.9277   69.9209 N   0  0  0  0  0
    1.8348   20.3059   68.5613 N   0  0  0  0  0
   -4.0976   18.2363   67.1551 N   0  0  0  0  0
   -5.6920   15.0582   66.1519 N   0  0  0  0  0
   -3.5559   24.3848   68.1437 O   0  0  0  0  0
   -4.8591   21.2489   65.8460 O   0  0  0  0  0
   -0.4707   21.7454   70.1341 O   0  0  0  0  0
    0.0666   24.1313   65.6094 O   0  0  0  0  0
   -4.9145   19.2482   69.0984 O   0  0  0  0  0
   -4.1653   13.3114   66.5066 O   0  0  0  0  0
  1 27  1  0  0  0
  2 27  1  0  0  0
  2  3  1  0  0  0
  3 34  1  0  0  0
  4 34  1  0  0  0
  5  6  1  0  0  0
  7  8  1  0  0  0
  9 10  1  0  0  0
  9  4  1  0  0  0
 10 28  1  0  0  0
 11 28  1  0  0  0
 11 12  1  0  0  0
 11 20  1  0  0  0
 12 13  1  0  0  0
 13 29  1  0  0  0
 14 29  1  0  0  0
 14 15  1  0  0  0
 14 16  1  0  0  0
 15 27  1  0  0  0
 16 17  1  0  0  0
 18 30  1  0  0  0
 19 31  1  0  0  0
 20 32  1  0  0  0
 21 32  1  0  0  0
 21 22  1  0  0  0
 22 33  1  0  0  0
 23 33  1  0  0  0
 23 24  1  0  0  0
 24 25  1  0  0  0
 25 26  1  0  0  0
 26 33  1  0  0  0
 31 17  1  0  0  0
  4  5  2  0  0  0
  6  7  2  0  0  0
  8  9  2  0  0  0
 10 35  2  0  0  0
 13 36  2  0  0  0
 15 37  2  0  0  0
 17 18  2  0  0  0
 19 30  2  0  0  0
 20 38  2  0  0  0
 26 39  2  0  0  0
M  END
> <rmsd>
0.456572413

$$$$
PubChem-144323511 PubChem-144323512


 31 31  0  0  0  0  0  0  0  0999 V2000
   -0.3893   16.4979   65.3536 C   0  0  0  0  0
    0.2048   17.6553   65.1134 C   0  0  0  0  0
   -0.5401   18.9096   65.2549 C   0  0  0  0  0
   -0.0126   20.1051   64.9879 C   0  0  0  0  0
   -0.9053   21.3015   65.1120 C   0  0  0  0  0
   -0.3811   22.2973   66.1393 C   0  0  0  0  0
   -0.8505   23.6801   65.8043 C   0  0  0  0  0
   -3.3424   23.1228   66.0331 C   0  0  0  0  0
   -3.6618   23.1812   67.4943 C   0  0  0  0  0
   -3.6524   20.6558   67.7065 C   0  0  0  0  0
   -3.4642   19.6243   68.8101 C   0  0  0  0  0
   -2.0880   17.5149   68.5237 C   0  0  0  0  0
   -0.9673   18.0478   69.3550 C   0  0  0  0  0
    0.2598   18.2761   68.4884 C   0  0  0  0  0
    1.4053   18.7548   69.3190 C   0  0  0  0  0
    1.4599   21.0300   68.1649 C   0  0  0  0  0
    0.0678   21.4757   68.4998 C   0  0  0  0  0
   -4.6551   19.5695   69.7185 C   0  0  0  0  0
    1.3755   20.2270   64.4929 C   0  0  0  0  0
    1.9098   21.3842   64.1224 C   0  0  0  0  0
    0.0117   24.5682   65.5799 O   0  0  0  0  0
   -3.8715   24.2960   68.0404 O   0  0  0  0  0
   -2.0215   16.3398   68.0779 O   0  0  0  0  0
    1.9029   17.9906   70.1870 O   0  0  0  0  0
   -0.3294   21.4657   69.6952 O   0  0  0  0  0
   -5.7565   19.2604   69.2907 O   0  0  0  0  0
   -2.2406   24.0235   65.7135 N   0  0  0  0  0
   -3.7515   21.9909   68.2796 N   0  0  0  0  0
   -3.2350   18.3126   68.2233 N   0  0  0  0  0
    1.9569   20.0631   69.1388 N   0  0  0  0  0
   -0.8154   21.9409   67.4806 N   0  0  0  0  0
  2  3  1  0  0  0
  4 19  1  0  0  0
  5  4  1  0  0  0
  6  5  1  0  0  0
  6  7  1  0  0  0
  6 31  1  0  0  0
  7 27  1  0  0  0
  8 27  1  0  0  0
  8  9  1  0  0  0
  9 28  1  0  0  0
 10 28  1  0  0  0
 10 11  1  0  0  0
 11 29  1  0  0  0
 11 18  1  0  0  0
 13 12  1  0  0  0
 13 14  1  0  0  0
 14 15  1  0  0  0
 15 30  1  0  0  0
 16 30  1  0  0  0
 16 17  1  0  0  0
 17 31  1  0  0  0
 29 12  1  0  0  0
  1  2  2  0  0  0
  3  4  2  0  0  0
  7 21  2  0  0  0
  9 22  2  0  0  0
 12 23  2  0  0  0
 15 24  2  0  0  0
 17 25  2  0  0  0
 18 26  2  0  0  0
 19 20  2  0  0  0
M  END
> <rmsd>
0.420710444

$$$$
PubChem-101663234


 27 29  0  0  0  0  0  0  0  0999 V2000
   -5.0298   27.0801   74.9224 C   0  0  0  0  0
   -3.5397   27.3340   74.8331 C   0  0  0  0  0
   -1.9756   25.5776   74.1010 C   0  0  0  0  0
   -1.4295   24.7476   73.0154 C   0  0  0  0  0
   -1.9199   24.8863   71.7106 C   0  0  0  0  0
   -1.4071   24.0995   70.6761 C   0  0  0  0  0
   -0.3985   23.1659   70.9319 C   0  0  0  0  0
    0.0960   23.0252   72.2378 C   0  0  0  0  0
   -0.4175   23.8116   73.2728 C   0  0  0  0  0
    1.1214   21.4284   70.0328 C   0  0  0  0  0
    1.4247   20.7872   68.6920 C   0  0  0  0  0
    2.0868   21.7967   67.7710 C   0  0  0  0  0
   -0.0678   22.6044   66.5408 C   0  0  0  0  0
   -1.3409   24.2164   66.9427 C   0  0  0  0  0
   -1.9923   23.0696   67.2336 C   0  0  0  0  0
   -3.2855   23.1114   67.7347 C   0  0  0  0  0
   -3.1804   25.4900   67.6113 C   0  0  0  0  0
   -2.9787   26.5096   73.8226 O   0  0  0  0  0
   -1.5390   25.4456   75.2780 O   0  0  0  0  0
    0.0909   22.3959   69.8750 O   0  0  0  0  0
    2.2740   19.6972   68.8750 O   0  0  0  0  0
    1.3900   21.6667   66.0967 S   0  0  0  0  0
   -0.1041   23.9638   66.4968 N   0  0  0  0  0
   -1.2084   22.0114   66.9882 N   0  0  0  0  0
   -3.8596   24.3371   67.9145 N   0  0  0  0  0
   -1.9047   25.4357   67.1208 N   0  0  0  0  0
   -3.9942   21.9214   68.0616 N   0  0  0  0  0
  1  2  1  0  0  0
  2 18  1  0  0  0
  3 18  1  0  0  0
  3  4  1  0  0  0
  5  6  1  0  0  0
  7  8  1  0  0  0
  7 20  1  0  0  0
  9  4  1  0  0  0
 10 20  1  0  0  0
 11 10  1  0  0  0
 11 12  1  0  0  0
 11 21  1  0  0  0
 12 22  1  0  0  0
 13 22  1  0  0  0
 14 23  1  0  0  0
 14 26  1  0  0  0
 15 24  1  0  0  0
 15 16  1  0  0  0
 16 27  1  0  0  0
 17 25  1  0  0  0
 24 13  1  0  0  0
  3 19  2  0  0  0
  4  5  2  0  0  0
  6  7  2  0  0  0
  8  9  2  0  0  0
 13 23  2  0  0  0
 14 15  2  0  0  0
 16 25  2  0  0  0
 17 26  2  0  0  0
M  END
> <rmsd>
0.495704591

$$$$
PubChem-87259857


 26 27  0  0  0  0  0  0  0  0999 V2000
   -1.1538   28.9606   65.8783 C   0  0  0  0  0
   -1.5115   27.7330   66.6884 C   0  0  0  0  0
   -1.7601   26.5637   65.7514 C   0  0  0  0  0
   -3.3073   25.3101   67.1420 C   0  0  0  0  0
   -2.8525   23.1212   67.9117 C   0  0  0  0  0
   -1.5951   23.1531   67.2835 C   0  0  0  0  0
   -1.2513   24.2982   66.5522 C   0  0  0  0  0
   -0.3877   21.2519   68.4756 C   0  0  0  0  0
    0.3907   19.9667   68.3463 C   0  0  0  0  0
   -0.3398   18.8565   69.0887 C   0  0  0  0  0
   -0.3270   17.6485   68.1798 C   0  0  0  0  0
   -0.2842   18.2120   66.7816 C   0  0  0  0  0
    0.5013   19.5009   66.8940 C   0  0  0  0  0
    2.7209   21.0380   68.4502 C   0  0  0  0  0
    4.0363   21.1289   69.1546 C   0  0  0  0  0
   -2.1044   25.3650   66.5088 N   0  0  0  0  0
   -3.6731   24.1987   67.8285 N   0  0  0  0  0
   -0.6934   22.0366   67.3149 N   0  0  0  0  0
    1.7250   20.1214   68.9235 N   0  0  0  0  0
   -3.3154   21.9490   68.5753 N   0  0  0  0  0
   -0.1450   24.3427   65.9455 O   0  0  0  0  0
   -0.6979   21.6755   69.6230 O   0  0  0  0  0
    2.4750   21.8038   67.4792 O   0  0  0  0  0
    3.9290   22.0132   70.2111 F   0  0  0  0  0
    5.0142   21.5760   68.2839 F   0  0  0  0  0
    4.4003   19.8850   69.6371 F   0  0  0  0  0
  1  2  1  0  0  0
  2  3  1  0  0  0
  3 16  1  0  0  0
  5 17  1  0  0  0
  5 20  1  0  0  0
  6  7  1  0  0  0
  6 18  1  0  0  0
  7 16  1  0  0  0
  9  8  1  0  0  0
  9 10  1  0  0  0
  9 19  1  0  0  0
 10 11  1  0  0  0
 11 12  1  0  0  0
 12 13  1  0  0  0
 13  9  1  0  0  0
 15 14  1  0  0  0
 15 24  1  0  0  0
 15 25  1  0  0  0
 15 26  1  0  0  0
 16  4  1  0  0  0
 18  8  1  0  0  0
 19 14  1  0  0  0
  4 17  2  0  0  0
  5  6  2  0  0  0
  7 21  2  0  0  0
  8 22  2  0  0  0
 14 23  2  0  0  0
M  END
> <rmsd>
0.416025579

$$$$
PubChem-21091411


 29 30  0  0  0  0  0  0  0  0999 V2000
    2.3425   22.8462   70.0929 C   0  0  0  0  0
    0.9595   22.7213   69.4666 C   0  0  0  0  0
    0.9729   22.3314   67.9964 C   0  0  0  0  0
    1.8574   21.1660   67.7393 C   0  0  0  0  0
    1.0034   19.6129   69.6560 C   0  0  0  0  0
    1.0183   18.2545   70.0000 C   0  0  0  0  0
    0.2504   17.7631   71.0543 C   0  0  0  0  0
   -0.5500   18.6310   71.7902 C   0  0  0  0  0
   -0.5700   19.9888   71.4759 C   0  0  0  0  0
    0.2013   20.5067   70.4272 C   0  0  0  0  0
   -1.0845   22.9478   66.6690 C   0  0  0  0  0
   -2.4855   22.6057   66.2694 C   0  0  0  0  0
   -2.8477   23.1449   64.8938 C   0  0  0  0  0
   -3.4577   23.0586   67.3077 C   0  0  0  0  0
   -4.9723   22.4523   69.2311 C   0  0  0  0  0
   -5.4183   21.2181   70.0133 C   0  0  0  0  0
   -4.2480   20.5564   70.7517 C   0  0  0  0  0
    2.6793   21.2368   66.7889 O   0  0  0  0  0
    0.1030   21.8919   70.2390 O   0  0  0  0  0
   -0.5621   24.0408   66.3156 O   0  0  0  0  0
   -3.6758   24.2885   67.4862 O   0  0  0  0  0
    1.8114   19.9728   68.5244 N   0  0  0  0  0
   -0.3738   22.0506   67.5213 N   0  0  0  0  0
   -4.1003   22.0829   68.1259 N   0  0  0  0  0
   -3.3399   20.0303   69.8496 F   0  0  0  0  0
   -4.7245   19.5297   71.5469 F   0  0  0  0  0
   -3.6059   21.4820   71.5557 F   0  0  0  0  0
   -6.0022   20.3061   69.1503 F   0  0  0  0  0
   -6.3666   21.6159   70.9385 F   0  0  0  0  0
  2  1  1  0  0  0
  2  3  1  0  0  0
  2 19  1  0  0  0
  3  4  1  0  0  0
  3 23  1  0  0  0
  4 22  1  0  0  0
  6  7  1  0  0  0
  8  9  1  0  0  0
 10 19  1  0  0  0
 10  5  1  0  0  0
 12 11  1  0  0  0
 12 13  1  0  0  0
 12 14  1  0  0  0
 14 24  1  0  0  0
 15 24  1  0  0  0
 15 16  1  0  0  0
 16 17  1  0  0  0
 16 28  1  0  0  0
 16 29  1  0  0  0
 17 25  1  0  0  0
 17 26  1  0  0  0
 17 27  1  0  0  0
 22  5  1  0  0  0
 23 11  1  0  0  0
  4 18  2  0  0  0
  5  6  2  0  0  0
  7  8  2  0  0  0
  9 10  2  0  0  0
 11 20  2  0  0  0
 14 21  2  0  0  0
M  END
> <rmsd>
0.519178569

$$$$
PubChem-258657 NSC87914


 27 28  0  0  0  0  0  0  0  0999 V2000
   -6.1147   23.2647   65.9742 C   0  0  0  0  0
   -4.0865   23.3187   66.8523 C   0  0  0  0  0
   -3.2355   22.1267   67.2999 C   0  0  0  0  0
   -1.7812   22.4033   66.8954 C   0  0  0  0  0
   -1.3172   23.8185   67.2639 C   0  0  0  0  0
   -2.4059   24.8312   66.8642 C   0  0  0  0  0
   -2.0214   26.2390   67.2919 C   0  0  0  0  0
   -0.3823   21.2275   68.7082 C   0  0  0  0  0
    0.5367   20.1051   69.0471 C   0  0  0  0  0
    2.7628   21.3160   69.0424 C   0  0  0  0  0
    4.9707   22.4253   68.9360 C   0  0  0  0  0
    5.6930   21.8268   70.0952 C   0  0  0  0  0
    6.6462   20.8235   69.8864 C   0  0  0  0  0
    7.3132   20.2542   70.9756 C   0  0  0  0  0
    7.0263   20.6856   72.2744 C   0  0  0  0  0
    6.0720   21.6858   72.4843 C   0  0  0  0  0
    5.4049   22.2554   71.3954 C   0  0  0  0  0
   -5.4271   23.1036   67.1775 O   0  0  0  0  0
   -3.6282   24.4942   67.4757 O   0  0  0  0  0
   -1.0913   26.7749   66.4010 O   0  0  0  0  0
   -0.1250   24.0994   66.5931 O   0  0  0  0  0
   -0.6999   22.0591   69.5994 O   0  0  0  0  0
    2.4403   21.9785   70.0669 O   0  0  0  0  0
    4.0012   21.5150   68.4285 O   0  0  0  0  0
   -3.3512   21.9516   68.6818 O   0  0  0  0  0
   -0.8582   21.3692   67.3644 N   0  0  0  0  0
    1.8611   20.3526   68.4942 N   0  0  0  0  0
  1 18  1  0  0  0
  2 18  1  0  0  0
  2  3  1  0  0  0
  2 19  1  0  0  0
  3  4  1  0  0  0
  3 25  1  0  0  0
  4  5  1  0  0  0
  4 26  1  0  0  0
  5  6  1  0  0  0
  5 21  1  0  0  0
  6 19  1  0  0  0
  6  7  1  0  0  0
  7 20  1  0  0  0
  9  8  1  0  0  0
  9 27  1  0  0  0
 10 24  1  0  0  0
 11 24  1  0  0  0
 11 12  1  0  0  0
 13 14  1  0  0  0
 15 16  1  0  0  0
 17 12  1  0  0  0
 26  8  1  0  0  0
 27 10  1  0  0  0
  8 22  2  0  0  0
 10 23  2  0  0  0
 12 13  2  0  0  0
 14 15  2  0  0  0
 16 17  2  0  0  0
M  END
> <rmsd>
0.515321076

$$$$
PubChem-149144591


 30 32  0  0  0  0  0  0  0  0999 V2000
   -6.0798   22.9183   61.2454 C   0  0  0  0  0
   -4.6850   23.1816   61.7710 C   0  0  0  0  0
   -4.4258   22.2998   62.9772 C   0  0  0  0  0
   -3.0205   22.5399   63.5204 C   0  0  0  0  0
   -1.9050   22.0192   62.6069 C   0  0  0  0  0
   -2.0868   20.5597   62.1904 C   0  0  0  0  0
   -1.9528   19.5850   63.3544 C   0  0  0  0  0
   -3.1141   19.7158   64.3362 C   0  0  0  0  0
   -2.8693   22.0562   64.9386 C   0  0  0  0  0
   -2.6270   23.0949   65.9956 C   0  0  0  0  0
   -3.7699   23.1828   67.0147 C   0  0  0  0  0
   -1.2577   22.9785   66.6007 C   0  0  0  0  0
    0.4537   21.6114   67.8696 C   0  0  0  0  0
    0.6731   20.1406   68.2125 C   0  0  0  0  0
    2.4353   20.6897   69.7181 C   0  0  0  0  0
    2.2657   22.1888   69.4517 C   0  0  0  0  0
    0.8032   22.5059   69.0818 C   0  0  0  0  0
    0.4358   22.8797   71.4510 C   0  0  0  0  0
   -0.5922   22.8365   72.5947 C   0  0  0  0  0
   -2.3280   22.9288   71.1439 C   0  0  0  0  0
   -1.3779   22.9884   69.9355 C   0  0  0  0  0
   -2.9104   20.8051   65.2664 N   0  0  0  0  0
   -3.6356   24.3822   67.8230 N   0  0  0  0  0
   -3.8177   22.0121   67.8766 N   0  0  0  0  0
   -0.8952   21.8234   67.3635 N   0  0  0  0  0
    2.0837   19.9175   68.5264 N   0  0  0  0  0
   -0.1179   22.2910   70.2197 N   0  0  0  0  0
   -0.4192   23.8972   66.4004 O   0  0  0  0  0
   -1.7691   22.1747   72.1940 O   0  0  0  0  0
   -0.7289   19.7184   63.9890 F   0  0  0  0  0
  1  2  1  0  0  0
  2  3  1  0  0  0
  3  4  1  0  0  0
  4  5  1  0  0  0
  4  9  1  0  0  0
  5  6  1  0  0  0
  6  7  1  0  0  0
  7  8  1  0  0  0
  7 30  1  0  0  0
  8 22  1  0  0  0
 10  9  1  0  0  0
 10 11  1  0  0  0
 10 12  1  0  0  0
 11 23  1  0  0  0
 11 24  1  0  0  0
 12 25  1  0  0  0
 13 25  1  0  0  0
 13 14  1  0  0  0
 14 26  1  0  0  0
 15 26  1  0  0  0
 15 16  1  0  0  0
 16 17  1  0  0  0
 17 27  1  0  0  0
 17 13  1  0  0  0
 18 27  1  0  0  0
 18 19  1  0  0  0
 19 29  1  0  0  0
 20 29  1  0  0  0
 20 21  1  0  0  0
 21 27  1  0  0  0
  9 22  2  0  0  0
 12 28  2  0  0  0
M  END
> <rmsd>
0.43381992

$$$$
PubChem-136263557


 25 26  0  0  0  0  0  0  0  0999 V2000
   -0.5486   18.6640   70.1954 C   0  0  0  0  0
   -0.3927   18.7814   68.6864 C   0  0  0  0  0
    0.2421   17.5177   68.1395 C   0  0  0  0  0
    0.4231   20.0086   68.2688 C   0  0  0  0  0
   -0.3560   21.2750   68.4450 C   0  0  0  0  0
   -1.5936   23.1636   67.2714 C   0  0  0  0  0
   -2.8466   23.1183   67.9115 C   0  0  0  0  0
   -3.3284   25.3071   67.1533 C   0  0  0  0  0
   -1.2730   24.3144   66.5394 C   0  0  0  0  0
    2.7760   20.9179   68.5699 C   0  0  0  0  0
    4.0174   20.9646   69.3615 C   0  0  0  0  0
    5.0825   21.7869   68.9644 C   0  0  0  0  0
    6.2600   21.8311   69.7169 C   0  0  0  0  0
    6.3809   21.0534   70.8716 C   0  0  0  0  0
    5.3247   20.2318   71.2743 C   0  0  0  0  0
    4.1472   20.1876   70.5219 C   0  0  0  0  0
   -0.6719   21.6720   69.5998 O   0  0  0  0  0
   -0.1786   24.3918   65.9205 O   0  0  0  0  0
    2.6658   21.6183   67.5263 O   0  0  0  0  0
   -0.6775   22.0584   67.2920 N   0  0  0  0  0
   -3.6785   24.1899   67.8400 N   0  0  0  0  0
   -2.1386   25.3600   66.5023 N   0  0  0  0  0
   -4.2179   26.4155   67.0987 N   0  0  0  0  0
   -3.2924   21.9399   68.5758 N   0  0  0  0  0
    1.6956   20.0742   68.9826 N   0  0  0  0  0
  1  2  1  0  0  0
  2  3  1  0  0  0
  2  4  1  0  0  0
  4  5  1  0  0  0
  4 25  1  0  0  0
  5 20  1  0  0  0
  7 21  1  0  0  0
  7 24  1  0  0  0
  8 22  1  0  0  0
  8 23  1  0  0  0
  9  6  1  0  0  0
 10 11  1  0  0  0
 12 13  1  0  0  0
 14 15  1  0  0  0
 16 11  1  0  0  0
 20  6  1  0  0  0
 22  9  1  0  0  0
 25 10  1  0  0  0
  5 17  2  0  0  0
  6  7  2  0  0  0
  8 21  2  0  0  0
  9 18  2  0  0  0
 10 19  2  0  0  0
 11 12  2  0  0  0
 13 14  2  0  0  0
 15 16  2  0  0  0
M  END
> <rmsd>
0.43404147

$$$$
PubChem-5496886


 19 18  0  0  0  0  0  0  0  0999 V2000
    0.4558   17.6780   69.9932 C   0  0  0  0  0
   -0.2187   19.0379   69.9516 C   0  0  0  0  0
   -1.7063   18.8247   69.7288 C   0  0  0  0  0
    0.3791   19.9055   68.8390 C   0  0  0  0  0
   -0.2448   21.2646   68.7974 C   0  0  0  0  0
   -1.6139   22.9649   67.5129 C   0  0  0  0  0
   -1.9144   23.2813   66.0506 C   0  0  0  0  0
   -0.6605   23.5786   65.3001 C   0  0  0  0  0
   -2.8824   22.9789   68.3701 C   0  0  0  0  0
    2.7382   19.7123   67.9681 C   0  0  0  0  0
    4.1977   19.8685   68.1983 C   0  0  0  0  0
   -0.1532   22.0369   69.7906 O   0  0  0  0  0
    0.0365   24.5829   65.6011 O   0  0  0  0  0
   -0.2679   22.7518   64.2567 O   0  0  0  0  0
   -3.4607   24.2488   68.3611 O   0  0  0  0  0
    2.3236   19.2913   66.8556 O   0  0  0  0  0
   -0.9387   21.6770   67.6193 N   0  0  0  0  0
    1.8201   20.0418   69.0101 N   0  0  0  0  0
   -4.1032   21.7383   67.8289 S   0  0  0  0  0
  1  2  1  0  0  0
  2  3  1  0  0  0
  4  2  1  0  0  0
  4  5  1  0  0  0
  4 18  1  0  0  0
  5 17  1  0  0  0
  6 17  1  0  0  0
  6  7  1  0  0  0
  6  9  1  0  0  0
  7  8  1  0  0  0
  8 14  1  0  0  0
  9 15  1  0  0  0
  9 19  1  0  0  0
 11 10  1  0  0  0
 18 10  1  0  0  0
  5 12  2  0  0  0
  8 13  2  0  0  0
 10 16  2  0  0  0
M  END
> <rmsd>
0.452829927

$$$$
PubChem-5496886


 19 18  0  0  0  0  0  0  0  0999 V2000
    0.1552   17.5634   69.6705 C   0  0  0  0  0
   -0.2282   19.0095   69.9164 C   0  0  0  0  0
    0.1739   19.4131   71.3269 C   0  0  0  0  0
    0.3902   19.9127   68.8455 C   0  0  0  0  0
   -0.2517   21.2616   68.7975 C   0  0  0  0  0
   -1.6380   22.9380   67.5003 C   0  0  0  0  0
   -1.9512   23.2302   66.0359 C   0  0  0  0  0
   -0.7021   23.5140   65.2735 C   0  0  0  0  0
   -2.8980   22.9710   68.3693 C   0  0  0  0  0
    2.7385   19.7561   67.9366 C   0  0  0  0  0
    4.2013   19.8958   68.1560 C   0  0  0  0  0
   -0.1511   22.0518   69.7755 O   0  0  0  0  0
   -0.3629   22.7614   64.3242 O   0  0  0  0  0
    0.0826   24.6121   65.6009 O   0  0  0  0  0
   -3.4693   24.2438   68.3477 O   0  0  0  0  0
    2.3085   19.3928   66.8097 O   0  0  0  0  0
   -0.9649   21.6504   67.6229 N   0  0  0  0  0
    1.8346   20.0357   69.0051 N   0  0  0  0  0
   -4.1309   21.7301   67.8568 S   0  0  0  0  0
  1  2  1  0  0  0
  2  3  1  0  0  0
  4  2  1  0  0  0
  4  5  1  0  0  0
  4 18  1  0  0  0
  5 17  1  0  0  0
  6 17  1  0  0  0
  6  7  1  0  0  0
  6  9  1  0  0  0
  7  8  1  0  0  0
  8 14  1  0  0  0
  9 15  1  0  0  0
  9 19  1  0  0  0
 11 10  1  0  0  0
 18 10  1  0  0  0
  5 12  2  0  0  0
  8 13  2  0  0  0
 10 16  2  0  0  0
M  END
> <rmsd>
0.45640555

$$$$
PubChem-92239072 4900921 ZINC000004900921


 27 28  0  0  0  0  0  0  0  0999 V2000
   -2.5070   26.9628   65.7886 C   0  0  0  0  0
   -2.5874   25.0194   66.8404 C   0  0  0  0  0
   -1.6848   23.7911   66.6587 C   0  0  0  0  0
   -1.4461   23.1342   68.0210 C   0  0  0  0  0
   -2.7661   22.9464   68.7819 C   0  0  0  0  0
   -3.5335   24.2759   68.7523 C   0  0  0  0  0
   -4.8281   24.1869   69.5440 C   0  0  0  0  0
   -0.1678   21.1486   68.9444 C   0  0  0  0  0
    0.5365   19.8611   68.6885 C   0  0  0  0  0
    2.5229   20.6346   67.3193 C   0  0  0  0  0
    4.5084   21.4213   66.0988 C   0  0  0  0  0
    5.9699   21.5715   66.3293 C   0  0  0  0  0
    6.8437   20.5380   65.9754 C   0  0  0  0  0
    8.2153   20.6692   66.2138 C   0  0  0  0  0
    8.7130   21.8312   66.8120 C   0  0  0  0  0
    7.8392   22.8611   67.1739 C   0  0  0  0  0
    6.4675   22.7303   66.9353 C   0  0  0  0  0
   -2.8299   25.6182   65.6026 O   0  0  0  0  0
   -3.8124   24.6394   67.4221 O   0  0  0  0  0
   -4.5470   24.0541   70.9039 O   0  0  0  0  0
   -3.5298   21.9323   68.1926 O   0  0  0  0  0
   -0.2119   21.6141   70.1144 O   0  0  0  0  0
    1.7827   20.8862   66.3286 O   0  0  0  0  0
    3.8948   20.8757   67.2577 O   0  0  0  0  0
   -0.4621   24.1807   66.1090 O   0  0  0  0  0
   -0.7499   21.8641   67.8532 N   0  0  0  0  0
    1.9640   20.0934   68.5181 N   0  0  0  0  0
  1 18  1  0  0  0
  2 18  1  0  0  0
  2  3  1  0  0  0
  2 19  1  0  0  0
  3  4  1  0  0  0
  3 25  1  0  0  0
  4  5  1  0  0  0
  4 26  1  0  0  0
  5  6  1  0  0  0
  5 21  1  0  0  0
  6 19  1  0  0  0
  6  7  1  0  0  0
  7 20  1  0  0  0
  9  8  1  0  0  0
  9 27  1  0  0  0
 10 24  1  0  0  0
 11 24  1  0  0  0
 11 12  1  0  0  0
 13 14  1  0  0  0
 15 16  1  0  0  0
 17 12  1  0  0  0
 26  8  1  0  0  0
 27 10  1  0  0  0
  8 22  2  0  0  0
 10 23  2  0  0  0
 12 13  2  0  0  0
 14 15  2  0  0  0
 16 17  2  0  0  0
M  END
> <rmsd>
0.442792833

$$$$
PubChem-92239072 4900921 ZINC000004900921


 27 28  0  0  0  0  0  0  0  0999 V2000
   -2.5124   26.9659   65.7899 C   0  0  0  0  0
   -2.5907   25.0224   66.8417 C   0  0  0  0  0
   -1.6871   23.7948   66.6573 C   0  0  0  0  0
   -1.4454   23.1368   68.0184 C   0  0  0  0  0
   -2.7642   22.9466   68.7810 C   0  0  0  0  0
   -3.5328   24.2752   68.7544 C   0  0  0  0  0
   -4.8254   24.1842   69.5489 C   0  0  0  0  0
   -0.1666   21.1495   68.9381 C   0  0  0  0  0
    0.5358   19.8614   68.6796 C   0  0  0  0  0
    2.5421   20.6433   67.3439 C   0  0  0  0  0
    4.5755   21.3799   66.1434 C   0  0  0  0  0
    4.7432   20.3120   65.1158 C   0  0  0  0  0
    5.6769   19.2881   65.3119 C   0  0  0  0  0
    5.8246   18.2821   64.3519 C   0  0  0  0  0
    5.0379   18.2981   63.1959 C   0  0  0  0  0
    4.1031   19.3195   63.0000 C   0  0  0  0  0
    3.9552   20.3254   63.9599 C   0  0  0  0  0
   -2.8364   25.6214   65.6047 O   0  0  0  0  0
   -3.8143   24.6407   67.4254 O   0  0  0  0  0
   -4.5407   24.0606   70.9090 O   0  0  0  0  0
   -3.5278   21.9328   68.1913 O   0  0  0  0  0
   -0.2108   21.6126   70.1090 O   0  0  0  0  0
    1.8123   20.9290   66.3548 O   0  0  0  0  0
    3.9203   20.8645   67.2973 O   0  0  0  0  0
   -0.4659   24.1858   66.1051 O   0  0  0  0  0
   -0.7482   21.8675   67.8482 N   0  0  0  0  0
    1.9661   20.0884   68.5281 N   0  0  0  0  0
  1 18  1  0  0  0
  2 18  1  0  0  0
  2  3  1  0  0  0
  2 19  1  0  0  0
  3  4  1  0  0  0
  3 25  1  0  0  0
  4  5  1  0  0  0
  4 26  1  0  0  0
  5  6  1  0  0  0
  5 21  1  0  0  0
  6 19  1  0  0  0
  6  7  1  0  0  0
  7 20  1  0  0  0
  9  8  1  0  0  0
  9 27  1  0  0  0
 10 24  1  0  0  0
 11 24  1  0  0  0
 11 12  1  0  0  0
 13 14  1  0  0  0
 15 16  1  0  0  0
 17 12  1  0  0  0
 26  8  1  0  0  0
 27 10  1  0  0  0
  8 22  2  0  0  0
 10 23  2  0  0  0
 12 13  2  0  0  0
 14 15  2  0  0  0
 16 17  2  0  0  0
M  END
> <rmsd>
0.44127515

$$$$
PubChem-64518309


 18 18  0  0  0  0  0  0  0  0999 V2000
    0.3234   19.3360   66.7586 C   0  0  0  0  0
    0.4971   20.1469   68.0302 C   0  0  0  0  0
    0.5690   21.6396   67.7088 C   0  0  0  0  0
    0.7784   22.4378   68.9576 C   0  0  0  0  0
   -0.7855   23.3206   66.3711 C   0  0  0  0  0
   -2.1635   24.9300   65.0304 C   0  0  0  0  0
   -3.2496   22.9112   66.0209 C   0  0  0  0  0
   -3.7177   22.9790   67.4365 C   0  0  0  0  0
   -4.5297   23.7292   69.2501 C   0  0  0  0  0
   -4.0810   22.4396   69.4585 C   0  0  0  0  0
    1.8182   23.1342   69.0871 O   0  0  0  0  0
   -0.1715   22.4192   69.9721 O   0  0  0  0  0
    0.2239   24.0648   66.2337 O   0  0  0  0  0
    1.6681   19.7347   68.6690 O   0  0  0  0  0
   -0.6621   22.0699   67.0562 N   0  0  0  0  0
   -2.0555   23.7268   65.8394 N   0  0  0  0  0
   -4.2959   24.0695   67.9694 N   0  0  0  0  0
   -3.5649   21.9677   68.3090 N   0  0  0  0  0
  2  1  1  0  0  0
  2  3  1  0  0  0
  2 14  1  0  0  0
  3  4  1  0  0  0
  3 15  1  0  0  0
  4 12  1  0  0  0
  5 16  1  0  0  0
  6 16  1  0  0  0
  7 16  1  0  0  0
  7  8  1  0  0  0
  9 17  1  0  0  0
 10 18  1  0  0  0
 15  5  1  0  0  0
 18  8  1  0  0  0
  4 11  2  0  0  0
  5 13  2  0  0  0
  8 17  2  0  0  0
  9 10  2  0  0  0
M  END
> <rmsd>
0.470805526

$$$$
PubChem-88340630


 18 18  0  0  0  0  0  0  0  0999 V2000
   -4.4541   24.1910   65.5415 C   0  0  0  0  0
   -3.7307   23.8909   66.8082 C   0  0  0  0  0
   -3.0288   22.5738   66.9669 C   0  0  0  0  0
   -1.5225   22.7554   67.1954 C   0  0  0  0  0
   -0.8723   23.4585   66.0470 C   0  0  0  0  0
   -0.1352   21.1590   68.5685 C   0  0  0  0  0
    0.4812   19.8068   68.7132 C   0  0  0  0  0
   -0.1933   19.0257   69.8512 C   0  0  0  0  0
    0.8939   18.6499   70.8564 C   0  0  0  0  0
    2.1068   19.2544   70.2781 C   0  0  0  0  0
   -3.7108   24.7198   67.7049 O   0  0  0  0  0
   -0.2874   24.5560   66.2370 O   0  0  0  0  0
   -0.9066   22.9053   64.7726 O   0  0  0  0  0
   -0.0162   22.0152   69.4874 O   0  0  0  0  0
    3.2422   19.1859   70.8155 O   0  0  0  0  0
   -0.8781   21.4637   67.3883 N   0  0  0  0  0
    1.8860   19.9247   69.0577 N   0  0  0  0  0
   -3.7921   21.6459   68.3381 S   0  0  0  0  0
  1  2  1  0  0  0
  3  2  1  0  0  0
  3 18  1  0  0  0
  4  3  1  0  0  0
  4  5  1  0  0  0
  4 16  1  0  0  0
  5 13  1  0  0  0
  7  6  1  0  0  0
  7  8  1  0  0  0
  7 17  1  0  0  0
  8  9  1  0  0  0
  9 10  1  0  0  0
 10 17  1  0  0  0
 16  6  1  0  0  0
  2 11  2  0  0  0
  5 12  2  0  0  0
  6 14  2  0  0  0
 10 15  2  0  0  0
M  END
> <rmsd>
0.414171845

$$$$
PubChem-88340630


 18 18  0  0  0  0  0  0  0  0999 V2000
   -4.4839   24.1416   65.5395 C   0  0  0  0  0
   -3.7487   23.8596   66.8036 C   0  0  0  0  0
   -3.0522   22.5416   66.9778 C   0  0  0  0  0
   -1.5423   22.7195   67.1878 C   0  0  0  0  0
   -0.8959   23.4061   66.0254 C   0  0  0  0  0
   -0.1436   21.1459   68.5758 C   0  0  0  0  0
    0.4689   19.7941   68.7409 C   0  0  0  0  0
   -0.1931   19.0406   69.9045 C   0  0  0  0  0
    0.9060   18.6812   70.9025 C   0  0  0  0  0
    2.1135   19.2677   70.2949 C   0  0  0  0  0
   -3.7151   24.7037   67.6856 O   0  0  0  0  0
   -0.9297   22.8897   64.8769 O   0  0  0  0  0
   -0.2507   24.6199   66.2170 O   0  0  0  0  0
   -0.0084   22.0208   69.4746 O   0  0  0  0  0
    3.2560   19.2053   70.8179 O   0  0  0  0  0
   -0.9011   21.4289   67.3996 N   0  0  0  0  0
    1.8788   19.9129   69.0634 N   0  0  0  0  0
   -3.8059   21.6416   68.3727 S   0  0  0  0  0
  1  2  1  0  0  0
  3  2  1  0  0  0
  3 18  1  0  0  0
  4  3  1  0  0  0
  4  5  1  0  0  0
  4 16  1  0  0  0
  5 13  1  0  0  0
  7  6  1  0  0  0
  7  8  1  0  0  0
  7 17  1  0  0  0
  8  9  1  0  0  0
  9 10  1  0  0  0
 10 17  1  0  0  0
 16  6  1  0  0  0
  2 11  2  0  0  0
  5 12  2  0  0  0
  6 14  2  0  0  0
 10 15  2  0  0  0
M  END
> <rmsd>
0.426015139

$$$$
PubChem-108450412


 20 20  0  0  0  0  0  0  0  0999 V2000
    4.0934   16.2930   69.4244 C   0  0  0  0  0
    3.9694   16.9021   68.0385 C   0  0  0  0  0
    3.2150   15.9519   67.1246 C   0  0  0  0  0
    5.3612   17.1021   67.4771 C   0  0  0  0  0
    2.0089   18.3715   68.5693 C   0  0  0  0  0
    0.1250   19.9740   69.0498 C   0  0  0  0  0
   -0.1514   21.4298   68.9317 C   0  0  0  0  0
   -0.9144   23.3744   67.4741 C   0  0  0  0  0
    0.3234   24.2194   67.4244 C   0  0  0  0  0
   -1.0205   23.7221   66.0189 C   0  0  0  0  0
   -2.0230   23.9560   68.3512 C   0  0  0  0  0
   -3.3525   23.3316   68.0753 C   0  0  0  0  0
    3.3143   18.1715   68.1004 O   0  0  0  0  0
    1.3135   17.4014   68.9791 O   0  0  0  0  0
    0.0644   22.1870   69.9151 O   0  0  0  0  0
    0.1530   24.4964   66.0561 O   0  0  0  0  0
   -4.2787   24.0279   67.5854 O   0  0  0  0  0
    1.4709   19.6932   68.5780 N   0  0  0  0  0
   -0.6253   21.9601   67.6905 N   0  0  0  0  0
   -3.5866   21.9630   68.3884 N   0  0  0  0  0
  1  2  1  0  0  0
  2  3  1  0  0  0
  2  4  1  0  0  0
  2 13  1  0  0  0
  5 13  1  0  0  0
  5 18  1  0  0  0
  6 18  1  0  0  0
  6  7  1  0  0  0
  7 19  1  0  0  0
  8 19  1  0  0  0
  8  9  1  0  0  0
  8 11  1  0  0  0
  9 16  1  0  0  0
 10 16  1  0  0  0
 10  8  1  0  0  0
 11 12  1  0  0  0
 12 20  1  0  0  0
  5 14  2  0  0  0
  7 15  2  0  0  0
 12 17  2  0  0  0
M  END
> <rmsd>
0.430794895

$$$$
PubChem-18220924


 18 17  0  0  0  0  0  0  0  0999 V2000
    1.0467   21.9427   62.7112 C   0  0  0  0  0
    0.8363   23.1120   63.6536 C   0  0  0  0  0
    0.2225   24.2590   62.9167 C   0  0  0  0  0
   -0.1891   23.4811   65.9436 C   0  0  0  0  0
   -1.1165   23.0225   67.0174 C   0  0  0  0  0
   -2.5526   23.0372   66.5123 C   0  0  0  0  0
   -3.5239   23.0346   67.6448 C   0  0  0  0  0
   -0.2464   21.4254   68.7643 C   0  0  0  0  0
    0.1355   20.0403   69.1471 C   0  0  0  0  0
   -0.9208   24.1507   62.3986 O   0  0  0  0  0
    0.9172   25.4560   62.8085 O   0  0  0  0  0
    0.4387   24.5634   66.0907 O   0  0  0  0  0
   -4.2643   24.0340   67.8334 O   0  0  0  0  0
   -0.0987   22.3648   69.5909 O   0  0  0  0  0
   -0.0193   22.6983   64.7574 N   0  0  0  0  0
   -3.6382   21.8993   68.4959 N   0  0  0  0  0
   -0.7458   21.6832   67.4519 N   0  0  0  0  0
    1.5069   19.7835   68.7459 N   0  0  0  0  0
  2  1  1  0  0  0
  2  3  1  0  0  0
  2 15  1  0  0  0
  3 11  1  0  0  0
  5  4  1  0  0  0
  5  6  1  0  0  0
  5 17  1  0  0  0
  6  7  1  0  0  0
  7 16  1  0  0  0
  9  8  1  0  0  0
  9 18  1  0  0  0
 15  4  1  0  0  0
 17  8  1  0  0  0
  3 10  2  0  0  0
  4 12  2  0  0  0
  7 13  2  0  0  0
  8 14  2  0  0  0
M  END
> <rmsd>
0.433191836

$$$$
PubChem-102519649


 28 29  0  0  0  0  0  0  0  0999 V2000
   -2.7485   20.0432   69.2064 C   0  0  0  0  0
   -2.4771   21.5318   69.2998 C   0  0  0  0  0
   -1.0389   21.8059   69.0038 C   0  0  0  0  0
    0.7946   21.9476   67.1703 C   0  0  0  0  0
    1.9767   21.2836   67.8973 C   0  0  0  0  0
    2.4734   22.0909   69.0993 C   0  0  0  0  0
    2.4968   23.5884   68.7536 C   0  0  0  0  0
    0.9802   23.4724   67.0879 C   0  0  0  0  0
    0.3684   24.8777   65.4933 C   0  0  0  0  0
    2.9767   24.4231   69.9354 C   0  0  0  0  0
   -3.3991   23.6662   68.2927 C   0  0  0  0  0
   -2.6404   25.8673   69.1310 C   0  0  0  0  0
   -3.8127   26.3643   69.9060 C   0  0  0  0  0
   -4.9561   26.8128   69.2356 C   0  0  0  0  0
   -6.0623   27.2631   69.9625 C   0  0  0  0  0
   -6.0275   27.2627   71.3606 C   0  0  0  0  0
   -4.8867   26.8111   72.0319 C   0  0  0  0  0
   -3.7803   26.3605   71.3051 C   0  0  0  0  0
   -0.3063   22.2692   69.9154 O   0  0  0  0  0
    1.2157   24.0182   68.3613 O   0  0  0  0  0
   -0.1419   24.0739   66.5130 O   0  0  0  0  0
    2.0864   24.3179   71.0061 O   0  0  0  0  0
    3.7546   21.6585   69.4467 O   0  0  0  0  0
    1.6685   19.9754   68.2763 O   0  0  0  0  0
   -4.1645   24.2101   67.4524 O   0  0  0  0  0
   -2.6060   24.4450   69.1416 O   0  0  0  0  0
   -0.5204   21.5574   67.6901 N   0  0  0  0  0
   -3.3367   22.2408   68.3606 N   0  0  0  0  0
  1  2  1  0  0  0
  2  3  1  0  0  0
  2 28  1  0  0  0
  3 27  1  0  0  0
  4 27  1  0  0  0
  4  5  1  0  0  0
  5  6  1  0  0  0
  5 24  1  0  0  0
  6  7  1  0  0  0
  6 23  1  0  0  0
  7 20  1  0  0  0
  7 10  1  0  0  0
  8 20  1  0  0  0
  8 21  1  0  0  0
  8  4  1  0  0  0
  9 21  1  0  0  0
 10 22  1  0  0  0
 11 26  1  0  0  0
 12 26  1  0  0  0
 12 13  1  0  0  0
 14 15  1  0  0  0
 16 17  1  0  0  0
 18 13  1  0  0  0
 28 11  1  0  0  0
  3 19  2  0  0  0
 11 25  2  0  0  0
 13 14  2  0  0  0
 15 16  2  0  0  0
 17 18  2  0  0  0
M  END
> <rmsd>
0.492572606

$$$$
PubChem-162538010


 33 35  0  0  0  0  0  0  0  0999 V2000
    2.1877   21.2159   70.0810 C   0  0  0  0  0
    0.9824   20.5875   69.4086 C   0  0  0  0  0
   -0.0435   21.6359   69.1025 C   0  0  0  0  0
   -1.4010   22.9327   67.3994 C   0  0  0  0  0
   -2.7676   22.2388   67.3121 C   0  0  0  0  0
   -3.8154   23.1441   66.6582 C   0  0  0  0  0
   -3.2197   23.7233   65.3666 C   0  0  0  0  0
   -1.0701   23.5624   66.0381 C   0  0  0  0  0
    0.8924   23.7229   65.0309 C   0  0  0  0  0
   -4.2361   24.5815   64.6146 C   0  0  0  0  0
   -6.6530   23.9815   64.6087 C   0  0  0  0  0
   -7.3781   22.9880   63.9739 C   0  0  0  0  0
   -8.8285   22.7617   64.0790 C   0  0  0  0  0
   -9.4285   21.7080   63.3764 C   0  0  0  0  0
  -10.8108   21.4877   63.4596 C   0  0  0  0  0
  -11.5884   22.3142   64.2828 C   0  0  0  0  0
  -10.9972   23.3660   64.9872 C   0  0  0  0  0
   -9.6222   23.5906   64.8837 C   0  0  0  0  0
  -11.4363   20.3253   62.7451 C   0  0  0  0  0
   -0.6151   22.2345   70.0534 O   0  0  0  0  0
   -2.0727   24.4800   65.6717 O   0  0  0  0  0
    0.1576   24.2247   66.1058 O   0  0  0  0  0
   -3.6420   25.1481   63.4852 O   0  0  0  0  0
   -4.1795   24.1766   67.5296 O   0  0  0  0  0
   -3.1981   21.8333   68.5769 O   0  0  0  0  0
   -0.3742   21.9594   67.7480 N   0  0  0  0  0
   -5.3849   23.7826   64.2107 N   0  0  0  0  0
   -6.5425   22.2371   63.2269 N   0  0  0  0  0
   -5.3326   22.7461   63.3907 N   0  0  0  0  0
    1.4083   19.9016   68.1996 N   0  0  0  0  0
  -12.7525   20.6079   62.4229 F   0  0  0  0  0
  -11.4011   19.2128   63.5649 F   0  0  0  0  0
  -10.7463   20.0485   61.5775 F   0  0  0  0  0
  2  1  1  0  0  0
  2  3  1  0  0  0
  2 30  1  0  0  0
  3 26  1  0  0  0
  4 26  1  0  0  0
  4  5  1  0  0  0
  5  6  1  0  0  0
  5 25  1  0  0  0
  6  7  1  0  0  0
  6 24  1  0  0  0
  7 21  1  0  0  0
  7 10  1  0  0  0
  8 21  1  0  0  0
  8 22  1  0  0  0
  8  4  1  0  0  0
  9 22  1  0  0  0
 10 27  1  0  0  0
 10 23  1  0  0  0
 12 28  1  0  0  0
 12 13  1  0  0  0
 14 15  1  0  0  0
 16 17  1  0  0  0
 18 13  1  0  0  0
 19 15  1  0  0  0
 19 31  1  0  0  0
 19 32  1  0  0  0
 19 33  1  0  0  0
 27 11  1  0  0  0
 27 29  1  0  0  0
  3 20  2  0  0  0
 11 12  2  0  0  0
 13 14  2  0  0  0
 15 16  2  0  0  0
 17 18  2  0  0  0
 28 29  2  0  0  0
M  END
> <rmsd>
0.583726704

$$$$
PubChem-42930220


 24 25  0  0  0  0  0  0  0  0999 V2000
    2.9532   23.4766   67.0172 C   0  0  0  0  0
    1.7239   23.0987   69.1524 C   0  0  0  0  0
    1.0717   21.7780   69.3868 C   0  0  0  0  0
    1.0321   19.2857   68.7948 C   0  0  0  0  0
    0.0526   18.9442   69.7384 C   0  0  0  0  0
   -0.4175   17.6315   69.8345 C   0  0  0  0  0
    0.0981   16.6430   68.9795 C   0  0  0  0  0
    1.0781   16.9807   68.0418 C   0  0  0  0  0
    1.5426   18.2953   67.9508 C   0  0  0  0  0
    0.4852   23.8995   67.0940 C   0  0  0  0  0
   -0.8235   23.8966   67.8218 C   0  0  0  0  0
   -1.8538   23.0392   67.0969 C   0  0  0  0  0
   -3.1751   23.1231   67.7904 C   0  0  0  0  0
   -2.5872   20.9983   67.9039 C   0  0  0  0  0
    1.6904   23.4519   67.7376 N   0  0  0  0  0
    1.5306   20.6240   68.6697 N   0  0  0  0  0
   -3.6330   21.8738   68.2854 N   0  0  0  0  0
   -1.5133   21.6261   67.2159 N   0  0  0  0  0
    0.1306   21.6977   70.2198 O   0  0  0  0  0
    0.5231   24.3209   65.9059 O   0  0  0  0  0
   -3.8407   24.1848   67.9118 O   0  0  0  0  0
   -2.6107   19.7644   68.1475 O   0  0  0  0  0
   -0.4585   14.9795   69.0569 Cl  0  0  0  0  0
   -1.6509   17.2639   71.0284 Cl  0  0  0  0  0
  1 15  1  0  0  0
  2 15  1  0  0  0
  2  3  1  0  0  0
  3 16  1  0  0  0
  5  6  1  0  0  0
  6 24  1  0  0  0
  7  8  1  0  0  0
  7 23  1  0  0  0
  9  4  1  0  0  0
 11 10  1  0  0  0
 12 11  1  0  0  0
 12 13  1  0  0  0
 12 18  1  0  0  0
 13 17  1  0  0  0
 14 18  1  0  0  0
 15 10  1  0  0  0
 16  4  1  0  0  0
 17 14  1  0  0  0
  3 19  2  0  0  0
  4  5  2  0  0  0
  6  7  2  0  0  0
  8  9  2  0  0  0
 10 20  2  0  0  0
 13 21  2  0  0  0
 14 22  2  0  0  0
M  END
> <rmsd>
0.523360133

$$$$
PubChem-18218248


 23 24  0  0  0  0  0  0  0  0999 V2000
   -3.8502   17.2191   67.8775 C   0  0  0  0  0
   -5.1364   17.6790   68.2355 C   0  0  0  0  0
   -5.2931   18.6668   69.2253 C   0  0  0  0  0
   -4.1410   19.1651   69.8301 C   0  0  0  0  0
   -2.8969   18.7175   69.4801 C   0  0  0  0  0
   -2.7047   17.7412   68.5045 C   0  0  0  0  0
   -2.0030   19.4129   70.2546 C   0  0  0  0  0
   -2.7568   20.2674   71.0508 C   0  0  0  0  0
   -0.5138   19.2926   70.2558 C   0  0  0  0  0
    0.0968   19.8642   68.9814 C   0  0  0  0  0
   -0.0216   21.3539   68.9346 C   0  0  0  0  0
   -0.8681   23.4088   67.7340 C   0  0  0  0  0
   -2.0706   23.8596   68.5722 C   0  0  0  0  0
   -3.3837   23.3387   68.0765 C   0  0  0  0  0
   -0.9578   23.8464   66.3068 C   0  0  0  0  0
   -4.0790   20.1104   70.7860 N   0  0  0  0  0
   -0.6694   21.9682   67.8197 N   0  0  0  0  0
   -3.6522   21.9415   68.0665 N   0  0  0  0  0
    1.4956   19.4822   68.9039 N   0  0  0  0  0
    0.4604   22.0596   69.8625 O   0  0  0  0  0
   -4.2633   24.1457   67.6798 O   0  0  0  0  0
   -0.1708   24.7287   65.8768 O   0  0  0  0  0
   -1.8898   23.2772   65.4470 O   0  0  0  0  0
  2  3  1  0  0  0
  4  5  1  0  0  0
  5  7  1  0  0  0
  6  1  1  0  0  0
  8 16  1  0  0  0
  9  7  1  0  0  0
 10  9  1  0  0  0
 10 11  1  0  0  0
 10 19  1  0  0  0
 11 17  1  0  0  0
 12 17  1  0  0  0
 12 13  1  0  0  0
 12 15  1  0  0  0
 13 14  1  0  0  0
 14 18  1  0  0  0
 15 23  1  0  0  0
 16  4  1  0  0  0
  1  2  2  0  0  0
  3  4  2  0  0  0
  5  6  2  0  0  0
  7  8  2  0  0  0
 11 20  2  0  0  0
 14 21  2  0  0  0
 15 22  2  0  0  0
M  END
> <rmsd>
0.534904063

$$$$
PubChem-18218190


 17 16  0  0  0  0  0  0  0  0999 V2000
   -0.9367   19.2175   69.1801 C   0  0  0  0  0
    0.2696   20.1362   69.3184 C   0  0  0  0  0
   -0.1240   21.5460   69.0349 C   0  0  0  0  0
   -1.0342   23.2494   67.3336 C   0  0  0  0  0
   -2.0659   23.8605   68.2776 C   0  0  0  0  0
   -3.4053   23.2283   68.0980 C   0  0  0  0  0
    0.1550   24.1394   67.1706 C   0  0  0  0  0
   -0.7005   17.9106   69.8596 C   0  0  0  0  0
   -0.0070   22.4110   69.9429 O   0  0  0  0  0
   -4.3641   23.9135   67.6578 O   0  0  0  0  0
    0.4992   24.5095   66.0185 O   0  0  0  0  0
    0.8860   24.5609   68.2746 O   0  0  0  0  0
    0.1816   17.1200   69.4331 O   0  0  0  0  0
   -1.4744   17.5550   70.9556 O   0  0  0  0  0
   -0.6379   21.9025   67.7439 N   0  0  0  0  0
   -3.6126   21.8638   68.4465 N   0  0  0  0  0
    1.3212   19.7270   68.4017 N   0  0  0  0  0
  1  8  1  0  0  0
  2  1  1  0  0  0
  2  3  1  0  0  0
  2 17  1  0  0  0
  3 15  1  0  0  0
  4 15  1  0  0  0
  4  5  1  0  0  0
  4  7  1  0  0  0
  5  6  1  0  0  0
  6 16  1  0  0  0
  7 12  1  0  0  0
  8 14  1  0  0  0
  3  9  2  0  0  0
  6 10  2  0  0  0
  7 11  2  0  0  0
  8 13  2  0  0  0
M  END
> <rmsd>
0.547134697

$$$$
PubChem-80757463


 18 17  0  0  0  0  0  0  0  0999 V2000
   -2.1878   26.6451   66.7547 C   0  0  0  0  0
   -2.9258   26.0028   65.5957 C   0  0  0  0  0
   -2.0897   24.8857   64.9902 C   0  0  0  0  0
   -3.2293   22.9193   66.0587 C   0  0  0  0  0
   -3.7536   23.0445   67.4505 C   0  0  0  0  0
   -3.9479   22.0973   69.7766 C   0  0  0  0  0
   -0.7705   23.3229   66.4380 C   0  0  0  0  0
    0.5556   21.6511   67.8078 C   0  0  0  0  0
    0.4570   20.1686   68.1243 C   0  0  0  0  0
    0.7675   22.4394   69.0607 C   0  0  0  0  0
   -2.0302   23.7339   65.8841 N   0  0  0  0  0
   -3.4858   22.0144   68.4017 N   0  0  0  0  0
   -0.6674   22.0843   67.1479 N   0  0  0  0  0
   -4.4149   24.0651   67.7802 O   0  0  0  0  0
    0.2491   24.0526   66.2969 O   0  0  0  0  0
    1.7040   19.6790   68.5145 O   0  0  0  0  0
    1.8169   23.1189   69.2012 O   0  0  0  0  0
   -0.1898   22.4309   70.0684 O   0  0  0  0  0
  1  2  1  0  0  0
  2  3  1  0  0  0
  3 11  1  0  0  0
  4 11  1  0  0  0
  4  5  1  0  0  0
  5 12  1  0  0  0
  6 12  1  0  0  0
  7 13  1  0  0  0
  8 13  1  0  0  0
  8  9  1  0  0  0
  8 10  1  0  0  0
  9 16  1  0  0  0
 10 18  1  0  0  0
 11  7  1  0  0  0
  5 14  2  0  0  0
  7 15  2  0  0  0
 10 17  2  0  0  0
M  END
> <rmsd>
0.520049751

$$$$
PubChem-140643810


 33 37  0  0  0  0  0  0  0  0999 V2000
   -4.9277   25.0524   72.6424 C   0  0  0  0  0
   -4.2432   24.8813   71.2944 C   0  0  0  0  0
   -3.0735   23.9450   71.5238 C   0  0  0  0  0
   -3.9402   24.5737   73.6887 C   0  0  0  0  0
   -1.8617   23.1333   73.6228 C   0  0  0  0  0
   -0.7782   22.4193   72.8698 C   0  0  0  0  0
    0.2517   23.3834   72.2691 C   0  0  0  0  0
   -0.0023   23.6369   70.7789 C   0  0  0  0  0
   -0.3291   21.1713   70.7521 C   0  0  0  0  0
   -1.3317   21.3980   71.8750 C   0  0  0  0  0
    1.0337   22.3140   69.0673 C   0  0  0  0  0
    2.3579   21.9337   69.7575 C   0  0  0  0  0
    2.5107   20.4160   69.8728 C   0  0  0  0  0
    1.0066   19.9827   68.0963 C   0  0  0  0  0
    0.7580   21.4615   67.8125 C   0  0  0  0  0
   -1.0657   22.8903   66.7808 C   0  0  0  0  0
   -2.5226   23.1112   66.5248 C   0  0  0  0  0
   -3.2630   23.2661   67.8424 C   0  0  0  0  0
   -3.1660   21.8964   65.9051 C   0  0  0  0  0
   -5.0236   21.2561   64.5477 C   0  0  0  0  0
   -5.7769   20.6790   65.7268 C   0  0  0  0  0
   -4.7672   20.1935   66.7589 C   0  0  0  0  0
   -2.9068   23.8660   72.9609 N   0  0  0  0  0
   -0.1243   22.4059   69.9735 N   0  0  0  0  0
    2.3784   19.7910   68.5593 N   0  0  0  0  0
   -0.6046   21.6528   67.3338 N   0  0  0  0  0
   -4.1911   22.1443   67.9551 N   0  0  0  0  0
   -3.7121   21.1717   67.0614 N   0  0  0  0  0
   -4.2196   22.3773   65.0053 N   0  0  0  0  0
   -4.0077   24.5121   67.8401 N   0  0  0  0  0
   -1.8309   23.0960   74.8818 O   0  0  0  0  0
   -0.2530   23.8239   66.5464 O   0  0  0  0  0
   -6.6115   21.6341   66.2804 F   0  0  0  0  0
  1  2  1  0  0  0
  2  3  1  0  0  0
  3 23  1  0  0  0
  4 23  1  0  0  0
  4  1  1  0  0  0
  6  5  1  0  0  0
  6  7  1  0  0  0
  7  8  1  0  0  0
  8 24  1  0  0  0
  9 24  1  0  0  0
  9 10  1  0  0  0
 10  6  1  0  0  0
 11 24  1  0  0  0
 11 12  1  0  0  0
 12 13  1  0  0  0
 13 25  1  0  0  0
 14 25  1  0  0  0
 14 15  1  0  0  0
 15 26  1  0  0  0
 15 11  1  0  0  0
 17 16  1  0  0  0
 17 18  1  0  0  0
 18 27  1  0  0  0
 18 30  1  0  0  0
 19 28  1  0  0  0
 19 29  1  0  0  0
 19 17  1  0  0  0
 20 29  1  0  0  0
 20 21  1  0  0  0
 21 22  1  0  0  0
 21 33  1  0  0  0
 22 28  1  0  0  0
 23  5  1  0  0  0
 26 16  1  0  0  0
 27 28  1  0  0  0
  5 31  2  0  0  0
 16 32  2  0  0  0
M  END
> <rmsd>
0.560463369

$$$$
PubChem-101446401


 22 22  0  0  0  0  0  0  0  0999 V2000
   -4.3014   18.2604   69.7975 C   0  0  0  0  0
   -3.3450   17.4864   69.1330 C   0  0  0  0  0
   -1.9861   17.7880   69.2661 C   0  0  0  0  0
   -1.5820   18.8642   70.0654 C   0  0  0  0  0
   -2.5408   19.6377   70.7286 C   0  0  0  0  0
   -3.8994   19.3357   70.5955 C   0  0  0  0  0
   -0.1340   19.2047   70.1953 C   0  0  0  0  0
    0.3915   19.8780   68.9327 C   0  0  0  0  0
   -0.1538   21.2617   68.7835 C   0  0  0  0  0
   -1.6199   22.8596   67.4782 C   0  0  0  0  0
   -1.9253   23.0537   66.0007 C   0  0  0  0  0
   -2.0569   24.5335   65.6540 C   0  0  0  0  0
   -0.7394   25.2470   65.5892 C   0  0  0  0  0
    0.1175   22.1489   69.6381 O   0  0  0  0  0
    0.3480   24.6347   65.7656 O   0  0  0  0  0
   -0.7205   26.6089   65.3223 O   0  0  0  0  0
   -3.9486   24.4042   68.1678 O   0  0  0  0  0
   -4.1748   21.6589   68.0072 O   0  0  0  0  0
   -2.7993   22.8159   70.1004 O   0  0  0  0  0
   -0.9852   21.5639   67.6624 N   0  0  0  0  0
    1.8427   19.9200   68.9695 N   0  0  0  0  0
   -3.1593   22.9359   68.4528 P   0  0  0  0  0
  2  3  1  0  0  0
  4  5  1  0  0  0
  6  1  1  0  0  0
  7  4  1  0  0  0
  8  7  1  0  0  0
  8  9  1  0  0  0
  8 21  1  0  0  0
  9 20  1  0  0  0
 10 20  1  0  0  0
 10 11  1  0  0  0
 10 22  1  0  0  0
 11 12  1  0  0  0
 12 13  1  0  0  0
 13 16  1  0  0  0
 22 17  1  0  0  0
 22 18  1  0  0  0
 22 19  1  0  0  0
  1  2  2  0  0  0
  3  4  2  0  0  0
  5  6  2  0  0  0
  9 14  2  0  0  0
 13 15  2  0  0  0
M  CHG  2  22   1  19  -1
M  END
> <rmsd>
0.451674134

$$$$
PubChem-101663233


 27 29  0  0  0  0  0  0  0  0999 V2000
   -4.4798   26.4720   75.7144 C   0  0  0  0  0
   -3.5765   27.3132   74.8310 C   0  0  0  0  0
   -1.9646   25.5811   74.1002 C   0  0  0  0  0
   -1.4214   24.7487   73.0147 C   0  0  0  0  0
   -1.9213   24.8787   71.7124 C   0  0  0  0  0
   -1.4100   24.0906   70.6780 C   0  0  0  0  0
   -0.3945   23.1639   70.9315 C   0  0  0  0  0
    0.1085   23.0313   72.2350 C   0  0  0  0  0
   -0.4027   23.8195   73.2698 C   0  0  0  0  0
    1.1294   21.4306   70.0315 C   0  0  0  0  0
    1.4301   20.7859   68.6919 C   0  0  0  0  0
    2.0879   21.7946   67.7670 C   0  0  0  0  0
   -0.0703   22.6017   66.5423 C   0  0  0  0  0
   -1.3404   24.2158   66.9454 C   0  0  0  0  0
   -1.9942   23.0700   67.2348 C   0  0  0  0  0
   -3.2880   23.1136   67.7343 C   0  0  0  0  0
   -3.1784   25.4920   67.6127 C   0  0  0  0  0
   -2.9773   26.5063   73.8239 O   0  0  0  0  0
   -1.5132   25.4628   75.2730 O   0  0  0  0  0
    0.0934   22.3923   69.8750 O   0  0  0  0  0
    2.2833   19.6992   68.8760 O   0  0  0  0  0
    1.3852   21.6618   66.0955 S   0  0  0  0  0
   -0.1043   23.9612   66.4988 N   0  0  0  0  0
   -1.2118   22.0106   66.9894 N   0  0  0  0  0
   -3.8603   24.3401   67.9140 N   0  0  0  0  0
   -1.9021   25.4358   67.1238 N   0  0  0  0  0
   -3.9993   21.9247   68.0595 N   0  0  0  0  0
  1  2  1  0  0  0
  2 18  1  0  0  0
  3 18  1  0  0  0
  3  4  1  0  0  0
  5  6  1  0  0  0
  7  8  1  0  0  0
  7 20  1  0  0  0
  9  4  1  0  0  0
 10 20  1  0  0  0
 11 10  1  0  0  0
 11 12  1  0  0  0
 11 21  1  0  0  0
 12 22  1  0  0  0
 13 22  1  0  0  0
 14 23  1  0  0  0
 14 26  1  0  0  0
 15 24  1  0  0  0
 15 16  1  0  0  0
 16 27  1  0  0  0
 17 25  1  0  0  0
 24 13  1  0  0  0
  3 19  2  0  0  0
  4  5  2  0  0  0
  6  7  2  0  0  0
  8  9  2  0  0  0
 13 23  2  0  0  0
 14 15  2  0  0  0
 16 25  2  0  0  0
 17 26  2  0  0  0
M  END
> <rmsd>
0.497674435

$$$$
PubChem-11929711


 24 25  0  0  0  0  0  0  0  0999 V2000
    3.6875   19.7269   68.8602 C   0  0  0  0  0
    2.7600   20.9013   69.1143 C   0  0  0  0  0
    3.2404   22.1232   68.3921 C   0  0  0  0  0
    3.3650   22.1390   66.9943 C   0  0  0  0  0
    3.8179   23.2903   66.3434 C   0  0  0  0  0
    4.1419   24.4307   67.0834 C   0  0  0  0  0
    4.0153   24.4197   68.4753 C   0  0  0  0  0
    3.5673   23.2677   69.1283 C   0  0  0  0  0
    0.2632   21.3199   69.1007 C   0  0  0  0  0
   -1.0986   20.8860   68.6796 C   0  0  0  0  0
   -2.4021   20.4864   66.7021 C   0  0  0  0  0
   -3.7378   20.4785   67.4567 C   0  0  0  0  0
   -3.2313   22.9246   67.8668 C   0  0  0  0  0
   -1.8291   22.7611   67.3547 C   0  0  0  0  0
   -1.6966   23.4028   65.9766 C   0  0  0  0  0
   -0.2686   23.4902   65.5552 C   0  0  0  0  0
    1.4806   22.8871   63.9321 C   0  0  0  0  0
    1.4043   20.5553   68.7076 N   0  0  0  0  0
   -1.3917   21.3535   67.3252 N   0  0  0  0  0
   -4.1317   21.8172   67.8796 N   0  0  0  0  0
    0.3966   22.3647   69.7916 O   0  0  0  0  0
   -3.6190   24.0486   68.2782 O   0  0  0  0  0
    0.5429   24.1860   66.2259 O   0  0  0  0  0
    0.1457   22.8107   64.4087 O   0  0  0  0  0
  2  1  1  0  0  0
  2  3  1  0  0  0
  2 18  1  0  0  0
  4  5  1  0  0  0
  6  7  1  0  0  0
  8  3  1  0  0  0
 10  9  1  0  0  0
 11 12  1  0  0  0
 12 20  1  0  0  0
 14 13  1  0  0  0
 14 15  1  0  0  0
 14 19  1  0  0  0
 15 16  1  0  0  0
 16 24  1  0  0  0
 17 24  1  0  0  0
 18  9  1  0  0  0
 19 10  1  0  0  0
 19 11  1  0  0  0
 20 13  1  0  0  0
  3  4  2  0  0  0
  5  6  2  0  0  0
  7  8  2  0  0  0
  9 21  2  0  0  0
 13 22  2  0  0  0
 16 23  2  0  0  0
M  CHG  1  19   1
M  END
> <rmsd>
0.593896568

$$$$
PubChem-137334796 1772706087 MCULE-5631426479 MolPort-046-740-300 ZINC001772706087


 35 37  0  0  0  0  0  0  0  0999 V2000
   -1.8395   20.3991   63.0280 C   0  0  0  0  0
   -0.8484   21.0515   63.9676 C   0  0  0  0  0
    0.3970   20.1894   64.0527 C   0  0  0  0  0
   -1.4819   21.1913   65.3410 C   0  0  0  0  0
   -0.6806   22.1372   66.2232 C   0  0  0  0  0
    0.0382   21.5900   68.5803 C   0  0  0  0  0
    1.4610   21.3948   68.1467 C   0  0  0  0  0
    2.2214   22.7032   68.2298 C   0  0  0  0  0
    2.4448   19.0835   68.4839 C   0  0  0  0  0
    2.0285   18.6454   67.1109 C   0  0  0  0  0
    1.0697   17.4596   67.1676 C   0  0  0  0  0
   -0.2983   17.8928   67.5779 C   0  0  0  0  0
   -0.5887   18.1491   68.9230 C   0  0  0  0  0
   -1.8579   18.6012   69.2925 C   0  0  0  0  0
   -2.8449   18.8005   68.3227 C   0  0  0  0  0
   -2.5630   18.5015   66.9797 C   0  0  0  0  0
   -1.2940   18.0485   66.6101 C   0  0  0  0  0
   -5.0905   19.7348   67.7966 C   0  0  0  0  0
   -4.6277   20.9534   67.0102 C   0  0  0  0  0
   -3.7405   23.2750   67.4608 C   0  0  0  0  0
   -3.4468   23.4904   66.0026 C   0  0  0  0  0
   -4.5067   24.3946   65.3998 C   0  0  0  0  0
   -3.8710   25.7725   65.2874 C   0  0  0  0  0
   -2.3716   25.5492   65.3358 C   0  0  0  0  0
   -0.8835   23.5807   65.8643 C   0  0  0  0  0
   -0.9783   21.9095   67.6280 N   0  0  0  0  0
    2.1230   20.3895   68.9669 N   0  0  0  0  0
    3.2003   18.2869   66.3319 N   0  0  0  0  0
   -4.3069   22.0452   67.9167 N   0  0  0  0  0
   -2.1860   24.1930   65.8166 N   0  0  0  0  0
   -0.2654   21.5153   69.8006 O   0  0  0  0  0
    3.0734   18.2884   69.2321 O   0  0  0  0  0
   -4.0852   19.3149   68.7165 O   0  0  0  0  0
   -3.5137   24.1932   68.2934 O   0  0  0  0  0
    0.1370   24.2710   65.6011 O   0  0  0  0  0
  1  2  1  0  0  0
  2  3  1  0  0  0
  2  4  1  0  0  0
  5  4  1  0  0  0
  5 26  1  0  0  0
  5 25  1  0  0  0
  7  6  1  0  0  0
  7  8  1  0  0  0
  7 27  1  0  0  0
 10  9  1  0  0  0
 10 28  1  0  0  0
 10 11  1  0  0  0
 11 12  1  0  0  0
 13 14  1  0  0  0
 15 16  1  0  0  0
 15 33  1  0  0  0
 17 12  1  0  0  0
 18 33  1  0  0  0
 18 19  1  0  0  0
 19 29  1  0  0  0
 21 20  1  0  0  0
 21 22  1  0  0  0
 21 30  1  0  0  0
 22 23  1  0  0  0
 23 24  1  0  0  0
 24 30  1  0  0  0
 26  6  1  0  0  0
 27  9  1  0  0  0
 29 20  1  0  0  0
 30 25  1  0  0  0
  6 31  2  0  0  0
  9 32  2  0  0  0
 12 13  2  0  0  0
 14 15  2  0  0  0
 16 17  2  0  0  0
 20 34  2  0  0  0
 25 35  2  0  0  0
M  END
> <rmsd>
0.50625217

$$$$
PubChem-137334796 1772706087 MCULE-5631426479 MolPort-046-740-300 ZINC001772706087


 35 37  0  0  0  0  0  0  0  0999 V2000
   -1.8391   20.3993   63.0280 C   0  0  0  0  0
   -0.8480   21.0516   63.9677 C   0  0  0  0  0
    0.3974   20.1894   64.0529 C   0  0  0  0  0
   -1.4817   21.1914   65.3411 C   0  0  0  0  0
   -0.6804   22.1373   66.2234 C   0  0  0  0  0
    0.0382   21.5900   68.5805 C   0  0  0  0  0
    1.4611   21.3949   68.1470 C   0  0  0  0  0
    2.2214   22.7034   68.2301 C   0  0  0  0  0
    2.4448   19.0836   68.4843 C   0  0  0  0  0
    2.0285   18.6455   67.1112 C   0  0  0  0  0
    1.0698   17.4598   67.1679 C   0  0  0  0  0
   -0.2982   17.8929   67.5782 C   0  0  0  0  0
   -1.2940   18.0486   66.6103 C   0  0  0  0  0
   -2.5629   18.5017   66.9799 C   0  0  0  0  0
   -2.8449   18.8007   68.3228 C   0  0  0  0  0
   -1.8579   18.6013   69.2927 C   0  0  0  0  0
   -0.5886   18.1492   68.9232 C   0  0  0  0  0
   -5.0904   19.7350   67.7966 C   0  0  0  0  0
   -4.6276   20.9535   67.0102 C   0  0  0  0  0
   -3.7403   23.2752   67.4609 C   0  0  0  0  0
   -3.4466   23.4905   66.0026 C   0  0  0  0  0
   -4.5064   24.3947   65.3998 C   0  0  0  0  0
   -3.8708   25.7725   65.2873 C   0  0  0  0  0
   -2.3713   25.5492   65.3358 C   0  0  0  0  0
   -0.8832   23.5808   65.8644 C   0  0  0  0  0
   -0.9782   21.9096   67.6281 N   0  0  0  0  0
    2.1231   20.3897   68.9673 N   0  0  0  0  0
    3.2004   18.2871   66.3322 N   0  0  0  0  0
   -4.3069   22.0454   67.9167 N   0  0  0  0  0
   -2.1858   24.1931   65.8166 N   0  0  0  0  0
   -0.2655   21.5155   69.8007 O   0  0  0  0  0
    3.0734   18.2885   69.2325 O   0  0  0  0  0
   -4.0851   19.3151   68.7165 O   0  0  0  0  0
   -3.5136   24.1933   68.2933 O   0  0  0  0  0
    0.1372   24.2711   65.6012 O   0  0  0  0  0
  1  2  1  0  0  0
  2  3  1  0  0  0
  2  4  1  0  0  0
  5  4  1  0  0  0
  5 26  1  0  0  0
  5 25  1  0  0  0
  7  6  1  0  0  0
  7  8  1  0  0  0
  7 27  1  0  0  0
 10  9  1  0  0  0
 10 28  1  0  0  0
 10 11  1  0  0  0
 11 12  1  0  0  0
 13 14  1  0  0  0
 15 16  1  0  0  0
 15 33  1  0  0  0
 17 12  1  0  0  0
 18 33  1  0  0  0
 18 19  1  0  0  0
 19 29  1  0  0  0
 21 20  1  0  0  0
 21 22  1  0  0  0
 21 30  1  0  0  0
 22 23  1  0  0  0
 23 24  1  0  0  0
 24 30  1  0  0  0
 26  6  1  0  0  0
 27  9  1  0  0  0
 29 20  1  0  0  0
 30 25  1  0  0  0
  6 31  2  0  0  0
  9 32  2  0  0  0
 12 13  2  0  0  0
 14 15  2  0  0  0
 16 17  2  0  0  0
 20 34  2  0  0  0
 25 35  2  0  0  0
M  END
> <rmsd>
0.50639534

$$$$
PubChem-137334796 1772706087 MCULE-5631426479 MolPort-046-740-300 ZINC001772706087


 35 37  0  0  0  0  0  0  0  0999 V2000
    0.6315   19.7643   64.7289 C   0  0  0  0  0
   -0.7898   19.8287   65.2563 C   0  0  0  0  0
   -1.6661   18.9323   64.4084 C   0  0  0  0  0
   -1.3242   21.2497   65.1790 C   0  0  0  0  0
   -0.5992   22.1825   66.1413 C   0  0  0  0  0
    0.0469   21.4867   68.4880 C   0  0  0  0  0
    1.4392   21.1094   68.0638 C   0  0  0  0  0
    2.2593   22.3552   67.7915 C   0  0  0  0  0
    2.4252   18.9313   68.9344 C   0  0  0  0  0
    2.0377   18.1751   67.6983 C   0  0  0  0  0
    1.1635   16.9764   68.0540 C   0  0  0  0  0
   -0.2856   17.3289   67.9901 C   0  0  0  0  0
   -0.8108   18.3325   68.8107 C   0  0  0  0  0
   -2.1527   18.6968   68.7003 C   0  0  0  0  0
   -2.9886   18.0488   67.7778 C   0  0  0  0  0
   -2.4744   17.0074   66.9980 C   0  0  0  0  0
   -1.1249   16.6522   67.0990 C   0  0  0  0  0
   -4.8201   19.6736   68.1115 C   0  0  0  0  0
   -4.3219   20.8136   67.2415 C   0  0  0  0  0
   -3.7247   23.2534   67.4885 C   0  0  0  0  0
   -3.4344   23.3779   66.0181 C   0  0  0  0  0
   -4.5469   24.1652   65.3499 C   0  0  0  0  0
   -4.0118   25.5788   65.1725 C   0  0  0  0  0
   -2.5005   25.4664   65.2400 C   0  0  0  0  0
   -0.8855   23.6205   65.8314 C   0  0  0  0  0
   -0.9329   21.8859   67.5265 N   0  0  0  0  0
    2.0998   20.3146   69.0910 N   0  0  0  0  0
    3.2315   17.7184   67.0093 N   0  0  0  0  0
   -4.1996   22.0228   68.0379 N   0  0  0  0  0
   -2.2236   24.1509   65.7856 N   0  0  0  0  0
   -0.2677   21.4720   69.7081 O   0  0  0  0  0
    3.0505   18.3420   69.8560 O   0  0  0  0  0
   -4.3210   18.4391   67.6083 O   0  0  0  0  0
   -3.5903   24.2520   68.2450 O   0  0  0  0  0
    0.0920   24.3803   65.5986 O   0  0  0  0  0
  1  2  1  0  0  0
  2  3  1  0  0  0
  2  4  1  0  0  0
  5  4  1  0  0  0
  5 26  1  0  0  0
  5 25  1  0  0  0
  7  6  1  0  0  0
  7  8  1  0  0  0
  7 27  1  0  0  0
 10  9  1  0  0  0
 10 28  1  0  0  0
 10 11  1  0  0  0
 11 12  1  0  0  0
 13 14  1  0  0  0
 15 16  1  0  0  0
 15 33  1  0  0  0
 17 12  1  0  0  0
 18 33  1  0  0  0
 18 19  1  0  0  0
 19 29  1  0  0  0
 21 20  1  0  0  0
 21 22  1  0  0  0
 21 30  1  0  0  0
 22 23  1  0  0  0
 23 24  1  0  0  0
 24 30  1  0  0  0
 26  6  1  0  0  0
 27  9  1  0  0  0
 29 20  1  0  0  0
 30 25  1  0  0  0
  6 31  2  0  0  0
  9 32  2  0  0  0
 12 13  2  0  0  0
 14 15  2  0  0  0
 16 17  2  0  0  0
 20 34  2  0  0  0
 25 35  2  0  0  0
M  END
> <rmsd>
0.47677502

$$$$
PubChem-18949408 ZINC39129431


 30 31  0  0  0  0  0  0  0  0999 V2000
    5.3327   18.9420   68.0387 C   0  0  0  0  0
    4.1998   19.7228   67.4080 C   0  0  0  0  0
    4.0779   21.0752   68.0883 C   0  0  0  0  0
    1.6858   21.5498   67.8098 C   0  0  0  0  0
    0.6415   22.3087   67.2594 C   0  0  0  0  0
    0.9624   23.3299   66.3623 C   0  0  0  0  0
    3.2750   22.8828   66.6515 C   0  0  0  0  0
    2.5930   24.7071   65.1653 C   0  0  0  0  0
    2.7404   26.0049   65.9388 C   0  0  0  0  0
    3.0744   27.1276   64.9799 C   0  0  0  0  0
   -1.2839   21.8120   68.8496 C   0  0  0  0  0
   -2.6871   21.2804   68.9905 C   0  0  0  0  0
   -3.3056   21.6452   70.3401 C   0  0  0  0  0
   -3.5290   20.3473   71.0879 C   0  0  0  0  0
   -3.5694   19.2729   70.0288 C   0  0  0  0  0
   -2.6461   19.7627   68.9364 C   0  0  0  0  0
   -3.8445   23.1497   67.6672 C   0  0  0  0  0
   -4.6859   23.5280   66.4911 C   0  0  0  0  0
    2.9838   21.8481   67.4978 N   0  0  0  0  0
    2.2685   23.6101   66.0779 N   0  0  0  0  0
   -0.7372   22.0272   67.5422 N   0  0  0  0  0
   -3.5410   21.7692   67.9077 N   0  0  0  0  0
    1.3900   20.4331   68.6507 N   0  0  0  0  0
    0.0356   23.9994   65.8257 O   0  0  0  0  0
    4.4801   23.1608   66.3889 O   0  0  0  0  0
   -0.5878   22.0504   69.8750 O   0  0  0  0  0
   -3.3582   24.0486   68.4057 O   0  0  0  0  0
   -5.3380   24.7234   66.7358 F   0  0  0  0  0
   -3.8782   23.6697   65.3785 F   0  0  0  0  0
   -5.6276   22.5448   66.2480 F   0  0  0  0  0
  1  2  1  0  0  0
  2  3  1  0  0  0
  3 19  1  0  0  0
  4 23  1  0  0  0
  5  6  1  0  0  0
  5 21  1  0  0  0
  6 20  1  0  0  0
  7 19  1  0  0  0
  8 20  1  0  0  0
  8  9  1  0  0  0
  9 10  1  0  0  0
 12 11  1  0  0  0
 12 13  1  0  0  0
 12 22  1  0  0  0
 13 14  1  0  0  0
 14 15  1  0  0  0
 15 16  1  0  0  0
 16 12  1  0  0  0
 18 17  1  0  0  0
 18 28  1  0  0  0
 18 29  1  0  0  0
 18 30  1  0  0  0
 19  4  1  0  0  0
 20  7  1  0  0  0
 21 11  1  0  0  0
 22 17  1  0  0  0
  4  5  2  0  0  0
  6 24  2  0  0  0
  7 25  2  0  0  0
 11 26  2  0  0  0
 17 27  2  0  0  0
M  END
> <rmsd>
0.485637367

$$$$
PubChem-143642840 PubChem-143642841


 38 40  0  0  0  0  0  0  0  0999 V2000
   -3.6130   19.7971   68.2365 C   0  0  0  0  0
   -2.9188   18.6440   67.5380 C   0  0  0  0  0
   -2.4126   17.6493   68.5300 C   0  0  0  0  0
   -3.3234   16.8515   69.2347 C   0  0  0  0  0
   -2.8661   15.8849   70.1332 C   0  0  0  0  0
   -1.4950   15.7051   70.3267 C   0  0  0  0  0
   -0.5811   16.4940   69.6238 C   0  0  0  0  0
   -1.0302   17.4727   68.7214 C   0  0  0  0  0
    1.2783   18.0422   68.0285 C   0  0  0  0  0
    2.0072   19.2555   67.4854 C   0  0  0  0  0
    1.5731   21.4848   68.0736 C   0  0  0  0  0
    0.2383   21.6853   68.7218 C   0  0  0  0  0
   -0.9168   21.9242   66.4812 C   0  0  0  0  0
   -0.9106   23.3618   66.0769 C   0  0  0  0  0
   -3.4388   23.4140   65.8057 C   0  0  0  0  0
   -3.9570   23.3704   67.2168 C   0  0  0  0  0
   -3.9681   20.8483   67.2083 C   0  0  0  0  0
   -4.4155   24.1041   64.8568 C   0  0  0  0  0
    2.4907   22.6580   68.3917 C   0  0  0  0  0
    3.5811   22.7810   67.3798 C   0  0  0  0  0
    4.5925   21.8159   67.2968 C   0  0  0  0  0
    5.6138   21.9366   66.3441 C   0  0  0  0  0
    5.6357   23.0569   65.5007 C   0  0  0  0  0
    4.6329   24.0267   65.5885 C   0  0  0  0  0
    3.6070   23.8883   66.5269 C   0  0  0  0  0
    6.7190   20.9226   66.2882 C   0  0  0  0  0
   -0.1237   18.2801   68.0235 O   0  0  0  0  0
    0.1464   21.7148   69.9779 O   0  0  0  0  0
    0.1803   23.9876   66.0400 O   0  0  0  0  0
   -4.1639   24.4416   67.8462 O   0  0  0  0  0
    2.1664   20.2411   68.5422 N   0  0  0  0  0
   -0.9434   21.8194   67.9323 N   0  0  0  0  0
   -2.1241   24.0444   65.7476 N   0  0  0  0  0
   -4.1883   22.1219   67.8720 N   0  0  0  0  0
   -4.5072   25.5288   65.1373 N   0  0  0  0  0
    7.7278   21.2982   67.1555 F   0  0  0  0  0
    6.2470   19.6746   66.6568 F   0  0  0  0  0
    7.2333   20.8383   65.0058 F   0  0  0  0  0
  1  2  1  0  0  0
  2  3  1  0  0  0
  4  5  1  0  0  0
  6  7  1  0  0  0
  8 27  1  0  0  0
  8  3  1  0  0  0
  9 27  1  0  0  0
  9 10  1  0  0  0
 10 31  1  0  0  0
 11 31  1  0  0  0
 11 12  1  0  0  0
 11 19  1  0  0  0
 12 32  1  0  0  0
 13 32  1  0  0  0
 13 14  1  0  0  0
 14 33  1  0  0  0
 15 33  1  0  0  0
 15 16  1  0  0  0
 15 18  1  0  0  0
 16 34  1  0  0  0
 17 34  1  0  0  0
 17  1  1  0  0  0
 18 35  1  0  0  0
 19 20  1  0  0  0
 21 22  1  0  0  0
 23 24  1  0  0  0
 25 20  1  0  0  0
 26 22  1  0  0  0
 26 36  1  0  0  0
 26 37  1  0  0  0
 26 38  1  0  0  0
  3  4  2  0  0  0
  5  6  2  0  0  0
  7  8  2  0  0  0
 12 28  2  0  0  0
 14 29  2  0  0  0
 16 30  2  0  0  0
 20 21  2  0  0  0
 22 23  2  0  0  0
 24 25  2  0  0  0
M  END
> <rmsd>
0.460949302

$$$$
PubChem-91885931 PubChem-91885932


 33 36  0  0  0  0  0  0  0  0999 V2000
   -3.4260   29.7569   72.7655 C   0  0  0  0  0
   -3.0552   30.5835   70.4530 C   0  0  0  0  0
   -3.1415   28.0878   70.9154 C   0  0  0  0  0
   -3.2428   25.7496   71.4319 C   0  0  0  0  0
   -2.8758   26.4207   69.2317 C   0  0  0  0  0
   -2.9234   27.7269   69.5808 C   0  0  0  0  0
   -2.5615   27.5999   67.4852 C   0  0  0  0  0
   -2.4930   25.1180   67.1031 C   0  0  0  0  0
   -1.1815   24.4289   67.4308 C   0  0  0  0  0
   -1.6271   23.1315   68.0494 C   0  0  0  0  0
   -3.0256   22.9623   67.5220 C   0  0  0  0  0
   -0.1114   21.1988   68.6177 C   0  0  0  0  0
    0.7236   20.0547   68.1497 C   0  0  0  0  0
    0.0892   18.7353   68.5704 C   0  0  0  0  0
    0.7096   17.5819   67.8542 C   0  0  0  0  0
    1.4234   16.6215   68.5773 C   0  0  0  0  0
    1.9969   15.5301   67.9182 C   0  0  0  0  0
    1.8578   15.3878   66.5333 C   0  0  0  0  0
    1.1340   16.3506   65.8105 C   0  0  0  0  0
    0.5606   17.4418   66.4691 C   0  0  0  0  0
    2.3526   14.0636   64.5036 C   0  0  0  0  0
   -3.2037   29.4568   71.3606 N   0  0  0  0  0
   -3.2974   27.0654   71.8136 N   0  0  0  0  0
   -3.0287   25.4149   70.1254 N   0  0  0  0  0
   -2.7276   28.5000   68.4946 N   0  0  0  0  0
   -2.6539   26.3181   67.9156 N   0  0  0  0  0
   -0.7881   22.0072   67.6559 N   0  0  0  0  0
    2.0670   20.1636   68.6956 N   0  0  0  0  0
   -3.5752   24.2383   67.3169 O   0  0  0  0  0
   -3.7967   22.2617   68.4487 O   0  0  0  0  0
   -0.2284   21.4391   69.8507 O   0  0  0  0  0
    2.4442   14.2863   65.9041 O   0  0  0  0  0
   -0.4776   24.2166   66.2416 O   0  0  0  0  0
  1 22  1  0  0  0
  2 22  1  0  0  0
  4 23  1  0  0  0
  5 24  1  0  0  0
  6 25  1  0  0  0
  6  3  1  0  0  0
  7 26  1  0  0  0
  8 26  1  0  0  0
  8  9  1  0  0  0
  8 29  1  0  0  0
  9 10  1  0  0  0
  9 33  1  0  0  0
 10 11  1  0  0  0
 10 27  1  0  0  0
 11 29  1  0  0  0
 11 30  1  0  0  0
 13 12  1  0  0  0
 13 14  1  0  0  0
 13 28  1  0  0  0
 14 15  1  0  0  0
 16 17  1  0  0  0
 18 19  1  0  0  0
 18 32  1  0  0  0
 20 15  1  0  0  0
 21 32  1  0  0  0
 22  3  1  0  0  0
 26  5  1  0  0  0
 27 12  1  0  0  0
  3 23  2  0  0  0
  4 24  2  0  0  0
  5  6  2  0  0  0
  7 25  2  0  0  0
 12 31  2  0  0  0
 15 16  2  0  0  0
 17 18  2  0  0  0
 19 20  2  0  0  0
M  END
> <rmsd>
0.453070939

$$$$
PubChem-107823978


 17 17  0  0  0  0  0  0  0  0999 V2000
   -0.3779   19.0570   69.0175 C   0  0  0  0  0
    0.5696   20.0448   68.8565 C   0  0  0  0  0
    0.3809   17.9425   69.3333 C   0  0  0  0  0
   -1.1886   23.1392   66.8202 C   0  0  0  0  0
   -2.6759   23.2390   66.5120 C   0  0  0  0  0
   -3.4954   23.1048   67.7518 C   0  0  0  0  0
   -0.3973   23.6768   65.6754 C   0  0  0  0  0
    1.8041   19.5624   69.0605 N   0  0  0  0  0
    1.6863   18.2790   69.3511 N   0  0  0  0  0
   -0.8194   21.7519   67.0654 N   0  0  0  0  0
   -3.5390   21.8699   68.4585 N   0  0  0  0  0
    0.2278   21.7122   68.4453 S   0  0  0  0  0
   -0.4274   22.3886   69.6172 O   0  0  0  0  0
    1.5148   22.4166   68.1178 O   0  0  0  0  0
   -4.1716   24.0835   68.1613 O   0  0  0  0  0
    0.3523   24.6723   65.8479 O   0  0  0  0  0
   -0.4779   23.0822   64.4216 O   0  0  0  0  0
  2  8  1  0  0  0
  3  1  1  0  0  0
  4 10  1  0  0  0
  4  5  1  0  0  0
  4  7  1  0  0  0
  5  6  1  0  0  0
  6 11  1  0  0  0
  7 17  1  0  0  0
  8  9  1  0  0  0
 12  2  1  0  0  0
 12 10  1  0  0  0
  1  2  2  0  0  0
  3  9  2  0  0  0
  6 15  2  0  0  0
  7 16  2  0  0  0
 12 13  2  0  0  0
 12 14  2  0  0  0
M  END
> <rmsd>
0.537705779

$$$$
PubChem-23627195


 30 32  0  0  0  0  0  0  0  0999 V2000
    1.1991   24.6269   64.6505 C   0  0  0  0  0
    0.5824   24.2482   66.8709 C   0  0  0  0  0
   -0.5676   24.1262   67.8709 C   0  0  0  0  0
   -1.5386   23.0040   67.4617 C   0  0  0  0  0
   -1.9485   23.1983   65.9917 C   0  0  0  0  0
   -0.7204   23.3739   65.0980 C   0  0  0  0  0
   -2.7852   23.0557   68.3670 C   0  0  0  0  0
   -0.3152   21.1927   68.8147 C   0  0  0  0  0
    0.4436   19.9062   68.7799 C   0  0  0  0  0
   -0.0131   18.9602   69.8866 C   0  0  0  0  0
   -1.1786   18.0978   69.4275 C   0  0  0  0  0
   -1.2090   16.8122   70.2650 C   0  0  0  0  0
   -2.6095   16.2075   70.2992 C   0  0  0  0  0
   -3.6161   17.1654   70.9515 C   0  0  0  0  0
   -3.2516   18.6466   70.7836 C   0  0  0  0  0
   -2.4986   18.8864   69.4777 C   0  0  0  0  0
    2.8770   19.2076   68.6311 C   0  0  0  0  0
    5.2969   18.5822   68.4109 C   0  0  0  0  0
    6.5574   18.8166   69.2433 C   0  0  0  0  0
    5.9784   20.8848   69.9097 C   0  0  0  0  0
    4.6471   20.9039   69.1587 C   0  0  0  0  0
    0.0556   24.5299   65.5385 N   0  0  0  0  0
   -3.4570   24.3436   68.2722 N   0  0  0  0  0
   -0.8736   21.7045   67.5992 N   0  0  0  0  0
    1.8669   20.1820   68.9141 N   0  0  0  0  0
    4.2609   19.5360   68.8103 N   0  0  0  0  0
   -3.9756   21.7252   67.9955 S   0  0  0  0  0
   -0.4172   21.8411   69.8920 O   0  0  0  0  0
    2.5475   18.0590   68.2260 O   0  0  0  0  0
    6.9341   20.1685   69.1690 O   0  0  0  0  0
  1 22  1  0  0  0
  2 22  1  0  0  0
  2  3  1  0  0  0
  3  4  1  0  0  0
  4  5  1  0  0  0
  4 24  1  0  0  0
  5  6  1  0  0  0
  6 22  1  0  0  0
  7  4  1  0  0  0
  7 23  1  0  0  0
  7 27  1  0  0  0
  9  8  1  0  0  0
  9 10  1  0  0  0
  9 25  1  0  0  0
 10 11  1  0  0  0
 11 12  1  0  0  0
 12 13  1  0  0  0
 13 14  1  0  0  0
 14 15  1  0  0  0
 15 16  1  0  0  0
 16 11  1  0  0  0
 17 26  1  0  0  0
 18 26  1  0  0  0
 18 19  1  0  0  0
 19 30  1  0  0  0
 20 30  1  0  0  0
 20 21  1  0  0  0
 21 26  1  0  0  0
 24  8  1  0  0  0
 25 17  1  0  0  0
  8 28  2  0  0  0
 17 29  2  0  0  0
M  END
> <rmsd>
0.434915036

$$$$
