PubChem-2249595


 25 26  0  0  0  0  0  0  0  0999 V2000
   -6.8708   20.6116   71.1979 C   0  0  0  0  0
   -5.9653   21.5579   70.4967 C   0  0  0  0  0
   -5.7326   23.2197   68.5644 C   0  0  0  0  0
   -6.3913   24.2125   67.9486 C   0  0  0  0  0
   -5.9000   25.1223   66.8941 C   0  0  0  0  0
   -6.5659   26.3395   66.7091 C   0  0  0  0  0
   -6.1729   27.2151   65.6923 C   0  0  0  0  0
   -5.1179   26.8712   64.8429 C   0  0  0  0  0
   -4.4610   25.6489   65.0058 C   0  0  0  0  0
   -4.8559   24.7747   66.0224 C   0  0  0  0  0
   -4.2979   22.9535   68.3350 C   0  0  0  0  0
   -2.5264   21.2229   67.7487 C   0  0  0  0  0
   -0.1176   22.0704   67.3602 C   0  0  0  0  0
    0.5329   20.9708   67.9411 C   0  0  0  0  0
    1.9254   20.8651   67.8958 C   0  0  0  0  0
    2.6810   21.8640   67.2779 C   0  0  0  0  0
    2.0438   22.9699   66.7101 C   0  0  0  0  0
    0.6502   23.0779   66.7545 C   0  0  0  0  0
   -4.7597   21.6376   70.8513 O   0  0  0  0  0
   -3.4650   23.8976   68.4059 O   0  0  0  0  0
    0.0334   24.1890   66.1922 O   0  0  0  0  0
   -6.4911   22.3961   69.4610 N   0  0  0  0  0
   -3.8645   21.6133   68.0727 N   0  0  0  0  0
   -1.5439   22.2213   67.4266 N   0  0  0  0  0
   -2.2309   19.6291   67.5105 S   0  0  0  0  0
  1  2  1  0  0  0
  2 22  1  0  0  0
  3 11  1  0  0  0
  4  5  1  0  0  0
  6  7  1  0  0  0
  8  9  1  0  0  0
 10  5  1  0  0  0
 11 23  1  0  0  0
 12 24  1  0  0  0
 14 15  1  0  0  0
 16 17  1  0  0  0
 18 21  1  0  0  0
 18 13  1  0  0  0
 22  3  1  0  0  0
 23 12  1  0  0  0
 24 13  1  0  0  0
  2 19  2  0  0  0
  3  4  2  0  0  0
  5  6  2  0  0  0
  7  8  2  0  0  0
  9 10  2  0  0  0
 11 20  2  0  0  0
 12 25  2  0  0  0
 13 14  2  0  0  0
 15 16  2  0  0  0
 17 18  2  0  0  0
M  END
> <rmsd>
0.552945435

$$$$
PubChem-164571650


 28 30  0  0  0  0  0  0  0  0999 V2000
   -6.2220   22.1439   67.2614 C   0  0  0  0  0
   -5.3145   21.3959   68.2295 C   0  0  0  0  0
   -5.6309   19.9175   68.1091 C   0  0  0  0  0
   -5.5372   21.8258   69.6585 C   0  0  0  0  0
   -3.2478   22.8708   67.8395 C   0  0  0  0  0
   -1.7974   22.9446   67.4367 C   0  0  0  0  0
   -1.1193   24.1745   68.0691 C   0  0  0  0  0
    0.2739   24.3929   67.4786 C   0  0  0  0  0
   -0.3102   23.3416   65.4369 C   0  0  0  0  0
   -1.7373   23.0590   65.9096 C   0  0  0  0  0
   -0.9214   21.2984   69.2042 C   0  0  0  0  0
   -0.0628   20.1187   69.4967 C   0  0  0  0  0
    1.3717   20.4973   69.3688 C   0  0  0  0  0
    3.3066   20.9340   68.3451 C   0  0  0  0  0
    4.2427   21.0228   67.3148 C   0  0  0  0  0
    5.5167   21.5377   67.6084 C   0  0  0  0  0
    5.8361   21.9556   68.9153 C   0  0  0  0  0
    4.8858   21.8638   69.9445 C   0  0  0  0  0
    3.6321   21.3484   69.6274 C   0  0  0  0  0
   -4.8295   21.3326   70.5772 O   0  0  0  0  0
   -3.8883   23.9260   68.1035 O   0  0  0  0  0
   -1.4540   21.9315   70.1541 O   0  0  0  0  0
   -6.5373   22.7854   69.9937 N   0  0  0  0  0
   -3.9173   21.6014   67.8529 N   0  0  0  0  0
    0.1783   24.5822   66.0336 N   0  0  0  0  0
   -1.0948   21.7262   67.8478 N   0  0  0  0  0
    2.0432   20.4646   68.1917 N   0  0  0  0  0
    2.3059   21.1314   70.6312 S   0  0  0  0  0
  1  2  1  0  0  0
  2  3  1  0  0  0
  2  4  1  0  0  0
  2 24  1  0  0  0
  4 23  1  0  0  0
  6  5  1  0  0  0
  6  7  1  0  0  0
  6 26  1  0  0  0
  7  8  1  0  0  0
  8 25  1  0  0  0
  9 25  1  0  0  0
  9 10  1  0  0  0
 10  6  1  0  0  0
 12 11  1  0  0  0
 12 13  1  0  0  0
 13 28  1  0  0  0
 14 27  1  0  0  0
 15 16  1  0  0  0
 17 18  1  0  0  0
 19 28  1  0  0  0
 19 14  1  0  0  0
 24  5  1  0  0  0
 26 11  1  0  0  0
  4 20  2  0  0  0
  5 21  2  0  0  0
 11 22  2  0  0  0
 13 27  2  0  0  0
 14 15  2  0  0  0
 16 17  2  0  0  0
 18 19  2  0  0  0
M  END
> <rmsd>
0.366243243

$$$$
PubChem-18224520


 25 25  0  0  0  0  0  0  0  0999 V2000
   -1.8239   22.9496   65.1168 C   0  0  0  0  0
   -1.4358   23.8704   66.2646 C   0  0  0  0  0
   -1.6933   23.2337   67.6320 C   0  0  0  0  0
   -3.1614   23.0604   67.8871 C   0  0  0  0  0
   -5.1559   21.5294   68.2058 C   0  0  0  0  0
   -5.5290   20.1034   67.8211 C   0  0  0  0  0
   -5.4212   19.8983   66.3461 C   0  0  0  0  0
   -4.4635   19.0136   65.8391 C   0  0  0  0  0
   -4.3551   18.8135   64.4595 C   0  0  0  0  0
   -5.2064   19.4956   63.5849 C   0  0  0  0  0
   -6.1684   20.3758   64.0894 C   0  0  0  0  0
   -6.2773   20.5764   65.4687 C   0  0  0  0  0
   -5.4997   21.7864   69.6362 C   0  0  0  0  0
   -6.7754   23.1786   71.3227 C   0  0  0  0  0
   -8.0370   24.0198   71.3292 C   0  0  0  0  0
   -5.6494   23.9357   71.9504 C   0  0  0  0  0
   -3.8910   24.0812   68.0087 O   0  0  0  0  0
   -5.0973   19.2977   62.2155 O   0  0  0  0  0
   -4.9556   21.1112   70.5526 O   0  0  0  0  0
   -5.2309   25.0068   71.4357 O   0  0  0  0  0
   -5.0552   23.4488   73.1065 O   0  0  0  0  0
   -0.0913   24.2233   66.1481 O   0  0  0  0  0
   -3.7331   21.7520   67.9816 N   0  0  0  0  0
   -6.4411   22.8133   69.9533 N   0  0  0  0  0
   -0.9777   21.9712   67.7644 N   0  0  0  0  0
  1  2  1  0  0  0
  2  3  1  0  0  0
  2 22  1  0  0  0
  3  4  1  0  0  0
  3 25  1  0  0  0
  4 23  1  0  0  0
  5 23  1  0  0  0
  5  6  1  0  0  0
  5 13  1  0  0  0
  6  7  1  0  0  0
  8  9  1  0  0  0
 10 11  1  0  0  0
 10 18  1  0  0  0
 12  7  1  0  0  0
 13 24  1  0  0  0
 14 24  1  0  0  0
 14 15  1  0  0  0
 14 16  1  0  0  0
 16 21  1  0  0  0
  4 17  2  0  0  0
  7  8  2  0  0  0
  9 10  2  0  0  0
 11 12  2  0  0  0
 13 19  2  0  0  0
 16 20  2  0  0  0
M  END
> <rmsd>
0.23368983

$$$$
PubChem-122439092


 21 22  0  0  0  0  0  0  0  0999 V2000
  -10.5843   20.7627   69.5150 C   0  0  0  0  0
  -10.3947   22.0633   69.0004 C   0  0  0  0  0
   -9.1278   22.6723   69.0477 C   0  0  0  0  0
   -8.0824   21.9473   69.6160 C   0  0  0  0  0
   -8.2671   20.6855   70.1149 C   0  0  0  0  0
   -9.5092   20.0559   70.0828 C   0  0  0  0  0
   -7.0657   20.2294   70.6055 C   0  0  0  0  0
   -6.2051   21.2960   70.3549 C   0  0  0  0  0
   -3.9849   22.3673   70.3913 C   0  0  0  0  0
   -2.9650   22.4931   71.4773 C   0  0  0  0  0
   -3.2903   22.1403   69.0461 C   0  0  0  0  0
   -2.5048   23.3816   68.6119 C   0  0  0  0  0
   -1.5946   23.0721   67.4251 C   0  0  0  0  0
   -0.7958   24.3058   67.0374 C   0  0  0  0  0
   -6.8112   22.3502   69.7534 N   0  0  0  0  0
   -4.8517   21.2794   70.6938 O   0  0  0  0  0
   -3.3100   22.7508   72.6188 O   0  0  0  0  0
   -0.1039   24.0688   65.8498 O   0  0  0  0  0
   -0.7135   22.0403   67.7570 O   0  0  0  0  0
   -3.3854   24.4197   68.2903 O   0  0  0  0  0
   -4.2221   21.7940   68.0627 O   0  0  0  0  0
  2  3  1  0  0  0
  4  5  1  0  0  0
  5  7  1  0  0  0
  6  1  1  0  0  0
  8 15  1  0  0  0
  8 16  1  0  0  0
  9 16  1  0  0  0
  9 10  1  0  0  0
  9 11  1  0  0  0
 11 12  1  0  0  0
 11 21  1  0  0  0
 12 13  1  0  0  0
 12 20  1  0  0  0
 13 14  1  0  0  0
 13 19  1  0  0  0
 14 18  1  0  0  0
 15  4  1  0  0  0
  1  2  2  0  0  0
  3  4  2  0  0  0
  5  6  2  0  0  0
  7  8  2  0  0  0
 10 17  2  0  0  0
M  END
> <rmsd>
0.440493584

$$$$
PubChem-70087525


 36 40  0  0  0  0  0  0  0  0999 V2000
   -3.0368   18.8871   75.7590 C   0  0  0  0  0
   -4.1209   18.0251   75.1324 C   0  0  0  0  0
   -4.2261   18.2874   73.6252 C   0  0  0  0  0
   -4.8282   19.6607   73.3354 C   0  0  0  0  0
   -6.2152   19.7798   73.9902 C   0  0  0  0  0
   -6.1171   19.5700   75.5042 C   0  0  0  0  0
   -5.4626   18.2272   75.8528 C   0  0  0  0  0
   -6.3790   17.1106   75.5817 C   0  0  0  0  0
   -6.0333   22.2036   73.9365 C   0  0  0  0  0
   -5.9745   23.0448   72.6754 C   0  0  0  0  0
   -7.0590   22.4856   71.7922 C   0  0  0  0  0
   -7.2711   21.0703   72.2786 C   0  0  0  0  0
   -5.5367   21.8577   69.8198 C   0  0  0  0  0
   -5.3057   21.9331   68.3429 C   0  0  0  0  0
   -5.9806   20.7714   67.6267 C   0  0  0  0  0
   -7.4758   21.0160   67.4902 C   0  0  0  0  0
   -8.1899   19.7065   67.1678 C   0  0  0  0  0
   -9.7110   19.9010   67.1058 C   0  0  0  0  0
  -10.1350   21.3071   66.6580 C   0  0  0  0  0
   -9.1025   21.9253   65.7189 C   0  0  0  0  0
   -7.7438   22.0819   66.4143 C   0  0  0  0  0
   -3.2088   23.0975   67.5634 C   0  0  0  0  0
   -3.2316   25.3942   66.9096 C   0  0  0  0  0
   -1.2285   24.1946   66.8438 C   0  0  0  0  0
   -1.8477   23.0796   67.2935 C   0  0  0  0  0
    0.1853   22.6659   67.0127 C   0  0  0  0  0
   -7.0998   16.2300   75.3677 N   0  0  0  0  0
   -6.9029   21.0460   73.6903 N   0  0  0  0  0
   -6.6764   22.5205   70.3823 N   0  0  0  0  0
   -3.8800   21.9328   68.0462 N   0  0  0  0  0
   -3.8796   24.2729   67.3638 N   0  0  0  0  0
   -1.8895   25.3608   66.6445 N   0  0  0  0  0
   -0.9714   22.0725   67.4144 N   0  0  0  0  0
    0.0787   23.9734   66.6519 N   0  0  0  0  0
   -4.7612   21.1807   70.5496 O   0  0  0  0  0
    1.2799   22.0451   66.9741 O   0  0  0  0  0
  1  2  1  0  0  0
  2  3  1  0  0  0
  3  4  1  0  0  0
  4  5  1  0  0  0
  5  6  1  0  0  0
  5 28  1  0  0  0
  6  7  1  0  0  0
  7  8  1  0  0  0
  7  2  1  0  0  0
  9 28  1  0  0  0
  9 10  1  0  0  0
 10 11  1  0  0  0
 11 12  1  0  0  0
 11 29  1  0  0  0
 12 28  1  0  0  0
 14 13  1  0  0  0
 14 15  1  0  0  0
 14 30  1  0  0  0
 15 16  1  0  0  0
 16 17  1  0  0  0
 17 18  1  0  0  0
 18 19  1  0  0  0
 19 20  1  0  0  0
 20 21  1  0  0  0
 21 16  1  0  0  0
 23 31  1  0  0  0
 24 32  1  0  0  0
 25 33  1  0  0  0
 25 22  1  0  0  0
 26 34  1  0  0  0
 29 13  1  0  0  0
 30 22  1  0  0  0
 33 26  1  0  0  0
 34 24  1  0  0  0
 13 35  2  0  0  0
 22 31  2  0  0  0
 23 32  2  0  0  0
 24 25  2  0  0  0
 26 36  2  0  0  0
  8 27  3  0  0  0
M  END
> <rmsd>
0.392822146

$$$$
PubChem-104870492


 15 14  0  0  0  0  0  0  0  0999 V2000
   -4.9570   20.7785   66.4047 C   0  0  0  0  0
   -5.0028   21.5333   67.7166 C   0  0  0  0  0
   -5.5998   20.6391   68.7912 C   0  0  0  0  0
   -5.9100   21.4199   70.0236 C   0  0  0  0  0
   -3.2886   23.2967   68.2804 C   0  0  0  0  0
   -1.8924   23.6596   68.6710 C   0  0  0  0  0
   -1.4805   22.9526   69.9507 C   0  0  0  0  0
   -0.9242   23.3814   67.5661 C   0  0  0  0  0
   -5.3161   21.1527   71.1000 O   0  0  0  0  0
   -4.1385   24.2115   68.1118 O   0  0  0  0  0
    0.5773   24.1645   65.9683 O   0  0  0  0  0
   -6.8843   22.4571   69.9900 N   0  0  0  0  0
   -3.6535   21.9270   68.0916 N   0  0  0  0  0
   -0.3195   24.3711   66.9913 N   0  0  0  0  0
   -0.6741   22.0400   67.1461 N   0  0  0  0  0
  1  2  1  0  0  0
  2  3  1  0  0  0
  2 13  1  0  0  0
  3  4  1  0  0  0
  4 12  1  0  0  0
  6  5  1  0  0  0
  6  7  1  0  0  0
  6  8  1  0  0  0
  8 15  1  0  0  0
 13  5  1  0  0  0
 14 11  1  0  0  0
  4  9  2  0  0  0
  5 10  2  0  0  0
  8 14  2  0  0  0
M  END
> <rmsd>
0.478511214

$$$$
PubChem-104402138


 18 18  0  0  0  0  0  0  0  0999 V2000
   -2.1374   26.0259   66.9176 C   0  0  0  0  0
   -1.4253   24.7186   66.9686 C   0  0  0  0  0
   -1.9728   23.4875   67.2843 C   0  0  0  0  0
   -0.8975   22.6280   67.1854 C   0  0  0  0  0
   -3.3673   23.1673   67.6427 C   0  0  0  0  0
   -5.0884   21.4391   68.3325 C   0  0  0  0  0
   -5.2493   19.9357   68.2155 C   0  0  0  0  0
   -5.3639   21.8795   69.7339 C   0  0  0  0  0
   -6.7860   23.2490   71.3174 C   0  0  0  0  0
   -7.7133   24.4408   71.2087 C   0  0  0  0  0
   -7.4828   22.1453   72.0897 C   0  0  0  0  0
    0.2125   23.3017   66.8350 N   0  0  0  0  0
   -0.1112   24.5802   66.7026 N   0  0  0  0  0
   -0.9227   21.2232   67.4159 N   0  0  0  0  0
   -3.7392   21.8175   67.9357 N   0  0  0  0  0
   -6.4436   22.7817   69.9826 N   0  0  0  0  0
   -4.2327   24.0830   67.6884 O   0  0  0  0  0
   -4.6420   21.4682   70.6833 O   0  0  0  0  0
  1  2  1  0  0  0
  3  4  1  0  0  0
  3  5  1  0  0  0
  4 14  1  0  0  0
  5 15  1  0  0  0
  6 15  1  0  0  0
  6  7  1  0  0  0
  6  8  1  0  0  0
  8 16  1  0  0  0
  9 16  1  0  0  0
  9 10  1  0  0  0
  9 11  1  0  0  0
 13 12  1  0  0  0
 13  2  1  0  0  0
  2  3  2  0  0  0
  4 12  2  0  0  0
  5 17  2  0  0  0
  8 18  2  0  0  0
M  END
> <rmsd>
0.503348112

$$$$
PubChem-161764310


 15 14  0  0  0  0  0  0  0  0999 V2000
   -1.6347   25.3751   69.1888 C   0  0  0  0  0
   -1.1406   23.9482   68.9879 C   0  0  0  0  0
   -1.7416   23.2529   67.7567 C   0  0  0  0  0
   -1.5191   24.0723   66.4788 C   0  0  0  0  0
   -3.2241   23.0373   67.9506 C   0  0  0  0  0
   -5.1696   21.4452   68.2879 C   0  0  0  0  0
   -5.4646   19.9883   67.9702 C   0  0  0  0  0
   -5.5356   21.7643   69.7044 C   0  0  0  0  0
    0.2478   24.3290   66.1034 S   0  0  0  0  0
   -7.2507   19.7368   67.7481 S   0  0  0  0  0
   -4.0021   24.0296   68.0076 O   0  0  0  0  0
   -4.9645   21.1773   70.6614 O   0  0  0  0  0
   -3.7557   21.7118   68.0618 N   0  0  0  0  0
   -6.5327   22.7432   69.9704 N   0  0  0  0  0
   -1.0827   21.9632   67.6044 N   0  0  0  0  0
  1  2  1  0  0  0
  2  3  1  0  0  0
  3  4  1  0  0  0
  3  5  1  0  0  0
  3 15  1  0  0  0
  4  9  1  0  0  0
  5 13  1  0  0  0
  6 13  1  0  0  0
  6  7  1  0  0  0
  6  8  1  0  0  0
  7 10  1  0  0  0
  8 14  1  0  0  0
  5 11  2  0  0  0
  8 12  2  0  0  0
M  END
> <rmsd>
0.241159007

$$$$
PubChem-165418212 MolPort-051-539-492


 31 33  0  0  0  0  0  0  0  0999 V2000
  -11.2051   25.7932   64.4445 C   0  0  0  0  0
  -10.5712   23.4567   64.9513 C   0  0  0  0  0
  -10.3391   22.1671   64.4775 C   0  0  0  0  0
   -9.9722   21.1510   65.3593 C   0  0  0  0  0
   -9.8084   21.4012   66.7301 C   0  0  0  0  0
  -10.0269   22.7213   67.2140 C   0  0  0  0  0
   -8.8895   22.5787   69.4366 C   0  0  0  0  0
   -7.5246   23.1385   69.0915 C   0  0  0  0  0
   -5.4421   21.8630   69.7366 C   0  0  0  0  0
   -5.2151   21.4283   68.3205 C   0  0  0  0  0
   -5.5650   19.9543   68.1722 C   0  0  0  0  0
   -5.5605   19.5402   66.7085 C   0  0  0  0  0
   -6.7739   20.0929   65.9783 C   0  0  0  0  0
   -7.9147   19.0882   66.0040 C   0  0  0  0  0
   -9.5420   20.2467   67.6231 C   0  0  0  0  0
   -3.3024   22.9657   67.6859 C   0  0  0  0  0
   -1.8893   23.1246   67.3263 C   0  0  0  0  0
   -1.2561   24.3226   67.0627 C   0  0  0  0  0
    0.1216   22.7127   66.8730 C   0  0  0  0  0
  -10.4186   23.7227   66.3183 C   0  0  0  0  0
  -10.9502   24.4527   64.0473 O   0  0  0  0  0
   -9.8770   23.1001   68.5560 O   0  0  0  0  0
   -4.6557   21.4838   70.6449 O   0  0  0  0  0
  -10.1475   20.1676   68.7245 O   0  0  0  0  0
   -4.0485   23.9786   67.7731 O   0  0  0  0  0
    1.1936   22.0860   66.6684 O   0  0  0  0  0
   -6.5601   22.6825   70.0782 N   0  0  0  0  0
   -8.6649   19.1726   67.2514 N   0  0  0  0  0
   -3.8285   21.6588   67.9313 N   0  0  0  0  0
    0.0308   24.0528   66.7730 N   0  0  0  0  0
   -1.0273   22.0989   67.2094 N   0  0  0  0  0
  1 21  1  0  0  0
  2 21  1  0  0  0
  3  4  1  0  0  0
  5  6  1  0  0  0
  6 22  1  0  0  0
  7 22  1  0  0  0
  7  8  1  0  0  0
  8 27  1  0  0  0
 10  9  1  0  0  0
 10 11  1  0  0  0
 10 29  1  0  0  0
 11 12  1  0  0  0
 12 13  1  0  0  0
 13 14  1  0  0  0
 14 28  1  0  0  0
 15  5  1  0  0  0
 16 17  1  0  0  0
 18 30  1  0  0  0
 19 31  1  0  0  0
 20  2  1  0  0  0
 27  9  1  0  0  0
 28 15  1  0  0  0
 29 16  1  0  0  0
 30 19  1  0  0  0
 31 17  1  0  0  0
  2  3  2  0  0  0
  4  5  2  0  0  0
  6 20  2  0  0  0
  9 23  2  0  0  0
 15 24  2  0  0  0
 16 25  2  0  0  0
 17 18  2  0  0  0
 19 26  2  0  0  0
M  END
> <rmsd>
0.449782878

$$$$
PubChem-69669012


 33 36  0  0  0  0  0  0  0  0999 V2000
  -11.9138   24.0339   75.3931 C   0  0  0  0  0
  -11.8581   25.1983   74.4171 C   0  0  0  0  0
  -10.4471   25.7863   74.3324 C   0  0  0  0  0
   -9.4824   24.8367   73.6240 C   0  0  0  0  0
  -10.0176   24.4767   72.2268 C   0  0  0  0  0
  -11.4046   23.8422   72.3269 C   0  0  0  0  0
  -12.3727   24.7902   73.0340 C   0  0  0  0  0
   -8.6880   22.4450   72.2240 C   0  0  0  0  0
   -7.1733   22.4131   72.2595 C   0  0  0  0  0
   -6.7266   23.4518   71.2601 C   0  0  0  0  0
   -7.9103   24.3773   71.1183 C   0  0  0  0  0
   -5.5656   24.1978   71.7595 C   0  0  0  0  0
   -5.4177   21.8539   69.7430 C   0  0  0  0  0
   -5.2018   21.3342   68.3559 C   0  0  0  0  0
   -5.5442   19.8520   68.2775 C   0  0  0  0  0
   -7.0469   19.6254   68.3501 C   0  0  0  0  0
   -7.3195   18.1614   68.6212 C   0  0  0  0  0
   -7.7017   20.0197   67.0398 C   0  0  0  0  0
   -3.2640   22.8296   67.6967 C   0  0  0  0  0
   -3.4936   25.2011   67.5444 C   0  0  0  0  0
   -1.4214   24.2130   67.1205 C   0  0  0  0  0
   -1.9282   22.9813   67.3531 C   0  0  0  0  0
    0.1019   22.8048   66.8709 C   0  0  0  0  0
   -9.1108   23.6175   71.4518 N   0  0  0  0  0
   -4.6492   24.7856   72.1521 N   0  0  0  0  0
   -6.4330   22.8383   69.9670 N   0  0  0  0  0
   -3.8174   21.5354   67.9499 N   0  0  0  0  0
   -4.0279   23.9609   67.7844 N   0  0  0  0  0
   -2.1749   25.3354   67.2082 N   0  0  0  0  0
   -0.9781   22.0474   67.2025 N   0  0  0  0  0
   -0.1208   24.1449   66.8076 N   0  0  0  0  0
   -4.7127   21.4270   70.6980 O   0  0  0  0  0
    1.2309   22.2997   66.6385 O   0  0  0  0  0
  1  2  1  0  0  0
  2  3  1  0  0  0
  3  4  1  0  0  0
  4  5  1  0  0  0
  5  6  1  0  0  0
  5 24  1  0  0  0
  6  7  1  0  0  0
  7  2  1  0  0  0
  8 24  1  0  0  0
  8  9  1  0  0  0
  9 10  1  0  0  0
 10 11  1  0  0  0
 10 12  1  0  0  0
 10 26  1  0  0  0
 11 24  1  0  0  0
 14 13  1  0  0  0
 14 15  1  0  0  0
 14 27  1  0  0  0
 15 16  1  0  0  0
 16 17  1  0  0  0
 16 18  1  0  0  0
 20 28  1  0  0  0
 21 29  1  0  0  0
 22 30  1  0  0  0
 22 19  1  0  0  0
 23 31  1  0  0  0
 26 13  1  0  0  0
 27 19  1  0  0  0
 30 23  1  0  0  0
 31 21  1  0  0  0
 13 32  2  0  0  0
 19 28  2  0  0  0
 20 29  2  0  0  0
 21 22  2  0  0  0
 23 33  2  0  0  0
 12 25  3  0  0  0
M  END
> <rmsd>
0.474046975

$$$$
PubChem-67618177


 37 40  0  0  0  0  0  0  0  0999 V2000
   -5.4804   25.4430   71.5456 C   0  0  0  0  0
   -4.1768   26.0254   71.0389 C   0  0  0  0  0
   -4.4777   26.9562   69.8820 C   0  0  0  0  0
   -3.5413   26.8245   72.1591 C   0  0  0  0  0
   -2.7375   23.4372   71.8537 C   0  0  0  0  0
   -1.8761   22.3485   71.6702 C   0  0  0  0  0
   -1.6713   21.4297   72.7032 C   0  0  0  0  0
   -2.3257   21.5974   73.9266 C   0  0  0  0  0
   -3.1829   22.6849   74.1167 C   0  0  0  0  0
   -3.3863   23.6031   73.0827 C   0  0  0  0  0
   -1.3311   25.4229   70.1556 C   0  0  0  0  0
   -1.2299   26.7810   69.8291 C   0  0  0  0  0
    0.0188   27.3537   69.5714 C   0  0  0  0  0
    1.1737   26.5698   69.6387 C   0  0  0  0  0
    1.0793   25.2142   69.9649 C   0  0  0  0  0
   -0.1701   24.6435   70.2225 C   0  0  0  0  0
   -3.7194   23.7783   68.8972 C   0  0  0  0  0
   -2.9509   22.4704   68.5529 C   0  0  0  0  0
   -1.5419   22.7527   68.0408 C   0  0  0  0  0
   -1.5876   23.7495   66.8958 C   0  0  0  0  0
   -2.3614   24.9810   67.3666 C   0  0  0  0  0
   -2.4077   26.0571   66.2893 C   0  0  0  0  0
   -6.1210   24.1805   68.5561 C   0  0  0  0  0
   -7.4717   23.9397   68.7817 C   0  0  0  0  0
   -7.8245   22.9216   69.6584 C   0  0  0  0  0
   -5.5365   22.4290   70.0281 C   0  0  0  0  0
   -2.9958   24.6544   70.4754 Si  0  0  0  0  0
   -3.6782   24.6571   67.7678 O   0  0  0  0  0
   -3.1304   25.6107   65.1810 O   0  0  0  0  0
   -0.2837   24.1123   66.5510 O   0  0  0  0  0
   -0.9253   21.5683   67.6325 O   0  0  0  0  0
   -3.6600   21.7292   67.6001 O   0  0  0  0  0
   -9.0358   22.6743   69.8957 O   0  0  0  0  0
   -4.6869   21.6975   70.6004 O   0  0  0  0  0
   -5.1477   23.4422   69.1747 N   0  0  0  0  0
   -6.8550   22.1897   70.2576 N   0  0  0  0  0
   -8.4143   24.6899   68.1594 F   0  0  0  0  0
  1  2  1  0  0  0
  2  3  1  0  0  0
  2  4  1  0  0  0
  2 27  1  0  0  0
  6  7  1  0  0  0
  8  9  1  0  0  0
 10  5  1  0  0  0
 12 13  1  0  0  0
 14 15  1  0  0  0
 16 11  1  0  0  0
 17 27  1  0  0  0
 17 18  1  0  0  0
 17 35  1  0  0  0
 17 28  1  0  0  0
 18 19  1  0  0  0
 18 32  1  0  0  0
 19 20  1  0  0  0
 19 31  1  0  0  0
 20 21  1  0  0  0
 20 30  1  0  0  0
 21 28  1  0  0  0
 21 22  1  0  0  0
 22 29  1  0  0  0
 24 25  1  0  0  0
 24 37  1  0  0  0
 25 36  1  0  0  0
 26 35  1  0  0  0
 27  5  1  0  0  0
 27 11  1  0  0  0
 35 23  1  0  0  0
 36 26  1  0  0  0
  5  6  2  0  0  0
  7  8  2  0  0  0
  9 10  2  0  0  0
 11 12  2  0  0  0
 13 14  2  0  0  0
 15 16  2  0  0  0
 23 24  2  0  0  0
 25 33  2  0  0  0
 26 34  2  0  0  0
M  END
> <rmsd>
0.509815991

$$$$
PubChem-143400543 PubChem-143400544


 28 30  0  0  0  0  0  0  0  0999 V2000
   -1.3187   24.1708   68.3250 C   0  0  0  0  0
    0.0720   24.6810   67.9010 C   0  0  0  0  0
   -0.7248   24.7311   65.6600 C   0  0  0  0  0
   -1.8997   23.7744   65.8867 C   0  0  0  0  0
   -1.9483   23.2024   67.3133 C   0  0  0  0  0
   -3.3838   22.9633   67.6936 C   0  0  0  0  0
   -5.2183   21.3618   68.3970 C   0  0  0  0  0
   -5.5094   19.8749   68.2432 C   0  0  0  0  0
   -5.5240   19.4762   66.8017 C   0  0  0  0  0
   -4.5731   18.6028   66.2676 C   0  0  0  0  0
   -6.2695   19.4038   64.5986 C   0  0  0  0  0
   -7.0968   19.7174   63.5238 C   0  0  0  0  0
   -8.1723   20.5884   63.7565 C   0  0  0  0  0
   -8.3951   21.1191   65.0414 C   0  0  0  0  0
   -7.5440   20.7853   66.1077 C   0  0  0  0  0
   -6.4736   19.9183   65.8669 C   0  0  0  0  0
   -5.4623   21.7915   69.8066 C   0  0  0  0  0
   -6.7459   23.2376   71.4196 C   0  0  0  0  0
   -8.2913   24.8663   72.5584 C   0  0  0  0  0
    0.4015   24.3602   66.5093 N   0  0  0  0  0
   -3.8411   21.6448   68.0131 N   0  0  0  0  0
   -6.4662   22.7702   70.0729 N   0  0  0  0  0
   -7.8062   24.2298   71.3769 N   0  0  0  0  0
   -1.2103   21.9467   67.3393 N   0  0  0  0  0
   -4.1908   23.9332   67.7253 O   0  0  0  0  0
   -4.7828   21.2986   70.7485 O   0  0  0  0  0
   -7.8111   24.5850   73.6884 O   0  0  0  0  0
   -4.9289   18.4022   64.6237 S   0  0  0  0  0
  1  2  1  0  0  0
  2 20  1  0  0  0
  3 20  1  0  0  0
  3  4  1  0  0  0
  4  5  1  0  0  0
  5  6  1  0  0  0
  5 24  1  0  0  0
  5  1  1  0  0  0
  6 21  1  0  0  0
  7 21  1  0  0  0
  7  8  1  0  0  0
  7 17  1  0  0  0
  8  9  1  0  0  0
 10 28  1  0  0  0
 11 28  1  0  0  0
 12 13  1  0  0  0
 14 15  1  0  0  0
 16  9  1  0  0  0
 16 11  1  0  0  0
 17 22  1  0  0  0
 18 22  1  0  0  0
 18 23  1  0  0  0
 23 19  1  0  0  0
  6 25  2  0  0  0
  9 10  2  0  0  0
 11 12  2  0  0  0
 13 14  2  0  0  0
 15 16  2  0  0  0
 17 26  2  0  0  0
 19 27  2  0  0  0
M  END
> <rmsd>
0.413680732

$$$$
PubChem-143400543 PubChem-143400544


 28 30  0  0  0  0  0  0  0  0999 V2000
   -1.3218   24.1445   68.3464 C   0  0  0  0  0
    0.0703   24.6589   67.9324 C   0  0  0  0  0
   -0.7223   24.7466   65.6914 C   0  0  0  0  0
   -1.9009   23.7906   65.9012 C   0  0  0  0  0
   -1.9530   23.1949   67.3180 C   0  0  0  0  0
   -3.3898   22.9540   67.6930 C   0  0  0  0  0
   -5.2223   21.3514   68.3974 C   0  0  0  0  0
   -5.4994   19.8600   68.2527 C   0  0  0  0  0
   -6.9651   19.5694   68.3361 C   0  0  0  0  0
   -7.5109   18.8220   69.3829 C   0  0  0  0  0
   -9.2030   19.6024   67.6999 C   0  0  0  0  0
  -10.2936   19.9261   66.8975 C   0  0  0  0  0
  -10.0547   20.6839   65.7407 C   0  0  0  0  0
   -8.7481   21.0954   65.4150 C   0  0  0  0  0
   -7.6662   20.7539   66.2431 C   0  0  0  0  0
   -7.9133   20.0001   67.3947 C   0  0  0  0  0
   -5.4523   21.8043   69.8058 C   0  0  0  0  0
   -6.7695   23.2214   71.4172 C   0  0  0  0  0
   -8.3739   24.7908   72.5574 C   0  0  0  0  0
    0.4013   24.3586   66.5365 N   0  0  0  0  0
   -3.8519   21.6322   67.9935 N   0  0  0  0  0
   -6.4853   22.7518   70.0724 N   0  0  0  0  0
   -7.8727   24.1658   71.3766 N   0  0  0  0  0
   -1.2187   21.9369   67.3241 N   0  0  0  0  0
   -4.1933   23.9264   67.7402 O   0  0  0  0  0
   -4.7440   21.3477   70.7445 O   0  0  0  0  0
   -7.8708   24.5411   73.6850 O   0  0  0  0  0
   -9.1812   18.7175   69.1203 S   0  0  0  0  0
  1  2  1  0  0  0
  2 20  1  0  0  0
  3 20  1  0  0  0
  3  4  1  0  0  0
  4  5  1  0  0  0
  5  6  1  0  0  0
  5 24  1  0  0  0
  5  1  1  0  0  0
  6 21  1  0  0  0
  7 21  1  0  0  0
  7  8  1  0  0  0
  7 17  1  0  0  0
  8  9  1  0  0  0
 10 28  1  0  0  0
 11 28  1  0  0  0
 12 13  1  0  0  0
 14 15  1  0  0  0
 16  9  1  0  0  0
 16 11  1  0  0  0
 17 22  1  0  0  0
 18 22  1  0  0  0
 18 23  1  0  0  0
 23 19  1  0  0  0
  6 25  2  0  0  0
  9 10  2  0  0  0
 11 12  2  0  0  0
 13 14  2  0  0  0
 15 16  2  0  0  0
 17 26  2  0  0  0
 19 27  2  0  0  0
M  END
> <rmsd>
0.42705065

$$$$
PubChem-78928010


 15 16  0  0  0  0  0  0  0  0999 V2000
   -7.1720   20.4965   71.4960 C   0  0  0  0  0
   -6.3298   21.3403   70.6080 C   0  0  0  0  0
   -4.7597   22.0479   69.4385 C   0  0  0  0  0
   -3.0937   23.2504   67.9442 C   0  0  0  0  0
   -1.7720   23.2269   67.3074 C   0  0  0  0  0
   -1.2521   24.2158   66.4965 C   0  0  0  0  0
    0.1490   22.6279   66.6988 C   0  0  0  0  0
   -5.0958   20.9887   70.1984 N   0  0  0  0  0
   -5.7241   22.9856   69.3866 N   0  0  0  0  0
   -6.7200   22.5352   70.1292 N   0  0  0  0  0
   -3.5018   22.1485   68.7635 N   0  0  0  0  0
   -0.0223   23.8271   66.1099 N   0  0  0  0  0
   -0.8941   22.2170   67.4425 N   0  0  0  0  0
   -3.8574   24.2375   67.7656 O   0  0  0  0  0
    1.1990   21.9474   66.5645 O   0  0  0  0  0
  1  2  1  0  0  0
  3  8  1  0  0  0
  3 11  1  0  0  0
  4  5  1  0  0  0
  6 12  1  0  0  0
  7 13  1  0  0  0
 10  9  1  0  0  0
 10  2  1  0  0  0
 11  4  1  0  0  0
 12  7  1  0  0  0
 13  5  1  0  0  0
  2  8  2  0  0  0
  3  9  2  0  0  0
  4 14  2  0  0  0
  5  6  2  0  0  0
  7 15  2  0  0  0
M  END
> <rmsd>
0.41133225

$$$$
PubChem-138747252


 35 37  0  0  0  0  0  0  0  0999 V2000
   -7.1241   20.4065   65.1456 C   0  0  0  0  0
   -6.9649   21.5452   66.1418 C   0  0  0  0  0
   -6.2738   20.9684   67.3712 C   0  0  0  0  0
   -5.4864   22.0414   68.1010 C   0  0  0  0  0
   -5.6641   21.8989   69.5898 C   0  0  0  0  0
   -8.1795   22.3027   69.4424 C   0  0  0  0  0
   -8.1172   23.5441   68.5940 C   0  0  0  0  0
   -8.1728   23.4576   67.2591 C   0  0  0  0  0
   -8.3308   22.1730   66.4979 C   0  0  0  0  0
   -9.1354   22.4913   65.2468 C   0  0  0  0  0
   -7.9299   26.0902   68.5242 C   0  0  0  0  0
   -9.3333   26.5790   68.3708 C   0  0  0  0  0
   -9.4114   22.2504   70.3513 C   0  0  0  0  0
   -9.4543   23.3388   71.3792 C   0  0  0  0  0
  -10.3734   24.2944   71.4058 C   0  0  0  0  0
   -9.0671   24.7758   73.0896 C   0  0  0  0  0
   -8.4469   23.5832   72.4475 C   0  0  0  0  0
   -8.3098   22.4700   73.4549 C   0  0  0  0  0
   -8.1685   22.7516   74.7613 C   0  0  0  0  0
   -8.2777   24.1474   75.2645 C   0  0  0  0  0
   -8.7345   25.1273   74.4729 C   0  0  0  0  0
   -3.1931   23.0886   67.8812 C   0  0  0  0  0
   -1.7621   22.9685   67.4798 C   0  0  0  0  0
   -1.6557   22.7749   65.9739 C   0  0  0  0  0
   -0.2527   22.9694   65.5077 C   0  0  0  0  0
   -4.6803   21.6115   70.3224 O   0  0  0  0  0
  -10.1268   25.9764   67.6664 O   0  0  0  0  0
   -3.6104   24.1756   68.3628 O   0  0  0  0  0
    0.3699   22.0123   64.9795 O   0  0  0  0  0
   -6.9461   22.0989   70.1978 N   0  0  0  0  0
   -7.9132   24.8141   69.2279 N   0  0  0  0  0
  -10.1447   25.1749   72.5018 N   0  0  0  0  0
   -4.0841   21.9826   67.7085 N   0  0  0  0  0
    0.3788   24.2380   65.6422 N   0  0  0  0  0
   -1.1473   21.8490   68.1748 N   0  0  0  0  0
  1  2  1  0  0  0
  2  3  1  0  0  0
  3  4  1  0  0  0
  4  5  1  0  0  0
  4 33  1  0  0  0
  5 30  1  0  0  0
  6 30  1  0  0  0
  6  7  1  0  0  0
  6 13  1  0  0  0
  7 31  1  0  0  0
  9  8  1  0  0  0
  9 10  1  0  0  0
  9  2  1  0  0  0
 11 31  1  0  0  0
 11 12  1  0  0  0
 13 14  1  0  0  0
 15 32  1  0  0  0
 17 16  1  0  0  0
 17 18  1  0  0  0
 17 14  1  0  0  0
 19 20  1  0  0  0
 21 16  1  0  0  0
 23 22  1  0  0  0
 23 24  1  0  0  0
 23 35  1  0  0  0
 24 25  1  0  0  0
 25 34  1  0  0  0
 33 22  1  0  0  0
  5 26  2  0  0  0
  7  8  2  0  0  0
 12 27  2  0  0  0
 14 15  2  0  0  0
 16 32  2  0  0  0
 18 19  2  0  0  0
 20 21  2  0  0  0
 22 28  2  0  0  0
 25 29  2  0  0  0
M  END
> <rmsd>
0.589907825

$$$$
PubChem-137339458 1772713736 MCULE-5442560970 MolPort-046-753-430 ZINC001772713736


 36 37  0  0  0  0  0  0  0  0999 V2000
   -4.9686   27.5002   75.4188 C   0  0  0  0  0
   -4.7398   26.0235   75.3679 C   0  0  0  0  0
   -4.5048   25.2861   76.6398 C   0  0  0  0  0
   -4.7397   25.3456   74.2161 C   0  0  0  0  0
   -4.9664   25.9961   72.8871 C   0  0  0  0  0
   -6.1906   24.9221   71.2297 C   0  0  0  0  0
   -6.6769   23.4867   71.2385 C   0  0  0  0  0
   -5.4673   21.7740   69.8357 C   0  0  0  0  0
   -5.2517   21.1612   68.4846 C   0  0  0  0  0
   -5.4628   19.6436   68.5159 C   0  0  0  0  0
   -5.1987   19.0353   67.1496 C   0  0  0  0  0
   -6.8876   19.3045   68.9198 C   0  0  0  0  0
   -3.4866   22.8079   67.6743 C   0  0  0  0  0
   -2.1539   23.0409   67.0404 C   0  0  0  0  0
   -2.3231   23.1939   65.5416 C   0  0  0  0  0
   -0.0199   22.0786   68.0190 C   0  0  0  0  0
    0.4141   23.4163   68.5583 C   0  0  0  0  0
    1.2712   24.2076   67.5633 C   0  0  0  0  0
    2.5404   23.4710   67.1613 C   0  0  0  0  0
    0.7699   23.8220   71.0670 C   0  0  0  0  0
   -0.5168   24.5083   71.2916 C   0  0  0  0  0
   -1.6529   24.4348   70.4969 C   0  0  0  0  0
   -2.5433   25.2247   71.2008 C   0  0  0  0  0
   -3.9600   25.5075   70.8178 C   0  0  0  0  0
   -4.8713   24.9956   71.8344 N   0  0  0  0  0
   -6.3757   22.8666   69.9605 N   0  0  0  0  0
   -3.9125   21.4792   67.9987 N   0  0  0  0  0
   -1.2522   21.9311   67.3117 N   0  0  0  0  0
    1.1406   23.2460   69.8097 N   0  0  0  0  0
   -0.7463   25.2793   72.3722 N   0  0  0  0  0
   -4.8315   21.3507   70.8396 O   0  0  0  0  0
   -4.2517   23.7894   67.8727 O   0  0  0  0  0
    0.7244   21.0721   68.1636 O   0  0  0  0  0
    0.5331   24.5349   66.4262 O   0  0  0  0  0
    1.5847   23.7439   72.0235 O   0  0  0  0  0
   -1.9708   25.6957   72.2804 O   0  0  0  0  0
  1  2  1  0  0  0
  3  2  1  0  0  0
  5  4  1  0  0  0
  5 25  1  0  0  0
  6 25  1  0  0  0
  6  7  1  0  0  0
  7 26  1  0  0  0
  9  8  1  0  0  0
  9 10  1  0  0  0
  9 27  1  0  0  0
 10 11  1  0  0  0
 10 12  1  0  0  0
 14 13  1  0  0  0
 14 15  1  0  0  0
 14 28  1  0  0  0
 17 16  1  0  0  0
 17 18  1  0  0  0
 17 29  1  0  0  0
 18 19  1  0  0  0
 18 34  1  0  0  0
 20 21  1  0  0  0
 21 22  1  0  0  0
 23 36  1  0  0  0
 24 23  1  0  0  0
 24 25  1  0  0  0
 26  8  1  0  0  0
 27 13  1  0  0  0
 28 16  1  0  0  0
 29 20  1  0  0  0
 36 30  1  0  0  0
  2  4  2  0  0  0
  8 31  2  0  0  0
 13 32  2  0  0  0
 16 33  2  0  0  0
 20 35  2  0  0  0
 21 30  2  0  0  0
 22 23  2  0  0  0
M  END
> <rmsd>
0.521463394

$$$$
PubChem-76924772


 16 15  0  0  0  0  0  0  0  0999 V2000
    0.5920   23.4227   71.7425 C   0  0  0  0  0
    0.0396   24.0012   70.4574 C   0  0  0  0  0
   -1.2060   23.2352   70.0533 C   0  0  0  0  0
   -1.7778   23.7923   68.7562 C   0  0  0  0  0
   -0.9431   23.4147   67.5709 C   0  0  0  0  0
   -3.1985   23.3650   68.5757 C   0  0  0  0  0
   -4.9055   21.4998   68.3953 C   0  0  0  0  0
   -4.8965   20.0335   68.0084 C   0  0  0  0  0
   -5.6567   21.6902   69.6737 C   0  0  0  0  0
   -0.4560   24.3478   66.8175 N   0  0  0  0  0
   -0.6893   22.0412   67.2753 N   0  0  0  0  0
   -3.5358   21.9745   68.5340 N   0  0  0  0  0
   -6.8351   22.4864   69.6856 N   0  0  0  0  0
    0.3157   24.0493   65.7180 O   0  0  0  0  0
   -4.0946   24.2425   68.4556 O   0  0  0  0  0
   -5.2518   21.1565   70.7408 O   0  0  0  0  0
  1  2  1  0  0  0
  2  3  1  0  0  0
  4  3  1  0  0  0
  4  5  1  0  0  0
  4  6  1  0  0  0
  5 11  1  0  0  0
  6 12  1  0  0  0
  7 12  1  0  0  0
  7  8  1  0  0  0
  7  9  1  0  0  0
  9 13  1  0  0  0
 10 14  1  0  0  0
  5 10  2  0  0  0
  6 15  2  0  0  0
  9 16  2  0  0  0
M  END
> <rmsd>
0.491112262

$$$$
PubChem-44819351


 24 24  0  0  0  0  0  0  0  0999 V2000
   -5.7716   19.7118   66.5879 C   0  0  0  0  0
   -5.8543   19.9675   68.0815 C   0  0  0  0  0
   -7.3101   19.8297   68.4930 C   0  0  0  0  0
   -5.0362   18.9046   68.7983 C   0  0  0  0  0
   -5.3388   21.3886   68.3885 C   0  0  0  0  0
   -5.5095   21.8055   69.8221 C   0  0  0  0  0
   -6.5993   23.3388   71.4969 C   0  0  0  0  0
   -3.3818   22.8182   67.6434 C   0  0  0  0  0
   -1.9515   22.9037   67.1767 C   0  0  0  0  0
   -1.2894   24.1235   67.8300 C   0  0  0  0  0
    0.2162   24.1974   67.5963 C   0  0  0  0  0
   -1.9111   23.0484   65.6468 C   0  0  0  0  0
   -2.5601   21.9153   64.9107 C   0  0  0  0  0
   -1.9831   20.6387   64.9044 C   0  0  0  0  0
   -2.5950   19.5957   64.2029 C   0  0  0  0  0
   -3.7813   19.8275   63.5004 C   0  0  0  0  0
   -4.3545   21.1027   63.4974 C   0  0  0  0  0
   -3.7430   22.1455   64.1997 C   0  0  0  0  0
   -4.8671   21.2218   70.7372 O   0  0  0  0  0
   -4.1017   23.8548   67.6704 O   0  0  0  0  0
    0.4829   24.6972   66.3218 O   0  0  0  0  0
   -1.2595   21.7513   67.5669 O   0  0  0  0  0
   -6.3950   22.8806   70.1333 N   0  0  0  0  0
   -3.9470   21.5474   67.9789 N   0  0  0  0  0
  1  2  1  0  0  0
  2  3  1  0  0  0
  2  4  1  0  0  0
  5  2  1  0  0  0
  5  6  1  0  0  0
  5 24  1  0  0  0
  6 23  1  0  0  0
  7 23  1  0  0  0
  9  8  1  0  0  0
  9 10  1  0  0  0
  9 12  1  0  0  0
  9 22  1  0  0  0
 10 11  1  0  0  0
 11 21  1  0  0  0
 12 13  1  0  0  0
 14 15  1  0  0  0
 16 17  1  0  0  0
 18 13  1  0  0  0
 24  8  1  0  0  0
  6 19  2  0  0  0
  8 20  2  0  0  0
 13 14  2  0  0  0
 15 16  2  0  0  0
 17 18  2  0  0  0
M  END
> <rmsd>
0.468237787

$$$$
PubChem-61466211


 16 16  0  0  0  0  0  0  0  0999 V2000
   -2.1319   26.0266   66.9139 C   0  0  0  0  0
   -1.4216   24.7185   66.9667 C   0  0  0  0  0
   -1.9711   23.4884   67.2835 C   0  0  0  0  0
   -0.8970   22.6273   67.1861 C   0  0  0  0  0
   -3.3662   23.1705   67.6417 C   0  0  0  0  0
   -5.0903   21.4449   68.3312 C   0  0  0  0  0
   -5.2537   19.9421   68.2101 C   0  0  0  0  0
   -5.3648   21.8818   69.7342 C   0  0  0  0  0
   -6.7628   23.2439   71.3264 C   0  0  0  0  0
    0.2141   23.2989   66.8353 N   0  0  0  0  0
   -0.1077   24.5778   66.7013 N   0  0  0  0  0
   -0.9243   21.2228   67.4180 N   0  0  0  0  0
   -3.7403   21.8215   67.9353 N   0  0  0  0  0
   -6.4490   22.7750   69.9874 N   0  0  0  0  0
   -4.2303   24.0875   67.6861 O   0  0  0  0  0
   -4.6407   21.4700   70.6818 O   0  0  0  0  0
  1  2  1  0  0  0
  3  4  1  0  0  0
  3  5  1  0  0  0
  4 12  1  0  0  0
  5 13  1  0  0  0
  6 13  1  0  0  0
  6  7  1  0  0  0
  6  8  1  0  0  0
  8 14  1  0  0  0
  9 14  1  0  0  0
 11 10  1  0  0  0
 11  2  1  0  0  0
  2  3  2  0  0  0
  4 10  2  0  0  0
  5 15  2  0  0  0
  8 16  2  0  0  0
M  END
> <rmsd>
0.501383245

$$$$
PubChem-145343769 PubChem-145343770


 26 27  0  0  0  0  0  0  0  0999 V2000
   -9.7624   24.1642   73.1220 C   0  0  0  0  0
  -10.6213   23.0263   73.6904 C   0  0  0  0  0
   -8.4177   22.2949   73.5890 C   0  0  0  0  0
   -8.3272   23.6533   73.0115 C   0  0  0  0  0
   -7.9340   23.5883   71.5412 C   0  0  0  0  0
   -6.4363   23.3800   71.3801 C   0  0  0  0  0
   -5.7077   24.6590   71.6393 C   0  0  0  0  0
   -5.5300   21.6714   69.7658 C   0  0  0  0  0
   -5.1668   21.3076   68.3675 C   0  0  0  0  0
   -3.3541   23.0195   67.9034 C   0  0  0  0  0
   -1.9178   23.3154   67.7191 C   0  0  0  0  0
   -1.3944   24.7069   67.7526 C   0  0  0  0  0
   -2.0186   25.6553   68.5798 C   0  0  0  0  0
   -1.5412   26.9650   68.6576 C   0  0  0  0  0
   -0.4280   27.3463   67.9089 C   0  0  0  0  0
    0.2062   26.4184   67.0814 C   0  0  0  0  0
   -0.2644   25.1037   66.9985 C   0  0  0  0  0
   -9.7232   21.9229   73.9680 N   0  0  0  0  0
   -6.1577   22.9265   70.0274 N   0  0  0  0  0
   -3.7809   21.6674   68.1011 N   0  0  0  0  0
   -1.0938   22.3266   67.5855 N   0  0  0  0  0
    0.3943   24.1978   66.1176 N   0  0  0  0  0
   -7.4272   21.5349   73.7523 O   0  0  0  0  0
   -4.4878   24.6879   71.6246 O   0  0  0  0  0
   -5.2450   20.8872   70.7099 O   0  0  0  0  0
   -4.2062   23.9485   67.8669 O   0  0  0  0  0
  1  2  1  0  0  0
  2 18  1  0  0  0
  4  3  1  0  0  0
  4  5  1  0  0  0
  4  1  1  0  0  0
  5  6  1  0  0  0
  6  7  1  0  0  0
  6 19  1  0  0  0
  9  8  1  0  0  0
  9 20  1  0  0  0
 10 11  1  0  0  0
 11 12  1  0  0  0
 13 14  1  0  0  0
 15 16  1  0  0  0
 17 22  1  0  0  0
 17 12  1  0  0  0
 18  3  1  0  0  0
 19  8  1  0  0  0
 20 10  1  0  0  0
  3 23  2  0  0  0
  7 24  2  0  0  0
  8 25  2  0  0  0
 10 26  2  0  0  0
 11 21  2  0  0  0
 12 13  2  0  0  0
 14 15  2  0  0  0
 16 17  2  0  0  0
M  END
> <rmsd>
0.471194386

$$$$
PubChem-106279621


 21 21  0  0  0  0  0  0  0  0999 V2000
   -7.0949   20.1764   68.3207 C   0  0  0  0  0
   -5.7000   20.6259   68.7106 C   0  0  0  0  0
   -4.8251   19.3830   68.8223 C   0  0  0  0  0
   -5.1608   21.5289   67.6018 C   0  0  0  0  0
   -3.5315   23.4011   68.0642 C   0  0  0  0  0
   -2.1822   23.8469   68.5360 C   0  0  0  0  0
   -1.9130   23.4542   69.9590 C   0  0  0  0  0
   -1.7736   24.4573   70.9246 C   0  0  0  0  0
   -1.5350   24.1206   72.2606 C   0  0  0  0  0
   -1.4363   22.7780   72.6368 C   0  0  0  0  0
   -1.5760   21.7710   71.6777 C   0  0  0  0  0
   -1.8142   22.1070   70.3421 C   0  0  0  0  0
   -1.0798   23.4520   67.6010 C   0  0  0  0  0
   -5.7736   21.3777   70.0183 C   0  0  0  0  0
   -3.8230   22.0093   67.9211 N   0  0  0  0  0
   -0.3680   24.3761   67.0400 N   0  0  0  0  0
   -0.8095   22.0749   67.3394 N   0  0  0  0  0
   -6.5606   22.5620   70.1145 N   0  0  0  0  0
   -4.4152   24.2653   67.8206 O   0  0  0  0  0
    0.6584   24.0643   66.1782 O   0  0  0  0  0
   -5.1403   20.9790   71.0330 O   0  0  0  0  0
  1  2  1  0  0  0
  2  3  1  0  0  0
  2  4  1  0  0  0
  2 14  1  0  0  0
  4 15  1  0  0  0
  6  5  1  0  0  0
  6  7  1  0  0  0
  6 13  1  0  0  0
  8  9  1  0  0  0
 10 11  1  0  0  0
 12  7  1  0  0  0
 13 17  1  0  0  0
 14 18  1  0  0  0
 15  5  1  0  0  0
 16 20  1  0  0  0
  5 19  2  0  0  0
  7  8  2  0  0  0
  9 10  2  0  0  0
 11 12  2  0  0  0
 13 16  2  0  0  0
 14 21  2  0  0  0
M  END
> <rmsd>
0.487125039

$$$$
PubChem-61478997


 17 17  0  0  0  0  0  0  0  0999 V2000
   -6.7984   24.7421   71.2877 C   0  0  0  0  0
   -6.8128   23.2281   71.3001 C   0  0  0  0  0
   -5.3631   21.8932   69.7306 C   0  0  0  0  0
   -5.0834   21.4282   68.3377 C   0  0  0  0  0
   -5.2317   19.9214   68.2543 C   0  0  0  0  0
   -3.3598   23.1615   67.6602 C   0  0  0  0  0
   -1.9665   23.4804   67.2957 C   0  0  0  0  0
   -1.4147   24.7141   66.9978 C   0  0  0  0  0
   -0.8970   22.6169   67.1721 C   0  0  0  0  0
   -2.1197   26.0259   66.9769 C   0  0  0  0  0
   -6.4942   22.7296   69.9729 N   0  0  0  0  0
   -3.7369   21.8084   67.9320 N   0  0  0  0  0
   -0.1037   24.5732   66.7181 N   0  0  0  0  0
    0.2138   23.2906   66.8246 N   0  0  0  0  0
   -0.9283   21.2084   67.3772 N   0  0  0  0  0
   -4.6060   21.5504   70.6798 O   0  0  0  0  0
   -4.2196   24.0809   67.7291 O   0  0  0  0  0
  1  2  1  0  0  0
  2 11  1  0  0  0
  4  3  1  0  0  0
  4  5  1  0  0  0
  4 12  1  0  0  0
  6  7  1  0  0  0
  8 13  1  0  0  0
  9 15  1  0  0  0
  9  7  1  0  0  0
 10  8  1  0  0  0
 11  3  1  0  0  0
 12  6  1  0  0  0
 13 14  1  0  0  0
  3 16  2  0  0  0
  6 17  2  0  0  0
  7  8  2  0  0  0
  9 14  2  0  0  0
M  END
> <rmsd>
0.514643967

$$$$
PubChem-76924773


 16 15  0  0  0  0  0  0  0  0999 V2000
    0.2573   23.6689   70.3056 C   0  0  0  0  0
   -1.1649   23.1788   70.0912 C   0  0  0  0  0
   -1.9927   23.5903   71.2974 C   0  0  0  0  0
   -1.7555   23.7536   68.7938 C   0  0  0  0  0
   -0.9357   23.4000   67.5884 C   0  0  0  0  0
   -3.1822   23.3415   68.5872 C   0  0  0  0  0
   -4.9072   21.4946   68.3983 C   0  0  0  0  0
   -4.9123   20.0275   68.0149 C   0  0  0  0  0
   -5.6609   21.6959   69.6736 C   0  0  0  0  0
   -0.4669   24.3478   66.8417 N   0  0  0  0  0
   -0.6801   22.0329   67.2665 N   0  0  0  0  0
   -3.5331   21.9547   68.5418 N   0  0  0  0  0
   -6.8320   22.5030   69.6790 N   0  0  0  0  0
    0.2882   24.0712   65.7252 O   0  0  0  0  0
   -4.0666   24.2285   68.4519 O   0  0  0  0  0
   -5.2641   21.1623   70.7437 O   0  0  0  0  0
  1  2  1  0  0  0
  2  3  1  0  0  0
  2  4  1  0  0  0
  4  5  1  0  0  0
  4  6  1  0  0  0
  5 11  1  0  0  0
  6 12  1  0  0  0
  7 12  1  0  0  0
  7  8  1  0  0  0
  7  9  1  0  0  0
  9 13  1  0  0  0
 10 14  1  0  0  0
  5 10  2  0  0  0
  6 15  2  0  0  0
  9 16  2  0  0  0
M  END
> <rmsd>
0.485863417

$$$$
PubChem-139292479


 17 16  0  0  0  0  0  0  0  0999 V2000
   -6.4057   21.8689   67.4463 C   0  0  0  0  0
   -5.3444   21.2695   68.3671 C   0  0  0  0  0
   -5.5803   19.7623   68.4779 C   0  0  0  0  0
   -5.4276   21.8574   69.7553 C   0  0  0  0  0
   -6.5486   23.3869   71.4201 C   0  0  0  0  0
   -3.4387   22.8035   67.5726 C   0  0  0  0  0
   -2.0536   22.9062   66.9772 C   0  0  0  0  0
   -2.2000   22.7391   65.4738 C   0  0  0  0  0
   -1.4359   24.2879   67.2622 C   0  0  0  0  0
   -0.9933   21.9250   68.9227 C   0  0  0  0  0
   -5.3681   18.8926   66.8876 S   0  0  0  0  0
    0.2543   24.4582   66.5961 S   0  0  0  0  0
   -4.5819   21.5108   70.6256 O   0  0  0  0  0
   -4.1125   23.8455   67.8044 O   0  0  0  0  0
   -6.4494   22.8008   70.0941 N   0  0  0  0  0
   -4.0122   21.5095   67.8098 N   0  0  0  0  0
   -1.1881   21.8271   67.4776 N   0  0  0  0  0
  2  1  1  0  0  0
  2  3  1  0  0  0
  2  4  1  0  0  0
  2 16  1  0  0  0
  3 11  1  0  0  0
  4 15  1  0  0  0
  5 15  1  0  0  0
  7  6  1  0  0  0
  7  8  1  0  0  0
  7  9  1  0  0  0
  7 17  1  0  0  0
  9 12  1  0  0  0
 10 17  1  0  0  0
 16  6  1  0  0  0
  4 13  2  0  0  0
  6 14  2  0  0  0
M  END
> <rmsd>
0.492655545

$$$$
PubChem-11844908


 21 21  0  0  0  0  0  0  0  0999 V2000
   -5.7780   20.0972   67.7928 C   0  0  0  0  0
   -5.3856   21.5290   68.1035 C   0  0  0  0  0
   -6.2461   22.4420   67.2390 C   0  0  0  0  0
   -5.5961   21.7831   69.5759 C   0  0  0  0  0
   -6.7550   23.0375   71.4335 C   0  0  0  0  0
   -7.7785   24.1058   71.5818 C   0  0  0  0  0
   -3.2479   22.9360   67.9003 C   0  0  0  0  0
   -1.8102   23.0013   67.5109 C   0  0  0  0  0
   -1.6634   22.7784   66.0126 C   0  0  0  0  0
   -0.2936   23.1456   65.5504 C   0  0  0  0  0
    0.6099   22.2811   64.9831 C   0  0  0  0  0
    1.4500   24.2545   65.0868 C   0  0  0  0  0
   -4.9279   21.1248   70.4202 O   0  0  0  0  0
   -8.9902   23.8004   71.7288 O   0  0  0  0  0
   -7.4027   25.4407   71.5183 O   0  0  0  0  0
   -3.8118   23.9694   68.3489 O   0  0  0  0  0
   -6.5381   22.7631   70.0228 N   0  0  0  0  0
   -3.9770   21.7087   67.7566 N   0  0  0  0  0
    1.7153   22.9911   64.6931 N   0  0  0  0  0
    0.2183   24.3853   65.6183 N   0  0  0  0  0
   -1.0545   21.9988   68.2444 N   0  0  0  0  0
  1  2  1  0  0  0
  2  3  1  0  0  0
  2  4  1  0  0  0
  2 18  1  0  0  0
  4 17  1  0  0  0
  5 17  1  0  0  0
  5  6  1  0  0  0
  6 15  1  0  0  0
  8  7  1  0  0  0
  8  9  1  0  0  0
  8 21  1  0  0  0
  9 10  1  0  0  0
 11 19  1  0  0  0
 12 20  1  0  0  0
 18  7  1  0  0  0
 20 10  1  0  0  0
  4 13  2  0  0  0
  6 14  2  0  0  0
  7 16  2  0  0  0
 10 11  2  0  0  0
 12 19  2  0  0  0
M  END
> <rmsd>
0.501712978

$$$$
PubChem-130593989 MCULE-8864148359


 14 14  0  0  0  0  0  0  0  0999 V2000
   -5.5393   19.8739   68.2885 C   0  0  0  0  0
   -5.1986   21.3493   68.3692 C   0  0  0  0  0
   -3.2617   22.8377   67.6751 C   0  0  0  0  0
   -3.5648   25.1850   67.4288 C   0  0  0  0  0
   -2.2198   25.3481   67.0954 C   0  0  0  0  0
   -1.3854   24.2305   67.0515 C   0  0  0  0  0
   -1.9047   22.9615   67.3420 C   0  0  0  0  0
   -5.4238   21.8510   69.7598 C   0  0  0  0  0
   -3.8110   21.5498   67.9727 N   0  0  0  0  0
   -4.0525   23.9471   67.7081 N   0  0  0  0  0
   -0.0120   24.3927   66.7110 N   0  0  0  0  0
   -1.0632   21.8106   67.3008 N   0  0  0  0  0
   -6.3984   22.8600   69.9948 N   0  0  0  0  0
   -4.7546   21.3915   70.7234 O   0  0  0  0  0
  1  2  1  0  0  0
  2  9  1  0  0  0
  2  8  1  0  0  0
  4 10  1  0  0  0
  5  6  1  0  0  0
  6 11  1  0  0  0
  7 12  1  0  0  0
  7  3  1  0  0  0
  8 13  1  0  0  0
  9  3  1  0  0  0
  3 10  2  0  0  0
  4  5  2  0  0  0
  6  7  2  0  0  0
  8 14  2  0  0  0
M  END
> <rmsd>
0.432960212

$$$$
PubChem-164788824


 29 33  0  0  0  0  0  0  0  0999 V2000
   -6.4646   24.1387   66.0111 C   0  0  0  0  0
   -6.9894   23.4337   64.7653 C   0  0  0  0  0
   -5.8649   22.6645   64.0723 C   0  0  0  0  0
   -4.6745   23.5734   63.7378 C   0  0  0  0  0
   -4.2056   24.3785   64.9669 C   0  0  0  0  0
   -5.3646   25.1216   65.6283 C   0  0  0  0  0
   -3.0602   25.3586   64.6508 C   0  0  0  0  0
   -2.5705   25.2676   63.2048 C   0  0  0  0  0
   -3.7445   25.4391   62.2430 C   0  0  0  0  0
   -4.8879   24.4384   62.4772 C   0  0  0  0  0
   -1.8896   25.2331   65.6348 C   0  0  0  0  0
   -1.2473   23.8630   65.6229 C   0  0  0  0  0
   -1.8277   23.2146   66.8471 C   0  0  0  0  0
   -2.2789   24.3743   67.7201 C   0  0  0  0  0
   -3.9967   25.2783   69.0853 C   0  0  0  0  0
   -4.8304   24.7889   70.2456 C   0  0  0  0  0
   -4.3806   23.3651   70.4580 C   0  0  0  0  0
   -3.5271   23.0093   69.2381 C   0  0  0  0  0
   -4.0535   20.7352   69.6307 C   0  0  0  0  0
   -5.5646   22.3981   70.6484 C   0  0  0  0  0
   -4.9700   23.6064   61.3762 F   0  0  0  0  0
   -6.0679   25.1539   62.5781 F   0  0  0  0  0
   -2.3022   25.5569   66.9429 O   0  0  0  0  0
   -0.8882   22.4292   67.5204 O   0  0  0  0  0
    0.1371   24.0158   65.7406 O   0  0  0  0  0
   -3.6099   24.1175   68.2866 N   0  0  0  0  0
   -3.9842   21.7726   68.6025 N   0  0  0  0  0
   -5.1351   20.9923   70.5990 N   0  0  0  0  0
   -6.6097   22.6236   69.6578 N   0  0  0  0  0
  1  2  1  0  0  0
  2  3  1  0  0  0
  3  4  1  0  0  0
  4  5  1  0  0  0
  5  6  1  0  0  0
  5  7  1  0  0  0
  6  1  1  0  0  0
  7  8  1  0  0  0
  8  9  1  0  0  0
  9 10  1  0  0  0
 10 21  1  0  0  0
 10 22  1  0  0  0
 10  4  1  0  0  0
 11  7  1  0  0  0
 11 12  1  0  0  0
 11 23  1  0  0  0
 12 13  1  0  0  0
 12 25  1  0  0  0
 13 14  1  0  0  0
 13 24  1  0  0  0
 14 23  1  0  0  0
 14 26  1  0  0  0
 15 26  1  0  0  0
 15 16  1  0  0  0
 16 17  1  0  0  0
 17 18  1  0  0  0
 18 27  1  0  0  0
 18 26  1  0  0  0
 19 27  1  0  0  0
 19 28  1  0  0  0
 20 28  1  0  0  0
 20 29  1  0  0  0
 20 17  1  0  0  0
M  END
> <rmsd>
0.470229685

$$$$
PubChem-136427660


 17 18  0  0  0  0  0  0  0  0999 V2000
   -7.3666   21.5699   70.9568 C   0  0  0  0  0
   -6.4642   20.5345   71.1012 C   0  0  0  0  0
   -5.6037   22.0322   69.8614 C   0  0  0  0  0
   -4.6454   22.7450   69.0101 C   0  0  0  0  0
   -4.8514   23.9762   68.4261 C   0  0  0  0  0
   -2.9126   23.2392   67.9112 C   0  0  0  0  0
   -1.5709   23.1604   67.3195 C   0  0  0  0  0
    0.6213   21.9772   67.8108 C   0  0  0  0  0
   -5.3497   20.8292   70.4072 N   0  0  0  0  0
   -6.8201   22.5165   70.1721 N   0  0  0  0  0
   -3.7438   24.2866   67.7271 N   0  0  0  0  0
   -3.4283   22.2708   68.6936 N   0  0  0  0  0
   -1.1621   24.1193   66.5437 N   0  0  0  0  0
   -0.7828   21.9821   67.5406 N   0  0  0  0  0
    0.0356   24.0668   65.8685 O   0  0  0  0  0
    1.2538   20.8902   67.7912 O   0  0  0  0  0
    1.2853   23.1511   68.1472 O   0  0  0  0  0
  2  9  1  0  0  0
  3 10  1  0  0  0
  3  4  1  0  0  0
  5 11  1  0  0  0
  6 12  1  0  0  0
  6  7  1  0  0  0
  7 14  1  0  0  0
  8 17  1  0  0  0
 10  1  1  0  0  0
 12  4  1  0  0  0
 13 15  1  0  0  0
 14  8  1  0  0  0
  1  2  2  0  0  0
  3  9  2  0  0  0
  4  5  2  0  0  0
  6 11  2  0  0  0
  7 13  2  0  0  0
  8 16  2  0  0  0
M  END
> <rmsd>
0.401653051

$$$$
PubChem-2851897 MCULE-1695352287


 25 26  0  0  0  0  0  0  0  0999 V2000
   -6.9583   20.2263   70.6385 C   0  0  0  0  0
   -6.0338   21.3460   70.3242 C   0  0  0  0  0
   -5.6159   23.3985   68.8721 C   0  0  0  0  0
   -6.1002   24.6222   68.6127 C   0  0  0  0  0
   -7.4587   25.1331   68.8876 C   0  0  0  0  0
   -8.4478   24.3695   69.5278 C   0  0  0  0  0
   -9.7154   24.9081   69.7667 C   0  0  0  0  0
  -10.0042   26.2157   69.3686 C   0  0  0  0  0
   -9.0252   26.9835   68.7328 C   0  0  0  0  0
   -7.7579   26.4429   68.4948 C   0  0  0  0  0
   -4.2231   23.0969   68.4765 C   0  0  0  0  0
   -2.5178   21.2993   67.8670 C   0  0  0  0  0
   -0.1128   22.0617   67.3120 C   0  0  0  0  0
    0.5398   20.9609   67.8882 C   0  0  0  0  0
    1.9235   20.8114   67.7640 C   0  0  0  0  0
    2.6689   21.7677   67.0711 C   0  0  0  0  0
    2.0307   22.8749   66.5070 C   0  0  0  0  0
    0.6458   23.0267   66.6302 C   0  0  0  0  0
   -4.9054   21.3944   70.8816 O   0  0  0  0  0
   -3.4057   24.0399   68.2897 O   0  0  0  0  0
    0.0287   24.1388   66.0703 O   0  0  0  0  0
   -6.4604   22.3824   69.4345 N   0  0  0  0  0
   -3.8185   21.7364   68.2747 N   0  0  0  0  0
   -1.5279   22.2580   67.4582 N   0  0  0  0  0
   -2.2784   19.6902   67.6716 S   0  0  0  0  0
  1  2  1  0  0  0
  2 22  1  0  0  0
  3 11  1  0  0  0
  4  5  1  0  0  0
  6  7  1  0  0  0
  8  9  1  0  0  0
 10  5  1  0  0  0
 11 23  1  0  0  0
 12 24  1  0  0  0
 14 15  1  0  0  0
 16 17  1  0  0  0
 18 21  1  0  0  0
 18 13  1  0  0  0
 22  3  1  0  0  0
 23 12  1  0  0  0
 24 13  1  0  0  0
  2 19  2  0  0  0
  3  4  2  0  0  0
  5  6  2  0  0  0
  7  8  2  0  0  0
  9 10  2  0  0  0
 11 20  2  0  0  0
 12 25  2  0  0  0
 13 14  2  0  0  0
 15 16  2  0  0  0
 17 18  2  0  0  0
M  END
> <rmsd>
0.494212717

$$$$
PubChem-77042998


 21 22  0  0  0  0  0  0  0  0999 V2000
   -3.6231   25.4115   73.1644 C   0  0  0  0  0
   -2.6183   26.1143   72.4921 C   0  0  0  0  0
   -1.8913   25.4916   71.4729 C   0  0  0  0  0
   -2.1665   24.1635   71.1270 C   0  0  0  0  0
   -3.1743   23.4628   71.7990 C   0  0  0  0  0
   -3.9012   24.0858   72.8176 C   0  0  0  0  0
   -1.4087   23.5017   70.0242 C   0  0  0  0  0
   -1.9404   23.9187   68.6543 C   0  0  0  0  0
   -0.9960   23.5121   67.5696 C   0  0  0  0  0
   -3.3180   23.3888   68.4018 C   0  0  0  0  0
   -4.9188   21.4270   68.3845 C   0  0  0  0  0
   -5.6532   21.6453   69.6632 C   0  0  0  0  0
   -6.3182   21.4608   71.6459 C   0  0  0  0  0
   -0.5053   24.4183   66.7863 N   0  0  0  0  0
   -0.6432   22.1396   67.3967 N   0  0  0  0  0
   -3.5773   21.9835   68.4792 N   0  0  0  0  0
   -5.5258   20.8507   70.7410 N   0  0  0  0  0
   -6.8836   22.5717   71.1341 N   0  0  0  0  0
   -6.4619   22.6922   69.8879 N   0  0  0  0  0
    0.3660   24.0917   65.7724 O   0  0  0  0  0
   -4.2475   24.1952   68.1317 O   0  0  0  0  0
  2  3  1  0  0  0
  4  5  1  0  0  0
  6  1  1  0  0  0
  7  4  1  0  0  0
  8  7  1  0  0  0
  8  9  1  0  0  0
  8 10  1  0  0  0
  9 15  1  0  0  0
 10 16  1  0  0  0
 11 16  1  0  0  0
 11 12  1  0  0  0
 13 17  1  0  0  0
 14 20  1  0  0  0
 19 18  1  0  0  0
 19 12  1  0  0  0
  1  2  2  0  0  0
  3  4  2  0  0  0
  5  6  2  0  0  0
  9 14  2  0  0  0
 10 21  2  0  0  0
 12 17  2  0  0  0
 13 18  2  0  0  0
M  END
> <rmsd>
0.497144103

$$$$
PubChem-66256190


 17 17  0  0  0  0  0  0  0  0999 V2000
  -10.4506   23.2100   67.8480 C   0  0  0  0  0
   -9.4166   23.4102   68.9354 C   0  0  0  0  0
   -8.1617   22.6392   68.5858 C   0  0  0  0  0
   -5.9921   22.0710   69.2436 C   0  0  0  0  0
   -5.9728   20.7485   69.9823 C   0  0  0  0  0
   -4.1285   21.7811   70.6914 C   0  0  0  0  0
   -4.7643   22.7732   69.7450 C   0  0  0  0  0
   -3.8374   23.1066   68.6220 C   0  0  0  0  0
   -2.4032   22.3385   66.6798 C   0  0  0  0  0
   -1.0173   22.6416   67.2299 C   0  0  0  0  0
   -0.1074   23.1156   66.1124 C   0  0  0  0  0
   -7.1695   22.8310   69.6291 N   0  0  0  0  0
   -3.3348   22.0739   67.7671 N   0  0  0  0  0
   -5.1101   20.8602   71.0837 O   0  0  0  0  0
   -3.5062   24.3074   68.4340 O   0  0  0  0  0
   -0.4909   24.3899   65.6931 O   0  0  0  0  0
   -0.4791   21.4899   67.8041 O   0  0  0  0  0
  1  2  1  0  0  0
  2  3  1  0  0  0
  3 12  1  0  0  0
  4 12  1  0  0  0
  4  5  1  0  0  0
  5 14  1  0  0  0
  6 14  1  0  0  0
  6  7  1  0  0  0
  7  8  1  0  0  0
  7  4  1  0  0  0
  8 13  1  0  0  0
  9 13  1  0  0  0
 10  9  1  0  0  0
 10 11  1  0  0  0
 10 17  1  0  0  0
 11 16  1  0  0  0
  8 15  2  0  0  0
M  END
> <rmsd>
0.638760209

$$$$
PubChem-116336561


 16 16  0  0  0  0  0  0  0  0999 V2000
   -4.9137   19.9821   68.0458 C   0  0  0  0  0
   -4.9106   21.4633   68.3695 C   0  0  0  0  0
   -5.6808   21.7115   69.6267 C   0  0  0  0  0
   -6.2666   21.6822   71.6699 C   0  0  0  0  0
   -7.1647   22.4508   70.9557 C   0  0  0  0  0
   -3.1852   23.3110   68.5767 C   0  0  0  0  0
   -1.7606   23.7209   68.7667 C   0  0  0  0  0
   -1.1741   23.0984   70.0219 C   0  0  0  0  0
   -0.9314   23.3951   67.5659 C   0  0  0  0  0
   -5.3272   21.2156   70.8273 N   0  0  0  0  0
   -6.7910   22.4684   69.6632 N   0  0  0  0  0
   -3.5370   21.9245   68.5163 N   0  0  0  0  0
   -0.4287   24.3598   66.8642 N   0  0  0  0  0
   -0.7017   22.0359   67.1944 N   0  0  0  0  0
   -4.0702   24.1995   68.4558 O   0  0  0  0  0
    0.3383   24.1090   65.7495 O   0  0  0  0  0
  1  2  1  0  0  0
  2  3  1  0  0  0
  2 12  1  0  0  0
  4 10  1  0  0  0
  5 11  1  0  0  0
  7  6  1  0  0  0
  7  8  1  0  0  0
  7  9  1  0  0  0
  9 14  1  0  0  0
 11  3  1  0  0  0
 12  6  1  0  0  0
 13 16  1  0  0  0
  3 10  2  0  0  0
  4  5  2  0  0  0
  6 15  2  0  0  0
  9 13  2  0  0  0
M  END
> <rmsd>
0.503871977

$$$$
PubChem-60717428


 20 22  0  0  0  0  0  0  0  0999 V2000
   -5.5042   19.8941   68.1855 C   0  0  0  0  0
   -5.2152   21.3787   68.2922 C   0  0  0  0  0
   -5.4550   21.8443   69.6924 C   0  0  0  0  0
   -5.2786   22.0747   71.7765 C   0  0  0  0  0
   -4.9302   22.0080   73.1231 C   0  0  0  0  0
   -5.6383   22.8344   74.0156 C   0  0  0  0  0
   -6.6586   23.6912   73.5448 C   0  0  0  0  0
   -6.9828   23.7319   72.1758 C   0  0  0  0  0
   -6.2617   22.9004   71.3227 C   0  0  0  0  0
   -3.3247   22.9494   67.6682 C   0  0  0  0  0
   -1.9109   23.1293   67.3213 C   0  0  0  0  0
   -1.2915   24.3374   67.0709 C   0  0  0  0  0
    0.1096   22.7475   66.8843 C   0  0  0  0  0
   -4.7434   21.3875   70.7582 N   0  0  0  0  0
   -6.3964   22.7757   69.9952 N   0  0  0  0  0
   -3.8354   21.6337   67.9016 N   0  0  0  0  0
    0.0016   24.0868   66.7917 N   0  0  0  0  0
   -1.0339   22.1161   67.2063 N   0  0  0  0  0
   -4.0843   23.9521   67.7568 O   0  0  0  0  0
    1.1918   22.1366   66.6861 O   0  0  0  0  0
  2  1  1  0  0  0
  2  3  1  0  0  0
  2 16  1  0  0  0
  4 14  1  0  0  0
  5  6  1  0  0  0
  7  8  1  0  0  0
  9 15  1  0  0  0
  9  4  1  0  0  0
 10 11  1  0  0  0
 12 17  1  0  0  0
 13 18  1  0  0  0
 15  3  1  0  0  0
 16 10  1  0  0  0
 17 13  1  0  0  0
 18 11  1  0  0  0
  3 14  2  0  0  0
  4  5  2  0  0  0
  6  7  2  0  0  0
  8  9  2  0  0  0
 10 19  2  0  0  0
 11 12  2  0  0  0
 13 20  2  0  0  0
M  END
> <rmsd>
0.469031513

$$$$
PubChem-142236301


 30 31  0  0  0  0  0  0  0  0999 V2000
   -1.4266   25.2298   68.1438 C   0  0  0  0  0
   -1.0857   24.1785   67.1338 C   0  0  0  0  0
   -1.9152   22.9124   66.9655 C   0  0  0  0  0
   -2.3219   22.8085   65.4926 C   0  0  0  0  0
   -3.5459   21.7865   63.9664 C   0  0  0  0  0
   -3.1840   22.9349   67.8037 C   0  0  0  0  0
   -5.2714   23.9629   68.3100 C   0  0  0  0  0
   -5.5245   22.9658   69.2721 C   0  0  0  0  0
   -4.5703   21.9614   69.4584 C   0  0  0  0  0
   -6.2166   25.0665   68.0304 C   0  0  0  0  0
   -8.4007   26.2499   68.4782 C   0  0  0  0  0
   -9.5877   26.0941   69.3614 C   0  0  0  0  0
   -9.5978   26.6823   70.6309 C   0  0  0  0  0
  -10.7034   26.5155   71.4706 C   0  0  0  0  0
  -11.7973   25.7562   71.0437 C   0  0  0  0  0
  -11.7845   25.1608   69.7786 C   0  0  0  0  0
  -10.6791   25.3274   68.9386 C   0  0  0  0  0
   -0.4141   21.5227   68.5381 C   0  0  0  0  0
    0.3898   20.2878   68.7257 C   0  0  0  0  0
   -0.0076   24.3242   66.4529 N   0  0  0  0  0
   -4.1096   23.9130   67.6033 N   0  0  0  0  0
   -3.4300   21.9637   68.7236 N   0  0  0  0  0
   -7.4556   25.1752   68.7348 N   0  0  0  0  0
   -1.0883   21.7435   67.2928 N   0  0  0  0  0
   -3.0130   21.6195   65.2434 O   0  0  0  0  0
   -4.7628   21.0502   70.3059 O   0  0  0  0  0
   -6.6913   22.9582   70.0307 O   0  0  0  0  0
   -5.9209   25.9246   67.1544 O   0  0  0  0  0
   -0.4952   22.3597   69.4756 O   0  0  0  0  0
  -12.8682   25.5949   71.8572 F   0  0  0  0  0
  1  2  1  0  0  0
  3  2  1  0  0  0
  3  4  1  0  0  0
  3  6  1  0  0  0
  3 24  1  0  0  0
  4 25  1  0  0  0
  5 25  1  0  0  0
  7 21  1  0  0  0
  7 10  1  0  0  0
  8  9  1  0  0  0
  8 27  1  0  0  0
  9 22  1  0  0  0
 10 23  1  0  0  0
 11 23  1  0  0  0
 11 12  1  0  0  0
 13 14  1  0  0  0
 15 16  1  0  0  0
 15 30  1  0  0  0
 17 12  1  0  0  0
 19 18  1  0  0  0
 22  6  1  0  0  0
 24 18  1  0  0  0
  2 20  2  0  0  0
  6 21  2  0  0  0
  7  8  2  0  0  0
  9 26  2  0  0  0
 10 28  2  0  0  0
 12 13  2  0  0  0
 14 15  2  0  0  0
 16 17  2  0  0  0
 18 29  2  0  0  0
M  END
> <rmsd>
0.438703299

$$$$
PubChem-22260494


 34 37  0  0  0  0  0  0  0  0999 V2000
  -10.6208   29.8630   73.4846 C   0  0  0  0  0
   -9.6423   29.0947   72.6181 C   0  0  0  0  0
   -8.3792   28.8049   73.4231 C   0  0  0  0  0
   -7.4008   27.9813   72.5915 C   0  0  0  0  0
   -8.0468   26.6572   72.1612 C   0  0  0  0  0
   -9.2984   26.9757   71.3319 C   0  0  0  0  0
  -10.2880   27.7881   72.1649 C   0  0  0  0  0
   -5.9740   25.5030   72.2502 C   0  0  0  0  0
   -5.5026   24.1211   71.8637 C   0  0  0  0  0
   -6.7153   23.4544   71.2599 C   0  0  0  0  0
   -7.7354   24.5597   71.0803 C   0  0  0  0  0
   -7.2546   22.4350   72.1682 C   0  0  0  0  0
   -5.4248   21.8375   69.7484 C   0  0  0  0  0
   -5.1908   21.3356   68.3607 C   0  0  0  0  0
   -5.5422   19.8492   68.2792 C   0  0  0  0  0
   -5.8932   19.3724   66.8655 C   0  0  0  0  0
   -7.0408   20.1863   66.2878 C   0  0  0  0  0
   -6.3263   17.9225   66.9466 C   0  0  0  0  0
   -4.6942   19.4647   65.9385 C   0  0  0  0  0
   -3.2590   22.8378   67.6980 C   0  0  0  0  0
   -3.5033   25.2048   67.4953 C   0  0  0  0  0
   -1.4236   24.2206   67.0954 C   0  0  0  0  0
   -1.9240   22.9905   67.3510 C   0  0  0  0  0
    0.1061   22.8167   66.8664 C   0  0  0  0  0
   -7.1018   25.8417   71.3890 N   0  0  0  0  0
   -7.6786   21.6309   72.8823 N   0  0  0  0  0
   -6.3920   22.8710   69.9613 N   0  0  0  0  0
   -3.8025   21.5448   67.9767 N   0  0  0  0  0
   -4.0306   23.9664   67.7600 N   0  0  0  0  0
   -2.1839   25.3401   67.1599 N   0  0  0  0  0
   -0.9696   22.0594   67.2141 N   0  0  0  0  0
   -0.1231   24.1540   66.7812 N   0  0  0  0  0
   -4.7703   21.3597   70.7141 O   0  0  0  0  0
    1.2358   22.3148   66.6332 O   0  0  0  0  0
  1  2  1  0  0  0
  2  3  1  0  0  0
  3  4  1  0  0  0
  4  5  1  0  0  0
  5  6  1  0  0  0
  5 25  1  0  0  0
  6  7  1  0  0  0
  7  2  1  0  0  0
  8 25  1  0  0  0
  8  9  1  0  0  0
  9 10  1  0  0  0
 10 11  1  0  0  0
 10 12  1  0  0  0
 10 27  1  0  0  0
 11 25  1  0  0  0
 14 13  1  0  0  0
 14 15  1  0  0  0
 14 28  1  0  0  0
 15 16  1  0  0  0
 16 17  1  0  0  0
 16 18  1  0  0  0
 16 19  1  0  0  0
 21 29  1  0  0  0
 22 30  1  0  0  0
 23 31  1  0  0  0
 23 20  1  0  0  0
 24 32  1  0  0  0
 27 13  1  0  0  0
 28 20  1  0  0  0
 31 24  1  0  0  0
 32 22  1  0  0  0
 13 33  2  0  0  0
 20 29  2  0  0  0
 21 30  2  0  0  0
 22 23  2  0  0  0
 24 34  2  0  0  0
 12 26  3  0  0  0
M  END
> <rmsd>
0.461290538

$$$$
PubChem-22260494


 34 37  0  0  0  0  0  0  0  0999 V2000
  -11.4027   29.1617   72.0594 C   0  0  0  0  0
  -10.7489   27.9155   72.6174 C   0  0  0  0  0
  -11.0335   26.7337   71.6952 C   0  0  0  0  0
  -10.3471   25.4782   72.2248 C   0  0  0  0  0
   -8.8299   25.6988   72.3152 C   0  0  0  0  0
   -8.5670   26.8774   73.2641 C   0  0  0  0  0
   -9.2447   28.1400   72.7396 C   0  0  0  0  0
   -6.7111   24.7147   72.7739 C   0  0  0  0  0
   -6.0467   23.3951   72.4652 C   0  0  0  0  0
   -7.0832   22.6144   71.6927 C   0  0  0  0  0
   -8.3636   23.4162   71.8130 C   0  0  0  0  0
   -7.2748   21.2853   72.2867 C   0  0  0  0  0
   -5.5264   21.8668   69.7985 C   0  0  0  0  0
   -5.2856   21.8045   68.3232 C   0  0  0  0  0
   -6.0086   20.6531   67.6039 C   0  0  0  0  0
   -5.7222   19.2166   68.0733 C   0  0  0  0  0
   -6.3812   18.9412   69.4115 C   0  0  0  0  0
   -6.3206   18.2677   67.0572 C   0  0  0  0  0
   -4.2352   18.9260   68.1684 C   0  0  0  0  0
   -3.2079   23.0433   67.6056 C   0  0  0  0  0
   -3.2515   25.3827   67.1332 C   0  0  0  0  0
   -1.2469   24.2024   66.9348 C   0  0  0  0  0
   -1.8533   23.0524   67.3055 C   0  0  0  0  0
    0.1724   22.6690   66.9397 C   0  0  0  0  0
   -8.1524   24.4849   72.7893 N   0  0  0  0  0
   -7.4253   20.2372   72.7540 N   0  0  0  0  0
   -6.7127   22.5055   70.2840 N   0  0  0  0  0
   -3.8655   21.8394   68.0024 N   0  0  0  0  0
   -3.8864   24.2271   67.5115 N   0  0  0  0  0
   -1.9157   25.3768   66.8401 N   0  0  0  0  0
   -0.9726   22.0417   67.3208 N   0  0  0  0  0
    0.0546   24.0008   66.6905 N   0  0  0  0  0
   -4.7078   21.3385   70.6000 O   0  0  0  0  0
    1.2669   22.0585   66.8253 O   0  0  0  0  0
  1  2  1  0  0  0
  2  3  1  0  0  0
  3  4  1  0  0  0
  4  5  1  0  0  0
  5  6  1  0  0  0
  5 25  1  0  0  0
  6  7  1  0  0  0
  7  2  1  0  0  0
  8 25  1  0  0  0
  8  9  1  0  0  0
  9 10  1  0  0  0
 10 11  1  0  0  0
 10 12  1  0  0  0
 10 27  1  0  0  0
 11 25  1  0  0  0
 14 13  1  0  0  0
 14 15  1  0  0  0
 14 28  1  0  0  0
 15 16  1  0  0  0
 16 17  1  0  0  0
 16 18  1  0  0  0
 16 19  1  0  0  0
 21 29  1  0  0  0
 22 30  1  0  0  0
 23 31  1  0  0  0
 23 20  1  0  0  0
 24 32  1  0  0  0
 27 13  1  0  0  0
 28 20  1  0  0  0
 31 24  1  0  0  0
 32 22  1  0  0  0
 13 33  2  0  0  0
 20 29  2  0  0  0
 21 30  2  0  0  0
 22 23  2  0  0  0
 24 34  2  0  0  0
 12 26  3  0  0  0
M  END
> <rmsd>
0.381457508

$$$$
PubChem-8552714


 31 33  0  0  0  0  0  0  0  0999 V2000
   -9.8218   26.3068   67.1278 C   0  0  0  0  0
   -9.3841   25.2405   68.1090 C   0  0  0  0  0
   -8.9813   23.9842   67.3461 C   0  0  0  0  0
   -8.5330   22.8937   68.3189 C   0  0  0  0  0
   -7.3941   23.3700   69.2312 C   0  0  0  0  0
   -7.7484   24.6927   69.9234 C   0  0  0  0  0
   -8.2030   25.7548   68.9232 C   0  0  0  0  0
   -6.0823   23.4589   68.4942 C   0  0  0  0  0
   -5.7884   21.9196   70.0821 C   0  0  0  0  0
   -3.0793   22.8993   67.6202 C   0  0  0  0  0
   -2.0179   22.2388   66.7855 C   0  0  0  0  0
   -0.9852   21.0667   68.5990 C   0  0  0  0  0
   -0.2205   23.2323   68.0565 C   0  0  0  0  0
    0.7014   23.8837   67.0829 C   0  0  0  0  0
    0.9235   25.0048   64.7805 C   0  0  0  0  0
    2.3042   25.2269   64.8926 C   0  0  0  0  0
    3.0107   25.8505   63.8639 C   0  0  0  0  0
    2.3438   26.2593   62.7093 C   0  0  0  0  0
    0.9693   26.0475   62.5768 C   0  0  0  0  0
    0.2511   25.4179   63.6133 C   0  0  0  0  0
   -1.2217   25.1859   63.4805 C   0  0  0  0  0
    0.2974   26.5010   61.3244 C   0  0  0  0  0
   -5.8901   24.1544   67.4610 O   0  0  0  0  0
   -5.2751   20.9969   70.7677 O   0  0  0  0  0
   -3.1468   24.1563   67.6600 O   0  0  0  0  0
    1.9174   24.0160   67.3820 O   0  0  0  0  0
   -5.0918   22.6115   69.0655 N   0  0  0  0  0
   -7.1350   22.3481   70.2444 N   0  0  0  0  0
   -3.9648   22.0958   68.4038 N   0  0  0  0  0
   -0.7556   21.9935   67.5003 N   0  0  0  0  0
    0.1858   24.3623   65.8332 N   0  0  0  0  0
  2  1  1  0  0  0
  2  3  1  0  0  0
  3  4  1  0  0  0
  5  4  1  0  0  0
  5  6  1  0  0  0
  5  8  1  0  0  0
  5 28  1  0  0  0
  6  7  1  0  0  0
  7  2  1  0  0  0
  8 27  1  0  0  0
  9 28  1  0  0  0
 11 10  1  0  0  0
 13 14  1  0  0  0
 14 31  1  0  0  0
 16 17  1  0  0  0
 18 19  1  0  0  0
 20 15  1  0  0  0
 21 20  1  0  0  0
 22 19  1  0  0  0
 27  9  1  0  0  0
 27 29  1  0  0  0
 29 10  1  0  0  0
 30 11  1  0  0  0
 30 12  1  0  0  0
 30 13  1  0  0  0
 31 15  1  0  0  0
  8 23  2  0  0  0
  9 24  2  0  0  0
 10 25  2  0  0  0
 14 26  2  0  0  0
 15 16  2  0  0  0
 17 18  2  0  0  0
 19 20  2  0  0  0
M  CHG  1  30   1
M  END
> <rmsd>
0.454827279

$$$$
PubChem-116336558


 18 18  0  0  0  0  0  0  0  0999 V2000
    0.5508   23.3744   71.7554 C   0  0  0  0  0
    0.0146   23.9677   70.4701 C   0  0  0  0  0
   -1.2299   23.2114   70.0457 C   0  0  0  0  0
   -1.7860   23.7839   68.7484 C   0  0  0  0  0
   -0.9413   23.4134   67.5678 C   0  0  0  0  0
   -3.2066   23.3650   68.5500 C   0  0  0  0  0
   -4.9208   21.5095   68.3437 C   0  0  0  0  0
   -4.9177   20.0418   67.9642 C   0  0  0  0  0
   -5.6755   21.7072   69.6188 C   0  0  0  0  0
   -6.2337   21.6008   71.6672 C   0  0  0  0  0
   -7.1447   22.3905   70.9935 C   0  0  0  0  0
   -0.4424   24.3512   66.8282 N   0  0  0  0  0
   -0.6911   22.0417   67.2618 N   0  0  0  0  0
   -3.5495   21.9765   68.4899 N   0  0  0  0  0
   -5.3037   21.1698   70.7956 N   0  0  0  0  0
   -6.7885   22.4570   69.6976 N   0  0  0  0  0
    0.3387   24.0594   65.7337 O   0  0  0  0  0
   -4.0980   24.2477   68.4333 O   0  0  0  0  0
  1  2  1  0  0  0
  2  3  1  0  0  0
  3  4  1  0  0  0
  4  5  1  0  0  0
  4  6  1  0  0  0
  5 13  1  0  0  0
  6 14  1  0  0  0
  7 14  1  0  0  0
  7  8  1  0  0  0
  7  9  1  0  0  0
 10 15  1  0  0  0
 11 16  1  0  0  0
 12 17  1  0  0  0
 16  9  1  0  0  0
  5 12  2  0  0  0
  6 18  2  0  0  0
  9 15  2  0  0  0
 10 11  2  0  0  0
M  END
> <rmsd>
0.487822831

$$$$
PubChem-11949438 PubChem-11949439 PubChem-164180186 ZINC000036519955


 11 10  0  0  0  0  0  0  0  0999 V2000
   -1.4710   23.8265   66.2592 C   0  0  0  0  0
   -1.7271   23.2562   67.6444 C   0  0  0  0  0
   -3.1957   23.0337   67.8445 C   0  0  0  0  0
   -5.1301   21.4427   68.2457 C   0  0  0  0  0
   -5.4814   21.7486   69.6613 C   0  0  0  0  0
   -3.9702   24.0280   67.8726 O   0  0  0  0  0
   -5.1685   20.9435   70.5764 O   0  0  0  0  0
   -3.7188   21.7105   68.0060 N   0  0  0  0  0
   -6.1492   22.9629   69.9824 N   0  0  0  0  0
   -0.9845   22.0157   67.8112 N   0  0  0  0  0
   -0.0991   24.2931   66.1602 N   0  0  0  0  0
  1 11  1  0  0  0
  2  1  1  0  0  0
  2  3  1  0  0  0
  2 10  1  0  0  0
  3  8  1  0  0  0
  4  8  1  0  0  0
  4  5  1  0  0  0
  5  9  1  0  0  0
  3  6  2  0  0  0
  5  7  2  0  0  0
M  END
> <rmsd>
0.360959083

$$$$
PubChem-132080887


 20 20  0  0  0  0  0  0  0  0999 V2000
   -1.7591   23.3377   64.8364 C   0  0  0  0  0
   -1.3192   23.9856   66.1411 C   0  0  0  0  0
   -1.6535   23.1217   67.3598 C   0  0  0  0  0
   -3.1635   23.0021   67.5603 C   0  0  0  0  0
   -4.8026   21.5897   68.4799 C   0  0  0  0  0
   -4.7503   20.1433   67.9947 C   0  0  0  0  0
   -4.2647   20.0543   66.5853 C   0  0  0  0  0
   -3.0716   19.3795   66.3064 C   0  0  0  0  0
   -2.6066   19.2919   64.9907 C   0  0  0  0  0
   -3.3367   19.8750   63.9506 C   0  0  0  0  0
   -4.5338   20.5431   64.2253 C   0  0  0  0  0
   -4.9992   20.6309   65.5406 C   0  0  0  0  0
   -5.5716   21.6770   69.7556 C   0  0  0  0  0
   -7.5591   22.5848   71.0085 C   0  0  0  0  0
   -3.4573   22.1144   68.6776 N   0  0  0  0  0
   -6.7665   22.4565   69.7975 N   0  0  0  0  0
   -1.0435   21.8046   67.2362 N   0  0  0  0  0
   -5.1657   21.0718   70.7856 O   0  0  0  0  0
   -3.7077   24.2637   67.8133 O   0  0  0  0  0
    0.0513   24.2420   66.0987 O   0  0  0  0  0
  2  1  1  0  0  0
  2  3  1  0  0  0
  2 20  1  0  0  0
  3  4  1  0  0  0
  3 17  1  0  0  0
  4 15  1  0  0  0
  4 19  1  0  0  0
  5 15  1  0  0  0
  5  6  1  0  0  0
  5 13  1  0  0  0
  6  7  1  0  0  0
  8  9  1  0  0  0
 10 11  1  0  0  0
 12  7  1  0  0  0
 13 16  1  0  0  0
 14 16  1  0  0  0
  7  8  2  0  0  0
  9 10  2  0  0  0
 11 12  2  0  0  0
 13 18  2  0  0  0
M  END
> <rmsd>
0.322174639

$$$$
PubChem-145799454


 17 18  0  0  0  0  0  0  0  0999 V2000
   -0.5628   26.0288   64.6779 C   0  0  0  0  0
   -1.8685   26.0090   65.1630 C   0  0  0  0  0
   -1.3835   24.0819   66.4552 C   0  0  0  0  0
    0.3170   25.0391   65.1102 C   0  0  0  0  0
   -3.0770   23.0264   68.0286 C   0  0  0  0  0
   -5.1389   24.0652   68.5672 C   0  0  0  0  0
   -5.5113   22.9595   69.3271 C   0  0  0  0  0
   -4.6220   21.8855   69.4204 C   0  0  0  0  0
   -2.2538   25.0419   66.0356 N   0  0  0  0  0
   -0.1061   24.0886   65.9837 N   0  0  0  0  0
   -1.7969   23.0497   67.3702 N   0  0  0  0  0
   -3.9360   24.0798   67.9371 N   0  0  0  0  0
   -3.4286   21.9420   68.7738 N   0  0  0  0  0
   -6.7714   22.9369   69.9909 N   0  0  0  0  0
    1.5031   25.0251   64.6913 O   0  0  0  0  0
   -4.9171   20.8664   70.0992 O   0  0  0  0  0
   -0.9296   22.0404   67.6265 O   0  0  0  0  0
  2  9  1  0  0  0
  3 10  1  0  0  0
  3 11  1  0  0  0
  4  1  1  0  0  0
  6 12  1  0  0  0
  7  8  1  0  0  0
  7 14  1  0  0  0
  8 13  1  0  0  0
 10  4  1  0  0  0
 11  5  1  0  0  0
 11 17  1  0  0  0
 13  5  1  0  0  0
  1  2  2  0  0  0
  3  9  2  0  0  0
  4 15  2  0  0  0
  5 12  2  0  0  0
  6  7  2  0  0  0
  8 16  2  0  0  0
M  END
> <rmsd>
0.426813006

$$$$
