Molport-047-045-446 643567304 MCULE-1140154980 PubChem-133077105


 37 39  0  0  0  0  0  0  0  0999 V2000
    6.1566   23.0464   71.5155 C   0  0  0  0  0
    5.4265   21.9662   70.7387 C   0  0  0  0  0
    4.7898   20.9740   71.6542 C   0  0  0  0  0
    4.5012   18.5658   72.3486 C   0  0  0  0  0
    4.8014   17.1899   71.7825 C   0  0  0  0  0
    3.9472   16.9227   70.5567 C   0  0  0  0  0
    1.6559   16.2591   70.0040 C   0  0  0  0  0
    1.2110   14.9414   69.8459 C   0  0  0  0  0
    0.2678   14.6247   68.8671 C   0  0  0  0  0
   -0.2404   15.6257   68.0390 C   0  0  0  0  0
    0.1795   16.9471   68.2024 C   0  0  0  0  0
    1.1159   17.2850   69.1901 C   0  0  0  0  0
    1.4557   18.7101   69.3810 C   0  0  0  0  0
    1.5075   21.0614   68.4837 C   0  0  0  0  0
    2.2534   21.6026   67.2728 C   0  0  0  0  0
    3.1816   22.7377   67.6836 C   0  0  0  0  0
    4.3199   22.2124   68.4915 C   0  0  0  0  0
    0.2266   21.7969   68.6980 C   0  0  0  0  0
   -2.0373   22.5130   67.8132 C   0  0  0  0  0
   -1.7934   24.0002   67.6452 C   0  0  0  0  0
   -3.4431   25.4850   66.5570 C   0  0  0  0  0
   -4.7535   25.9762   66.5354 C   0  0  0  0  0
   -5.1896   26.7785   65.4775 C   0  0  0  0  0
   -4.3128   27.1006   64.4374 C   0  0  0  0  0
   -3.0003   26.6181   64.4535 C   0  0  0  0  0
   -2.5656   25.8113   65.5087 C   0  0  0  0  0
    3.9835   21.3558   72.5461 O   0  0  0  0  0
    2.6449   16.5145   70.9538 O   0  0  0  0  0
    1.9017   19.1173   70.4884 O   0  0  0  0  0
    5.1657   21.4428   67.9610 O   0  0  0  0  0
    0.0438   22.4192   69.7784 O   0  0  0  0  0
   -3.0397   24.6816   67.6270 O   0  0  0  0  0
    5.0751   19.5867   71.4846 N   0  0  0  0  0
    1.2517   19.6398   68.3139 N   0  0  0  0  0
    4.4226   22.5632   69.8723 N   0  0  0  0  0
   -0.7859   21.7815   67.6875 N   0  0  0  0  0
   -4.7335   27.8821   63.4130 F   0  0  0  0  0
  2  1  1  0  0  0
  2  3  1  0  0  0
  2 35  1  0  0  0
  3 33  1  0  0  0
  4 33  1  0  0  0
  4  5  1  0  0  0
  5  6  1  0  0  0
  6 28  1  0  0  0
  7 28  1  0  0  0
  8  9  1  0  0  0
 10 11  1  0  0  0
 12 13  1  0  0  0
 12  7  1  0  0  0
 13 34  1  0  0  0
 14 34  1  0  0  0
 14 15  1  0  0  0
 14 18  1  0  0  0
 15 16  1  0  0  0
 16 17  1  0  0  0
 17 35  1  0  0  0
 18 36  1  0  0  0
 19 36  1  0  0  0
 19 20  1  0  0  0
 20 32  1  0  0  0
 21 32  1  0  0  0
 22 23  1  0  0  0
 24 25  1  0  0  0
 24 37  1  0  0  0
 26 21  1  0  0  0
  3 27  2  0  0  0
  7  8  2  0  0  0
  9 10  2  0  0  0
 11 12  2  0  0  0
 13 29  2  0  0  0
 17 30  2  0  0  0
 18 31  2  0  0  0
 21 22  2  0  0  0
 23 24  2  0  0  0
 25 26  2  0  0  0
M  END
> <rmsd>
0.641879141

$$$$
MolPort-038-431-908 CSSS00160717665


 30 33  0  0  0  0  0  0  0  0999 V2000
   -4.6194   24.4974   67.4803 C   0  0  0  0  0
   -3.6070   23.2901   69.4002 C   0  0  0  0  0
   -2.5942   22.4369   69.8996 C   0  0  0  0  0
   -2.5849   22.1102   71.2648 C   0  0  0  0  0
   -3.5616   22.6098   72.1275 C   0  0  0  0  0
   -4.5644   23.4440   71.6349 C   0  0  0  0  0
   -4.5869   23.7820   70.2799 C   0  0  0  0  0
   -1.5422   21.8620   69.0306 C   0  0  0  0  0
    0.1440   20.8223   68.3630 C   0  0  0  0  0
    1.9998   19.4721   69.4469 C   0  0  0  0  0
    3.2753   18.7098   69.2585 C   0  0  0  0  0
    4.5354   19.5236   69.5899 C   0  0  0  0  0
    5.5112   20.7974   71.5474 C   0  0  0  0  0
    6.8597   20.8699   70.9390 C   0  0  0  0  0
    7.9599   20.8495   71.8120 C   0  0  0  0  0
    9.2637   20.9592   71.3303 C   0  0  0  0  0
    9.4876   21.1095   69.9636 C   0  0  0  0  0
    8.4076   21.1471   69.0814 C   0  0  0  0  0
    7.0925   21.0124   69.5430 C   0  0  0  0  0
    4.8988   20.5366   68.5437 C   0  0  0  0  0
   -3.6285   23.6456   68.0435 O   0  0  0  0  0
    1.5208   19.6041   70.6049 O   0  0  0  0  0
    5.3291   21.2617   72.7065 O   0  0  0  0  0
    4.0204   20.8161   67.5018 O   0  0  0  0  0
   -0.5197   21.1166   69.4983 N   0  0  0  0  0
    1.3411   20.0404   68.3101 N   0  0  0  0  0
    4.4141   20.1698   70.8858 N   0  0  0  0  0
    6.0462   21.1447   68.5651 N   0  0  0  0  0
   -0.4311   21.3472   67.2697 N   0  0  0  0  0
   -1.4976   22.0039   67.6908 N   0  0  0  0  0
  1 21  1  0  0  0
  2 21  1  0  0  0
  3  4  1  0  0  0
  3  8  1  0  0  0
  5  6  1  0  0  0
  7  2  1  0  0  0
  9 25  1  0  0  0
  9 26  1  0  0  0
 11 10  1  0  0  0
 11 12  1  0  0  0
 12 27  1  0  0  0
 12 20  1  0  0  0
 13 14  1  0  0  0
 15 16  1  0  0  0
 17 18  1  0  0  0
 19 28  1  0  0  0
 19 14  1  0  0  0
 20 24  1  0  0  0
 26 10  1  0  0  0
 27 13  1  0  0  0
 30 29  1  0  0  0
 30  8  1  0  0  0
  2  3  2  0  0  0
  4  5  2  0  0  0
  6  7  2  0  0  0
  8 25  2  0  0  0
  9 29  2  0  0  0
 10 22  2  0  0  0
 13 23  2  0  0  0
 14 15  2  0  0  0
 16 17  2  0  0  0
 18 19  2  0  0  0
 20 28  2  0  0  0
M  END
> <rmsd>
0.826950431

$$$$
MolPort-047-043-594 643565466 MCULE-4135770204 PubChem-133074544


 37 39  0  0  0  0  0  0  0  0999 V2000
    3.5262   17.2036   73.6743 C   0  0  0  0  0
    4.8185   17.8494   73.2063 C   0  0  0  0  0
    5.9282   16.8160   73.2885 C   0  0  0  0  0
    4.6738   18.3859   71.7773 C   0  0  0  0  0
    5.9406   19.0412   71.2959 C   0  0  0  0  0
    5.8171   20.8849   73.0315 C   0  0  0  0  0
    5.3015   22.2304   72.5362 C   0  0  0  0  0
    3.7889   23.0526   70.7427 C   0  0  0  0  0
    3.6180   24.3022   71.3607 C   0  0  0  0  0
    2.8264   25.2850   70.7617 C   0  0  0  0  0
    2.2060   25.0297   69.5376 C   0  0  0  0  0
    2.3750   23.7913   68.9153 C   0  0  0  0  0
    3.1561   22.7952   69.5150 C   0  0  0  0  0
    3.3917   21.5332   68.7958 C   0  0  0  0  0
    1.1021   20.4407   69.2888 C   0  0  0  0  0
    1.3866   20.1775   70.7745 C   0  0  0  0  0
    2.3700   19.0706   70.9733 C   0  0  0  0  0
    0.1558   21.5856   69.0692 C   0  0  0  0  0
   -1.1697   22.9990   67.4427 C   0  0  0  0  0
   -2.5570   22.7951   68.0236 C   0  0  0  0  0
   -3.3713   24.0622   67.8468 C   0  0  0  0  0
   -4.7360   23.9013   68.4948 C   0  0  0  0  0
   -6.3533   22.2193   68.6662 C   0  0  0  0  0
   -7.7463   22.0627   68.0887 C   0  0  0  0  0
   -7.8044   23.0049   66.9121 C   0  0  0  0  0
   -6.5158   23.7895   66.9775 C   0  0  0  0  0
    7.8354   20.6637   71.5674 C   0  0  0  0  0
    6.5000   18.5678   70.2705 O   0  0  0  0  0
    4.5566   22.0478   71.3392 O   0  0  0  0  0
    4.5591   21.2605   68.4113 O   0  0  0  0  0
    2.1360   17.9199   70.5157 O   0  0  0  0  0
   -0.2061   22.3146   70.0360 O   0  0  0  0  0
    6.5254   20.1737   71.9720 N   0  0  0  0  0
    2.3361   20.6039   68.5163 N   0  0  0  0  0
    3.5740   19.3373   71.6925 N   0  0  0  0  0
   -0.3215   21.8558   67.7492 N   0  0  0  0  0
   -5.5574   22.9860   67.7194 N   0  0  0  0  0
  1  2  1  0  0  0
  2  3  1  0  0  0
  4  2  1  0  0  0
  4  5  1  0  0  0
  4 35  1  0  0  0
  5 33  1  0  0  0
  6 33  1  0  0  0
  6  7  1  0  0  0
  7 29  1  0  0  0
  8 29  1  0  0  0
  9 10  1  0  0  0
 11 12  1  0  0  0
 13 14  1  0  0  0
 13  8  1  0  0  0
 14 34  1  0  0  0
 15 34  1  0  0  0
 15 16  1  0  0  0
 15 18  1  0  0  0
 16 17  1  0  0  0
 17 35  1  0  0  0
 18 36  1  0  0  0
 19 36  1  0  0  0
 19 20  1  0  0  0
 20 21  1  0  0  0
 21 22  1  0  0  0
 22 37  1  0  0  0
 23 37  1  0  0  0
 23 24  1  0  0  0
 24 25  1  0  0  0
 25 26  1  0  0  0
 26 37  1  0  0  0
 27 33  1  0  0  0
  5 28  2  0  0  0
  8  9  2  0  0  0
 10 11  2  0  0  0
 12 13  2  0  0  0
 14 30  2  0  0  0
 17 31  2  0  0  0
 18 32  2  0  0  0
M  END
> <rmsd>
0.802582085

$$$$
MolPort-039-347-142 LN01764966


 24 26  0  0  0  0  0  0  0  0999 V2000
    2.8627   24.1159   72.3730 Cl  0  0  0  0  0
    2.6379   24.0800   70.6319 C   0  0  0  0  0
    3.6604   23.6595   69.7601 C   0  0  0  0  0
    4.9901   23.2008   70.2728 C   0  0  0  0  0
    4.7581   20.9785   71.5502 C   0  0  0  0  0
    4.8036   19.4048   69.8434 C   0  0  0  0  0
    3.5571   18.7759   69.2091 C   0  0  0  0  0
    2.3031   19.5657   69.4274 C   0  0  0  0  0
    0.4629   20.9575   68.3737 C   0  0  0  0  0
   -1.2432   21.9616   69.0664 C   0  0  0  0  0
    5.0530   20.7960   69.3419 C   0  0  0  0  0
    3.4364   23.6702   68.3780 C   0  0  0  0  0
    2.2103   24.0981   67.8635 C   0  0  0  0  0
    1.1990   24.5183   68.7297 C   0  0  0  0  0
    1.4129   24.5083   70.1101 C   0  0  0  0  0
    5.0264   21.7482   70.3933 N   0  0  0  0  0
    4.6290   19.5857   71.2865 N   0  0  0  0  0
    1.6644   20.1835   68.3062 N   0  0  0  0  0
   -0.1167   21.4974   67.2917 N   0  0  0  0  0
   -1.1911   22.1293   67.7300 N   0  0  0  0  0
   -0.2070   21.2216   69.5112 N   0  0  0  0  0
    4.6512   21.4702   72.7038 O   0  0  0  0  0
    1.8121   19.6587   70.5845 O   0  0  0  0  0
    5.2767   21.0940   68.1387 O   0  0  0  0  0
  2  1  1  0  0  0
  3 12  1  0  0  0
  4  3  1  0  0  0
  4 16  1  0  0  0
  5 17  1  0  0  0
  6 17  1  0  0  0
  6  7  1  0  0  0
  6 11  1  0  0  0
  7  8  1  0  0  0
  8 18  1  0  0  0
  9 21  1  0  0  0
 11 16  1  0  0  0
 13 14  1  0  0  0
 15  2  1  0  0  0
 16  5  1  0  0  0
 18  9  1  0  0  0
 20 19  1  0  0  0
 20 10  1  0  0  0
  2  3  2  0  0  0
  5 22  2  0  0  0
  8 23  2  0  0  0
  9 19  2  0  0  0
 10 21  2  0  0  0
 11 24  2  0  0  0
 12 13  2  0  0  0
 14 15  2  0  0  0
M  END
> <rmsd>
0.618996084

$$$$
Molport-047-045-548 643567798 MCULE-3545313695 PubChem-133076100


 37 38  0  0  0  0  0  0  0  0999 V2000
    6.1714   25.1432   69.5435 C   0  0  0  0  0
    6.8701   24.4685   70.7094 C   0  0  0  0  0
    8.0938   23.7081   70.2303 C   0  0  0  0  0
    5.9225   23.5737   71.5104 C   0  0  0  0  0
    5.4363   22.3469   70.7332 C   0  0  0  0  0
    5.0267   21.2182   71.6334 C   0  0  0  0  0
    4.5035   18.7488   71.8657 C   0  0  0  0  0
    3.1126   18.8044   72.4728 C   0  0  0  0  0
    2.2705   17.6638   71.9347 C   0  0  0  0  0
    1.0938   17.0852   69.8276 C   0  0  0  0  0
    0.8903   15.7609   70.2517 C   0  0  0  0  0
    0.1898   14.8563   69.4533 C   0  0  0  0  0
   -0.3147   15.2633   68.2192 C   0  0  0  0  0
   -0.1255   16.5769   67.7876 C   0  0  0  0  0
    0.5701   17.5040   68.5804 C   0  0  0  0  0
    0.7145   18.8928   68.0829 C   0  0  0  0  0
    1.3117   21.3450   68.6098 C   0  0  0  0  0
    2.1975   21.5565   67.3894 C   0  0  0  0  0
    3.1411   22.7213   67.6352 C   0  0  0  0  0
    4.2786   22.2894   68.4960 C   0  0  0  0  0
   -0.0175   22.0167   68.4768 C   0  0  0  0  0
   -2.1556   22.3801   67.1696 C   0  0  0  0  0
   -1.9527   23.8176   66.7207 C   0  0  0  0  0
   -3.2919   24.5017   66.5154 C   0  0  0  0  0
   -3.9338   24.0310   65.2207 C   0  0  0  0  0
   -6.0535   23.7594   64.2950 C   0  0  0  0  0
   -4.9978   25.8297   64.1749 C   0  0  0  0  0
    4.9363   21.3866   72.8810 O   0  0  0  0  0
    1.8242   17.9767   70.6221 O   0  0  0  0  0
    0.4137   19.1615   66.8875 O   0  0  0  0  0
    5.1800   21.5486   68.0189 O   0  0  0  0  0
   -0.3816   22.8355   69.3621 O   0  0  0  0  0
    4.7614   19.9347   71.0611 N   0  0  0  0  0
    1.1793   19.9327   68.9535 N   0  0  0  0  0
    4.3323   22.7130   69.8584 N   0  0  0  0  0
   -0.8678   21.7314   67.3623 N   0  0  0  0  0
   -5.2191   24.6839   65.0403 N   0  0  0  0  0
  1  2  1  0  0  0
  2  3  1  0  0  0
  2  4  1  0  0  0
  5  4  1  0  0  0
  5  6  1  0  0  0
  5 35  1  0  0  0
  6 33  1  0  0  0
  7 33  1  0  0  0
  7  8  1  0  0  0
  8  9  1  0  0  0
  9 29  1  0  0  0
 10 29  1  0  0  0
 11 12  1  0  0  0
 13 14  1  0  0  0
 15 16  1  0  0  0
 15 10  1  0  0  0
 16 34  1  0  0  0
 17 34  1  0  0  0
 17 18  1  0  0  0
 17 21  1  0  0  0
 18 19  1  0  0  0
 19 20  1  0  0  0
 20 35  1  0  0  0
 21 36  1  0  0  0
 22 36  1  0  0  0
 22 23  1  0  0  0
 23 24  1  0  0  0
 24 25  1  0  0  0
 25 37  1  0  0  0
 26 37  1  0  0  0
 27 37  1  0  0  0
  6 28  2  0  0  0
 10 11  2  0  0  0
 12 13  2  0  0  0
 14 15  2  0  0  0
 16 30  2  0  0  0
 20 31  2  0  0  0
 21 32  2  0  0  0
M  END
> <rmsd>
0.718116701

$$$$
Molport-047-042-608 643564310 MCULE-3372038573 PubChem-155991127


 39 41  0  0  0  0  0  0  0  0999 V2000
   -0.5070   21.8950   67.3485 N   0  0  0  0  0
   -1.0128   24.6714   66.5973 N   0  0  0  0  0
   -0.1647   25.6187   64.7829 N   0  0  0  0  0
    4.2227   22.2753   70.0276 N   0  0  0  0  0
    4.6667   19.4621   71.3919 N   0  0  0  0  0
    1.6635   19.9988   68.0679 N   0  0  0  0  0
   -1.8452   22.4271   67.1298 C   0  0  0  0  0
   -1.8928   23.9115   67.4719 C   0  0  0  0  0
    0.0727   25.3593   66.9812 C   0  0  0  0  0
    0.6004   25.9457   65.8468 C   0  0  0  0  0
   -1.1480   24.8397   65.2725 C   0  0  0  0  0
    0.0567   21.7232   68.6522 C   0  0  0  0  0
    1.4636   21.2442   68.8038 C   0  0  0  0  0
    2.4170   22.3050   68.2682 C   0  0  0  0  0
    3.8156   22.0105   68.6862 C   0  0  0  0  0
    5.4461   21.7155   70.5843 C   0  0  0  0  0
    6.4028   22.8296   71.0279 C   0  0  0  0  0
    7.7142   22.2325   71.5187 C   0  0  0  0  0
    6.6921   23.7774   69.8715 C   0  0  0  0  0
    7.2460   25.0916   70.3887 C   0  0  0  0  0
    5.0598   20.7993   71.7028 C   0  0  0  0  0
    3.8351   18.6739   72.2916 C   0  0  0  0  0
    3.7888   17.2232   71.8300 C   0  0  0  0  0
    5.1309   16.5376   72.0302 C   0  0  0  0  0
    5.3544   16.2404   73.5010 C   0  0  0  0  0
    5.1476   15.2381   71.2538 C   0  0  0  0  0
    2.4287   19.2613   72.3325 C   0  0  0  0  0
    0.5409   18.7913   70.7994 C   0  0  0  0  0
   -0.3322   18.5414   71.8718 C   0  0  0  0  0
   -1.6233   18.0632   71.6413 C   0  0  0  0  0
   -2.0537   17.8220   70.3368 C   0  0  0  0  0
   -1.1950   18.0655   69.2634 C   0  0  0  0  0
    0.0966   18.5653   69.4802 C   0  0  0  0  0
    0.9761   18.7651   68.3121 C   0  0  0  0  0
   -0.6225   21.9813   69.6816 O   0  0  0  0  0
    4.6275   21.5257   67.8536 O   0  0  0  0  0
    4.9655   21.2320   72.8845 O   0  0  0  0  0
    1.8421   19.2481   71.0339 O   0  0  0  0  0
    1.0966   17.8322   67.4751 O   0  0  0  0  0
  1 12  1  0  0  0
  2  9  1  0  0  0
  7  1  1  0  0  0
  7  8  1  0  0  0
  8  2  1  0  0  0
 10  3  1  0  0  0
 11  2  1  0  0  0
 13 12  1  0  0  0
 13 14  1  0  0  0
 13  6  1  0  0  0
 14 15  1  0  0  0
 15  4  1  0  0  0
 16  4  1  0  0  0
 16 17  1  0  0  0
 16 21  1  0  0  0
 17 18  1  0  0  0
 17 19  1  0  0  0
 19 20  1  0  0  0
 21  5  1  0  0  0
 22  5  1  0  0  0
 22 23  1  0  0  0
 22 27  1  0  0  0
 23 24  1  0  0  0
 24 25  1  0  0  0
 24 26  1  0  0  0
 27 38  1  0  0  0
 28 38  1  0  0  0
 29 30  1  0  0  0
 31 32  1  0  0  0
 33 34  1  0  0  0
 33 28  1  0  0  0
 34  6  1  0  0  0
  9 10  2  0  0  0
 11  3  2  0  0  0
 12 35  2  0  0  0
 15 36  2  0  0  0
 21 37  2  0  0  0
 28 29  2  0  0  0
 30 31  2  0  0  0
 32 33  2  0  0  0
 34 39  2  0  0  0
M  END
> <rmsd>
0.681691766

$$$$
Molport-047-050-002 643573057 MCULE-8207928949 PubChem-133075126


 39 41  0  0  0  0  0  0  0  0999 V2000
    4.3999   24.8999   70.0462 C   0  0  0  0  0
    4.5401   23.4187   70.3284 C   0  0  0  0  0
    4.3432   23.1707   71.8092 C   0  0  0  0  0
    5.6926   21.5322   73.0795 C   0  0  0  0  0
    6.3645   22.5658   73.7560 C   0  0  0  0  0
    7.3196   22.2792   74.7317 C   0  0  0  0  0
    7.6128   20.9541   75.0483 C   0  0  0  0  0
    6.9567   19.9180   74.3825 C   0  0  0  0  0
    6.0010   20.1881   73.3895 C   0  0  0  0  0
    5.3614   19.0418   72.7078 C   0  0  0  0  0
    4.4145   17.9945   70.6162 C   0  0  0  0  0
    3.6708   18.3901   69.3462 C   0  0  0  0  0
    2.3418   19.0174   69.6329 C   0  0  0  0  0
    2.7740   20.8875   67.9750 C   0  0  0  0  0
    3.8582   21.6751   68.6386 C   0  0  0  0  0
    1.9324   21.7342   67.0143 C   0  0  0  0  0
    1.1517   22.8593   67.6923 C   0  0  0  0  0
   -0.1216   22.3615   68.2865 C   0  0  0  0  0
    5.6129   17.1767   70.2577 C   0  0  0  0  0
    6.9328   15.0526   70.5987 C   0  0  0  0  0
    7.7721   15.1506   71.8670 C   0  0  0  0  0
    8.3300   16.5529   72.0757 C   0  0  0  0  0
    9.4390   16.8777   71.0657 C   0  0  0  0  0
   11.0799   17.1445   72.8094 C   0  0  0  0  0
   11.4340   16.0521   73.7975 C   0  0  0  0  0
   11.6985   14.8351   72.9532 C   0  0  0  0  0
   10.8988   15.0745   71.6962 C   0  0  0  0  0
    4.7106   21.8336   72.1291 O   0  0  0  0  0
    5.3397   17.9182   73.2823 O   0  0  0  0  0
    1.5412   18.4558   70.4260 O   0  0  0  0  0
    5.0626   21.4146   68.3762 O   0  0  0  0  0
   -0.3104   22.4519   69.5270 O   0  0  0  0  0
    6.5361   17.6767   69.5576 O   0  0  0  0  0
    4.8229   19.1683   71.3849 N   0  0  0  0  0
    1.9399   20.2150   68.9640 N   0  0  0  0  0
    3.5269   22.6916   69.5853 N   0  0  0  0  0
   -1.1316   21.8017   67.4542 N   0  0  0  0  0
    5.7128   15.8348   70.7358 N   0  0  0  0  0
   10.7897   16.5187   71.5190 N   0  0  0  0  0
  2  1  1  0  0  0
  2  3  1  0  0  0
  2 36  1  0  0  0
  3 28  1  0  0  0
  4 28  1  0  0  0
  5  6  1  0  0  0
  7  8  1  0  0  0
  9 10  1  0  0  0
  9  4  1  0  0  0
 10 34  1  0  0  0
 11 34  1  0  0  0
 11 12  1  0  0  0
 11 19  1  0  0  0
 12 13  1  0  0  0
 13 35  1  0  0  0
 14 35  1  0  0  0
 14 15  1  0  0  0
 14 16  1  0  0  0
 15 36  1  0  0  0
 16 17  1  0  0  0
 17 18  1  0  0  0
 18 37  1  0  0  0
 19 38  1  0  0  0
 20 38  1  0  0  0
 20 21  1  0  0  0
 21 22  1  0  0  0
 22 23  1  0  0  0
 23 39  1  0  0  0
 24 39  1  0  0  0
 24 25  1  0  0  0
 25 26  1  0  0  0
 26 27  1  0  0  0
 27 39  1  0  0  0
  4  5  2  0  0  0
  6  7  2  0  0  0
  8  9  2  0  0  0
 10 29  2  0  0  0
 13 30  2  0  0  0
 15 31  2  0  0  0
 18 32  2  0  0  0
 19 33  2  0  0  0
M  END
> <rmsd>
0.441289514

$$$$
MolPort-000-788-259 MCULE-3975110777


 35 38  0  0  0  0  0  0  0  0999 V2000
   -0.2637   18.9150   67.8308 C   0  0  0  0  0
    0.5030   20.2238   67.7265 C   0  0  0  0  0
    2.5057   19.4371   69.1250 C   0  0  0  0  0
    3.9959   19.4113   69.2677 C   0  0  0  0  0
    4.5269   18.0735   69.7806 C   0  0  0  0  0
    6.0125   18.0113   69.6392 C   0  0  0  0  0
    6.7359   17.9969   68.4506 C   0  0  0  0  0
    8.1657   17.9670   70.0556 C   0  0  0  0  0
    9.3403   17.9546   70.8048 C   0  0  0  0  0
    9.2224   17.9711   72.2070 C   0  0  0  0  0
    7.9501   18.0022   72.8199 C   0  0  0  0  0
    6.7805   18.0140   72.0381 C   0  0  0  0  0
    6.9355   17.9920   70.6528 C   0  0  0  0  0
    4.2735   20.6594   71.3980 C   0  0  0  0  0
    5.4766   22.6930   71.4881 C   0  0  0  0  0
    5.9750   23.7651   72.2335 C   0  0  0  0  0
    6.7231   24.7651   71.6049 C   0  0  0  0  0
    6.9739   24.6943   70.2314 C   0  0  0  0  0
    6.4769   23.6244   69.4822 C   0  0  0  0  0
    5.7262   22.6173   70.1068 C   0  0  0  0  0
    5.2155   21.5235   69.3951 C   0  0  0  0  0
   -0.0807   21.2797   68.6195 C   0  0  0  0  0
   -2.0030   22.8577   69.0920 C   0  0  0  0  0
   -1.4341   24.1488   68.6122 C   0  0  0  0  0
    1.9346   20.0248   67.9510 N   0  0  0  0  0
    8.0672   17.9673   68.7134 N   0  0  0  0  0
    4.4962   20.5560   70.0466 N   0  0  0  0  0
    4.7601   21.7177   72.0961 N   0  0  0  0  0
   -1.4071   21.7472   68.3653 N   0  0  0  0  0
    1.7661   18.9819   70.0391 O   0  0  0  0  0
    3.5631   19.6779   72.0819 O   0  0  0  0  0
    5.4270   21.4305   68.1530 O   0  0  0  0  0
    0.5897   21.7610   69.5735 O   0  0  0  0  0
   -1.6515   24.5633   67.3044 O   0  0  0  0  0
   -0.7528   24.8626   69.3917 O   0  0  0  0  0
  2  1  1  0  0  0
  2 25  1  0  0  0
  2 22  1  0  0  0
  4  3  1  0  0  0
  4  5  1  0  0  0
  4 27  1  0  0  0
  5  6  1  0  0  0
  7 26  1  0  0  0
  9 10  1  0  0  0
 11 12  1  0  0  0
 13  6  1  0  0  0
 13  8  1  0  0  0
 14 31  1  0  0  0
 15 28  1  0  0  0
 16 17  1  0  0  0
 18 19  1  0  0  0
 20 21  1  0  0  0
 20 15  1  0  0  0
 21 27  1  0  0  0
 22 29  1  0  0  0
 23 29  1  0  0  0
 23 24  1  0  0  0
 24 34  1  0  0  0
 25  3  1  0  0  0
 26  8  1  0  0  0
 27 14  1  0  0  0
  3 30  2  0  0  0
  6  7  2  0  0  0
  8  9  2  0  0  0
 10 11  2  0  0  0
 12 13  2  0  0  0
 14 28  2  0  0  0
 15 16  2  0  0  0
 17 18  2  0  0  0
 19 20  2  0  0  0
 21 32  2  0  0  0
 22 33  2  0  0  0
 24 35  2  0  0  0
M  END
> <rmsd>
0.684900939

$$$$
MolPort-045-934-651 MCULE-9995471526 PubChem-131938236 ZINC000952970007


 39 42  0  0  0  0  0  0  0  0999 V2000
    3.5198   16.8772   68.6005 C   0  0  0  0  0
    3.8985   17.6678   69.8406 C   0  0  0  0  0
    3.4489   19.1236   69.7117 C   0  0  0  0  0
    4.6051   21.1752   70.6600 C   0  0  0  0  0
    4.7578   21.7926   69.2992 C   0  0  0  0  0
    4.4201   23.2737   69.3346 C   0  0  0  0  0
    5.7628   23.9510   69.3687 C   0  0  0  0  0
    6.6590   22.9928   68.6262 C   0  0  0  0  0
    6.0917   20.9969   67.5453 C   0  0  0  0  0
    5.0795   26.3955   69.2315 C   0  0  0  0  0
    4.2998   26.3115   70.5119 C   0  0  0  0  0
    2.9757   27.0749   70.4540 C   0  0  0  0  0
    2.0919   26.5907   69.3501 C   0  0  0  0  0
    1.6681   25.2929   69.1440 C   0  0  0  0  0
    0.3799   24.2200   67.2950 C   0  0  0  0  0
   -0.6702   23.5260   68.1416 C   0  0  0  0  0
   -0.4483   21.0967   68.7394 C   0  0  0  0  0
   -0.1261   19.7184   68.2599 C   0  0  0  0  0
   -1.0077   18.6587   68.9199 C   0  0  0  0  0
   -0.8181   17.3212   68.2836 C   0  0  0  0  0
   -0.2780   16.2695   69.0327 C   0  0  0  0  0
   -0.0971   15.0129   68.4472 C   0  0  0  0  0
   -0.4599   14.8043   67.1126 C   0  0  0  0  0
   -1.0062   15.8519   66.3635 C   0  0  0  0  0
   -1.1873   17.1092   66.9484 C   0  0  0  0  0
    1.9575   19.2291   69.6784 C   0  0  0  0  0
    5.2836   17.6067   70.0049 O   0  0  0  0  0
    5.0799   21.7566   71.6723 O   0  0  0  0  0
    5.2075   27.5037   68.6466 O   0  0  0  0  0
   -0.4387   21.3654   69.9717 O   0  0  0  0  0
    1.2905   19.1058   70.7423 O   0  0  0  0  0
    3.9674   19.9083   70.8254 N   0  0  0  0  0
    6.1394   21.6465   68.8430 N   0  0  0  0  0
    5.7253   25.2393   68.6898 N   0  0  0  0  0
    0.9463   25.3519   68.0093 N   0  0  0  0  0
   -0.7025   22.1206   67.7797 N   0  0  0  0  0
    1.3007   19.4371   68.4230 N   0  0  0  0  0
    0.9440   26.5902   67.5478 N   0  0  0  0  0
    1.6367   27.3763   68.3551 N   0  0  0  0  0
  2  1  1  0  0  0
  2 27  1  0  0  0
  2  3  1  0  0  0
  3 32  1  0  0  0
  3 26  1  0  0  0
  5  4  1  0  0  0
  5  6  1  0  0  0
  5 33  1  0  0  0
  6  7  1  0  0  0
  7  8  1  0  0  0
  7 34  1  0  0  0
  8 33  1  0  0  0
  9 33  1  0  0  0
 11 10  1  0  0  0
 11 12  1  0  0  0
 12 13  1  0  0  0
 13 39  1  0  0  0
 14 35  1  0  0  0
 15 35  1  0  0  0
 15 16  1  0  0  0
 16 36  1  0  0  0
 18 17  1  0  0  0
 18 19  1  0  0  0
 18 37  1  0  0  0
 19 20  1  0  0  0
 21 22  1  0  0  0
 23 24  1  0  0  0
 25 20  1  0  0  0
 32  4  1  0  0  0
 34 10  1  0  0  0
 35 38  1  0  0  0
 36 17  1  0  0  0
 37 26  1  0  0  0
  4 28  2  0  0  0
 10 29  2  0  0  0
 13 14  2  0  0  0
 17 30  2  0  0  0
 20 21  2  0  0  0
 22 23  2  0  0  0
 24 25  2  0  0  0
 26 31  2  0  0  0
 38 39  2  0  0  0
M  END
> <rmsd>
0.73138696

$$$$
Molport-047-043-073 643565064 MCULE-3146826812 PubChem-155991268


 32 34  0  0  0  0  0  0  0  0999 V2000
   -1.3403   22.0705   67.2647 N   0  0  0  0  0
    4.4546   22.5027   69.7269 N   0  0  0  0  0
    4.9303   19.8414   71.0498 N   0  0  0  0  0
    1.1675   20.0598   68.7066 N   0  0  0  0  0
   -2.6611   22.6230   67.5268 C   0  0  0  0  0
   -3.5264   21.5970   68.2350 C   0  0  0  0  0
   -4.0055   22.1775   69.5507 C   0  0  0  0  0
   -4.9348   22.1422   68.3577 C   0  0  0  0  0
   -0.3616   21.8881   68.2901 C   0  0  0  0  0
    0.9575   21.2819   67.9388 C   0  0  0  0  0
    2.0781   22.2705   68.2080 C   0  0  0  0  0
    3.3588   21.7927   67.5410 C   0  0  0  0  0
    4.5159   21.7915   68.4864 C   0  0  0  0  0
    5.4402   22.3034   70.7823 C   0  0  0  0  0
    5.6392   23.5987   71.5823 C   0  0  0  0  0
    6.8104   23.4547   72.5376 C   0  0  0  0  0
    5.9261   24.7712   70.6585 C   0  0  0  0  0
    5.0019   21.1433   71.6361 C   0  0  0  0  0
    4.4470   18.6736   71.7711 C   0  0  0  0  0
    2.9437   18.7575   71.9859 C   0  0  0  0  0
    1.4606   17.5865   70.3840 C   0  0  0  0  0
    1.4695   16.4240   71.1757 C   0  0  0  0  0
    0.7124   15.3084   70.8188 C   0  0  0  0  0
   -0.0655   15.3379   69.6633 C   0  0  0  0  0
   -0.0913   16.4861   68.8713 C   0  0  0  0  0
    0.6587   17.6233   69.2161 C   0  0  0  0  0
    0.5491   18.8204   68.3462 C   0  0  0  0  0
   -0.6066   22.2316   69.4792 O   0  0  0  0  0
    5.5534   21.1483   68.1767 O   0  0  0  0  0
    4.6724   21.3127   72.8428 O   0  0  0  0  0
    2.2590   18.6811   70.7399 O   0  0  0  0  0
   -0.1153   18.7495   67.2743 O   0  0  0  0  0
  1  9  1  0  0  0
  5  1  1  0  0  0
  5  6  1  0  0  0
  6  7  1  0  0  0
  7  8  1  0  0  0
  8  6  1  0  0  0
 10  9  1  0  0  0
 10 11  1  0  0  0
 10  4  1  0  0  0
 11 12  1  0  0  0
 12 13  1  0  0  0
 13  2  1  0  0  0
 14  2  1  0  0  0
 14 15  1  0  0  0
 14 18  1  0  0  0
 15 16  1  0  0  0
 15 17  1  0  0  0
 18  3  1  0  0  0
 19  3  1  0  0  0
 19 20  1  0  0  0
 20 31  1  0  0  0
 21 31  1  0  0  0
 22 23  1  0  0  0
 24 25  1  0  0  0
 26 27  1  0  0  0
 26 21  1  0  0  0
 27  4  1  0  0  0
  9 28  2  0  0  0
 13 29  2  0  0  0
 18 30  2  0  0  0
 21 22  2  0  0  0
 23 24  2  0  0  0
 25 26  2  0  0  0
 27 32  2  0  0  0
M  END
> <rmsd>
0.664711058

$$$$
Molport-047-040-578 643562653 MCULE-7486410361 PubChem-133067020


 29 30  0  0  0  0  0  0  0  0999 V2000
    4.1081   19.8875   73.8200 C   0  0  0  0  0
    3.7194   20.2526   72.4010 C   0  0  0  0  0
    4.8480   20.9472   71.7066 C   0  0  0  0  0
    6.5871   20.9553   69.8556 C   0  0  0  0  0
    5.9815   22.0706   69.0159 C   0  0  0  0  0
    4.8128   21.5405   66.8912 C   0  0  0  0  0
    5.9233   21.9507   66.1332 C   0  0  0  0  0
    5.8936   21.9019   64.7396 C   0  0  0  0  0
    4.7528   21.4419   64.0851 C   0  0  0  0  0
    3.6422   21.0339   64.8250 C   0  0  0  0  0
    3.6509   21.0770   66.2291 C   0  0  0  0  0
    2.4285   20.6435   66.9519 C   0  0  0  0  0
    1.0926   20.4390   69.0903 C   0  0  0  0  0
    1.3462   20.2539   70.5823 C   0  0  0  0  0
    2.1362   19.0127   70.8620 C   0  0  0  0  0
    0.0988   21.5330   68.8726 C   0  0  0  0  0
   -2.1142   22.2600   67.8816 C   0  0  0  0  0
   -1.6160   23.1301   66.7384 C   0  0  0  0  0
   -1.6195   22.3445   65.4411 C   0  0  0  0  0
   -2.5212   24.3347   66.5941 C   0  0  0  0  0
    5.1614   22.1168   72.0565 O   0  0  0  0  0
    4.8612   21.5812   68.2880 O   0  0  0  0  0
    1.4487   20.1946   66.2947 O   0  0  0  0  0
    1.7511   17.9085   70.3951 O   0  0  0  0  0
    0.3534   22.7083   69.2544 O   0  0  0  0  0
    5.5614   20.2947   70.6517 N   0  0  0  0  0
    2.3314   20.7369   68.3789 N   0  0  0  0  0
    3.3072   19.0558   71.6795 N   0  0  0  0  0
   -1.1320   21.2360   68.2112 N   0  0  0  0  0
  2  1  1  0  0  0
  2  3  1  0  0  0
  2 28  1  0  0  0
  3 26  1  0  0  0
  4 26  1  0  0  0
  4  5  1  0  0  0
  5 22  1  0  0  0
  6 22  1  0  0  0
  7  8  1  0  0  0
  9 10  1  0  0  0
 11 12  1  0  0  0
 11  6  1  0  0  0
 12 27  1  0  0  0
 13 27  1  0  0  0
 13 14  1  0  0  0
 13 16  1  0  0  0
 14 15  1  0  0  0
 15 28  1  0  0  0
 16 29  1  0  0  0
 17 29  1  0  0  0
 17 18  1  0  0  0
 18 19  1  0  0  0
 18 20  1  0  0  0
  3 21  2  0  0  0
  6  7  2  0  0  0
  8  9  2  0  0  0
 10 11  2  0  0  0
 12 23  2  0  0  0
 15 24  2  0  0  0
 16 25  2  0  0  0
M  END
> <rmsd>
0.862651527

$$$$
Molport-047-044-699 643566428 MCULE-2507226512 PubChem-133075080


 37 39  0  0  0  0  0  0  0  0999 V2000
   -0.5729   20.5108   61.3733 C   0  0  0  0  0
    1.6935   20.2049   62.3170 C   0  0  0  0  0
    2.9673   20.7406   62.5345 C   0  0  0  0  0
    3.9234   20.0174   63.2547 C   0  0  0  0  0
    3.6146   18.7455   63.7615 C   0  0  0  0  0
    2.3417   18.2098   63.5434 C   0  0  0  0  0
    1.3852   18.9328   62.8255 C   0  0  0  0  0
    5.8650   18.4524   64.7764 C   0  0  0  0  0
    5.8327   19.4637   65.9089 C   0  0  0  0  0
    5.2018   19.5405   68.3503 C   0  0  0  0  0
    4.7321   18.8012   69.5690 C   0  0  0  0  0
    3.2993   18.2929   69.3764 C   0  0  0  0  0
    2.2402   19.3299   69.5922 C   0  0  0  0  0
    1.1514   21.4880   68.7212 C   0  0  0  0  0
    0.6031   21.9233   70.0638 C   0  0  0  0  0
    2.7460   23.1361   70.7055 C   0  0  0  0  0
    3.5769   23.0781   71.9716 C   0  0  0  0  0
    4.7552   21.2824   73.2322 C   0  0  0  0  0
    4.6869   22.0017   74.4365 C   0  0  0  0  0
    5.2478   21.4859   75.6081 C   0  0  0  0  0
    5.8889   20.2463   75.5863 C   0  0  0  0  0
    5.9656   19.5214   74.3945 C   0  0  0  0  0
    5.4068   20.0247   73.2049 C   0  0  0  0  0
    5.4732   19.1960   71.9724 C   0  0  0  0  0
    0.0924   20.8598   67.8256 C   0  0  0  0  0
    0.7597   20.9517   61.5932 O   0  0  0  0  0
    4.5491   17.9920   64.4801 O   0  0  0  0  0
    5.3964   20.7868   68.3894 O   0  0  0  0  0
    1.3160   19.0940   70.4167 O   0  0  0  0  0
   -0.5825   21.6351   70.3890 O   0  0  0  0  0
    4.1677   21.7895   72.0698 O   0  0  0  0  0
    6.0698   18.0856   71.9918 O   0  0  0  0  0
   -0.7824   21.8424   67.3617 O   0  0  0  0  0
    5.3825   18.8184   67.1305 N   0  0  0  0  0
    2.2759   20.5674   68.8678 N   0  0  0  0  0
    1.4087   22.6490   70.9941 N   0  0  0  0  0
    4.8409   19.6280   70.7661 N   0  0  0  0  0
  1 26  1  0  0  0
  2 26  1  0  0  0
  3  4  1  0  0  0
  5  6  1  0  0  0
  5 27  1  0  0  0
  7  2  1  0  0  0
  8 27  1  0  0  0
  8  9  1  0  0  0
  9 34  1  0  0  0
 11 10  1  0  0  0
 11 12  1  0  0  0
 11 37  1  0  0  0
 12 13  1  0  0  0
 13 35  1  0  0  0
 14 35  1  0  0  0
 14 15  1  0  0  0
 14 25  1  0  0  0
 15 36  1  0  0  0
 16 36  1  0  0  0
 16 17  1  0  0  0
 17 31  1  0  0  0
 18 31  1  0  0  0
 19 20  1  0  0  0
 21 22  1  0  0  0
 23 24  1  0  0  0
 23 18  1  0  0  0
 24 37  1  0  0  0
 25 33  1  0  0  0
 34 10  1  0  0  0
  2  3  2  0  0  0
  4  5  2  0  0  0
  6  7  2  0  0  0
 10 28  2  0  0  0
 13 29  2  0  0  0
 15 30  2  0  0  0
 18 19  2  0  0  0
 20 21  2  0  0  0
 22 23  2  0  0  0
 24 32  2  0  0  0
M  END
> <rmsd>
0.719192624

$$$$
Molport-047-044-699 643566428 MCULE-2507226512 PubChem-133075080


 37 39  0  0  0  0  0  0  0  0999 V2000
   11.5078   13.7183   65.0370 C   0  0  0  0  0
   10.1940   15.8121   65.0841 C   0  0  0  0  0
    9.4352   16.7529   64.3805 C   0  0  0  0  0
    8.8912   17.8568   65.0405 C   0  0  0  0  0
    9.0959   18.0304   66.4172 C   0  0  0  0  0
    9.8568   17.0928   67.1190 C   0  0  0  0  0
   10.4032   15.9905   66.4604 C   0  0  0  0  0
    7.6977   20.0910   66.5287 C   0  0  0  0  0
    6.3486   19.4995   66.1436 C   0  0  0  0  0
    5.2357   19.5929   68.4195 C   0  0  0  0  0
    4.7792   18.8430   69.6313 C   0  0  0  0  0
    3.3929   18.2189   69.4713 C   0  0  0  0  0
    2.2671   19.2001   69.4941 C   0  0  0  0  0
    1.1570   21.2749   68.4749 C   0  0  0  0  0
    0.9103   21.8764   69.8336 C   0  0  0  0  0
    1.8987   22.4997   72.0546 C   0  0  0  0  0
    3.2537   22.8172   72.6527 C   0  0  0  0  0
    5.4994   21.8082   72.8701 C   0  0  0  0  0
    5.8819   22.8240   73.7672 C   0  0  0  0  0
    7.1663   22.8572   74.3083 C   0  0  0  0  0
    8.0938   21.8783   73.9531 C   0  0  0  0  0
    7.7349   20.8725   73.0563 C   0  0  0  0  0
    6.4435   20.8176   72.5034 C   0  0  0  0  0
    6.1698   19.7561   71.5036 C   0  0  0  0  0
   -0.0946   20.6854   67.8342 C   0  0  0  0  0
   10.7241   14.7156   64.3971 O   0  0  0  0  0
    8.5458   19.1085   67.1163 O   0  0  0  0  0
    5.1963   20.8537   68.3961 O   0  0  0  0  0
    1.3665   19.0705   70.3636 O   0  0  0  0  0
   -0.2621   22.0130   70.2784 O   0  0  0  0  0
    4.1933   21.7830   72.3679 O   0  0  0  0  0
    7.0998   18.9653   71.1821 O   0  0  0  0  0
   -0.9738   21.7096   67.4771 O   0  0  0  0  0
    5.7179   18.8636   67.2901 N   0  0  0  0  0
    2.2124   20.2654   68.5345 N   0  0  0  0  0
    2.0279   22.2824   70.6258 N   0  0  0  0  0
    4.9032   19.6462   70.8437 N   0  0  0  0  0
  1 26  1  0  0  0
  2 26  1  0  0  0
  3  4  1  0  0  0
  5  6  1  0  0  0
  5 27  1  0  0  0
  7  2  1  0  0  0
  8 27  1  0  0  0
  8  9  1  0  0  0
  9 34  1  0  0  0
 11 10  1  0  0  0
 11 12  1  0  0  0
 11 37  1  0  0  0
 12 13  1  0  0  0
 13 35  1  0  0  0
 14 35  1  0  0  0
 14 15  1  0  0  0
 14 25  1  0  0  0
 15 36  1  0  0  0
 16 36  1  0  0  0
 16 17  1  0  0  0
 17 31  1  0  0  0
 18 31  1  0  0  0
 19 20  1  0  0  0
 21 22  1  0  0  0
 23 24  1  0  0  0
 23 18  1  0  0  0
 24 37  1  0  0  0
 25 33  1  0  0  0
 34 10  1  0  0  0
  2  3  2  0  0  0
  4  5  2  0  0  0
  6  7  2  0  0  0
 10 28  2  0  0  0
 13 29  2  0  0  0
 15 30  2  0  0  0
 18 19  2  0  0  0
 20 21  2  0  0  0
 22 23  2  0  0  0
 24 32  2  0  0  0
M  END
> <rmsd>
0.638769388

$$$$
Molport-047-054-966 643572014 MCULE-1180530960 PubChem-133075937


 39 41  0  0  0  0  0  0  0  0999 V2000
    6.1848   19.2291   71.0492 C   0  0  0  0  0
    4.9591   20.1131   70.9383 C   0  0  0  0  0
    5.1110   21.2635   71.9169 C   0  0  0  0  0
    3.9030   23.3395   72.5390 C   0  0  0  0  0
    4.6460   23.4672   73.7255 C   0  0  0  0  0
    4.4363   24.5455   74.5852 C   0  0  0  0  0
    3.4777   25.5088   74.2723 C   0  0  0  0  0
    2.7374   25.3996   73.0948 C   0  0  0  0  0
    2.9427   24.3280   72.2120 C   0  0  0  0  0
    2.1525   24.2765   70.9611 C   0  0  0  0  0
    1.7636   23.2003   68.6820 C   0  0  0  0  0
    2.6437   22.5650   67.6029 C   0  0  0  0  0
    3.3097   21.3074   68.0663 C   0  0  0  0  0
    2.9837   18.8716   68.8683 C   0  0  0  0  0
    2.8149   18.8213   70.3629 C   0  0  0  0  0
    4.3376   18.4112   68.3423 C   0  0  0  0  0
    5.6443   16.5438   67.9454 C   0  0  0  0  0
    6.9429   17.2916   68.2283 C   0  0  0  0  0
    5.8517   15.1052   68.3686 C   0  0  0  0  0
    5.3588   16.5426   66.4470 C   0  0  0  0  0
    0.5243   22.3879   68.9326 C   0  0  0  0  0
   -1.6124   21.3885   68.0149 C   0  0  0  0  0
   -1.2277   19.9144   67.9537 C   0  0  0  0  0
   -0.9212   19.4861   66.5559 C   0  0  0  0  0
   -1.8024   18.6257   65.8905 C   0  0  0  0  0
   -1.5299   18.2159   64.5802 C   0  0  0  0  0
   -0.3723   18.6625   63.9351 C   0  0  0  0  0
    0.5159   19.5143   64.6014 C   0  0  0  0  0
    0.2437   19.9236   65.9107 C   0  0  0  0  0
    4.0927   22.2318   71.7018 O   0  0  0  0  0
    1.1470   25.0252   70.8174 O   0  0  0  0  0
    4.5582   21.2939   68.2256 O   0  0  0  0  0
    1.7773   18.2754   70.8193 O   0  0  0  0  0
    4.5553   17.0634   68.6874 O   0  0  0  0  0
    0.3350   21.8332   70.0500 O   0  0  0  0  0
    2.5381   23.3974   69.9014 N   0  0  0  0  0
    2.5238   20.1329   68.2929 N   0  0  0  0  0
    3.7791   19.3384   71.2899 N   0  0  0  0  0
   -0.4341   22.2351   67.8840 N   0  0  0  0  0
  2  1  1  0  0  0
  2  3  1  0  0  0
  2 38  1  0  0  0
  3 30  1  0  0  0
  4 30  1  0  0  0
  5  6  1  0  0  0
  7  8  1  0  0  0
  9 10  1  0  0  0
  9  4  1  0  0  0
 10 36  1  0  0  0
 11 36  1  0  0  0
 11 12  1  0  0  0
 11 21  1  0  0  0
 12 13  1  0  0  0
 13 37  1  0  0  0
 14 37  1  0  0  0
 14 15  1  0  0  0
 14 16  1  0  0  0
 15 38  1  0  0  0
 16 34  1  0  0  0
 17 34  1  0  0  0
 17 18  1  0  0  0
 17 19  1  0  0  0
 17 20  1  0  0  0
 21 39  1  0  0  0
 22 39  1  0  0  0
 22 23  1  0  0  0
 23 24  1  0  0  0
 25 26  1  0  0  0
 27 28  1  0  0  0
 29 24  1  0  0  0
  4  5  2  0  0  0
  6  7  2  0  0  0
  8  9  2  0  0  0
 10 31  2  0  0  0
 13 32  2  0  0  0
 15 33  2  0  0  0
 21 35  2  0  0  0
 24 25  2  0  0  0
 26 27  2  0  0  0
 28 29  2  0  0  0
M  END
> <rmsd>
0.761924565

$$$$
Molport-047-046-192 643568338 MCULE-4265341920 PubChem-133076720


 37 39  0  0  0  0  0  0  0  0999 V2000
   -4.8627   22.7314   62.4575 C   0  0  0  0  0
   -4.8312   22.9711   63.9239 C   0  0  0  0  0
   -5.8739   22.5781   64.7620 C   0  0  0  0  0
   -3.9578   23.6978   65.8529 C   0  0  0  0  0
   -2.9490   24.2844   66.7805 C   0  0  0  0  0
   -1.8482   23.2814   67.0834 C   0  0  0  0  0
   -2.3396   22.2299   68.0662 C   0  0  0  0  0
   -0.0894   21.5141   68.9904 C   0  0  0  0  0
    0.9497   20.4439   69.0992 C   0  0  0  0  0
    1.5311   20.3581   70.5097 C   0  0  0  0  0
    2.2241   19.0543   70.7569 C   0  0  0  0  0
    4.5521   20.0965   71.2026 C   0  0  0  0  0
    5.8602   19.6229   71.7851 C   0  0  0  0  0
    7.0446   19.6468   69.5459 C   0  0  0  0  0
    7.0639   21.0830   69.0536 C   0  0  0  0  0
    5.3527   21.6512   67.3616 C   0  0  0  0  0
    6.2971   21.7095   66.3233 C   0  0  0  0  0
    5.8802   21.8330   64.9955 C   0  0  0  0  0
    4.5175   21.8889   64.6937 C   0  0  0  0  0
    3.5712   21.8325   65.7203 C   0  0  0  0  0
    3.9836   21.7318   67.0545 C   0  0  0  0  0
    2.9794   21.6610   68.1183 C   0  0  0  0  0
    8.3307   19.2621   71.6353 C   0  0  0  0  0
    4.0059   21.3346   71.9346 C   0  0  0  0  0
    3.6203   21.0590   73.3800 C   0  0  0  0  0
   -5.4227   23.0323   66.3208 S   0  0  0  0  0
   -3.7736   23.5818   64.5229 N   0  0  0  0  0
   -1.3049   21.2316   68.2935 N   0  0  0  0  0
    3.5921   18.9915   71.1844 N   0  0  0  0  0
    7.0649   19.5936   71.0006 N   0  0  0  0  0
    1.9893   20.6269   68.0894 N   0  0  0  0  0
    0.1175   22.6604   69.4744 O   0  0  0  0  0
    1.5686   17.9846   70.6525 O   0  0  0  0  0
    5.8919   19.2349   72.9856 O   0  0  0  0  0
    5.7467   21.4640   68.6912 O   0  0  0  0  0
    3.0264   22.4805   69.0747 O   0  0  0  0  0
    4.9235   22.3845   71.8763 O   0  0  0  0  0
  1  2  1  0  0  0
  2 27  1  0  0  0
  3 26  1  0  0  0
  4 26  1  0  0  0
  5  4  1  0  0  0
  5  6  1  0  0  0
  6  7  1  0  0  0
  7 28  1  0  0  0
  9  8  1  0  0  0
  9 10  1  0  0  0
  9 31  1  0  0  0
 10 11  1  0  0  0
 11 29  1  0  0  0
 12 29  1  0  0  0
 12 13  1  0  0  0
 12 24  1  0  0  0
 13 30  1  0  0  0
 14 30  1  0  0  0
 14 15  1  0  0  0
 15 35  1  0  0  0
 16 35  1  0  0  0
 17 18  1  0  0  0
 19 20  1  0  0  0
 21 22  1  0  0  0
 21 16  1  0  0  0
 22 31  1  0  0  0
 23 30  1  0  0  0
 24 25  1  0  0  0
 24 37  1  0  0  0
 28  8  1  0  0  0
  2  3  2  0  0  0
  4 27  2  0  0  0
  8 32  2  0  0  0
 11 33  2  0  0  0
 13 34  2  0  0  0
 16 17  2  0  0  0
 18 19  2  0  0  0
 20 21  2  0  0  0
 22 36  2  0  0  0
M  END
> <rmsd>
0.821997583

$$$$
Molport-047-049-995 643573182 MCULE-3147030367 PubChem-133074766


 37 39  0  0  0  0  0  0  0  0999 V2000
    4.6384   17.2745   73.1015 C   0  0  0  0  0
    3.8525   18.3941   72.4527 C   0  0  0  0  0
    2.6490   17.8176   71.7261 C   0  0  0  0  0
    0.5567   19.1381   71.6022 C   0  0  0  0  0
   -0.0042   18.3959   72.6578 C   0  0  0  0  0
   -1.2800   18.6874   73.1402 C   0  0  0  0  0
   -2.0139   19.7301   72.5778 C   0  0  0  0  0
   -1.4751   20.4694   71.5244 C   0  0  0  0  0
   -0.1993   20.1799   71.0144 C   0  0  0  0  0
    0.2913   20.9897   69.8767 C   0  0  0  0  0
    1.5577   21.1647   67.6963 C   0  0  0  0  0
    2.9298   20.7324   67.1822 C   0  0  0  0  0
    4.0277   21.2801   68.0296 C   0  0  0  0  0
    5.1659   21.2552   70.3174 C   0  0  0  0  0
    4.9148   20.5013   71.5882 C   0  0  0  0  0
    5.2891   22.7633   70.5364 C   0  0  0  0  0
    6.6473   23.1226   71.0392 C   0  0  0  0  0
    0.4901   20.9304   66.6691 C   0  0  0  0  0
   -1.8035   21.5316   65.7820 C   0  0  0  0  0
   -1.4515   22.2359   64.4819 C   0  0  0  0  0
   -3.4878   23.2484   63.8316 C   0  0  0  0  0
   -3.4950   24.3466   62.7632 C   0  0  0  0  0
   -3.7992   23.7436   61.3915 C   0  0  0  0  0
   -3.0606   22.4223   61.1476 C   0  0  0  0  0
   -1.9777   22.1896   62.1981 C   0  0  0  0  0
    1.8604   18.8663   71.1682 O   0  0  0  0  0
   -0.1565   22.1582   69.7142 O   0  0  0  0  0
    4.9276   21.9917   67.5096 O   0  0  0  0  0
    4.8048   21.0950   72.6963 O   0  0  0  0  0
    7.6654   22.9004   70.3315 O   0  0  0  0  0
    0.6368   20.0497   65.7762 O   0  0  0  0  0
    1.2218   20.4536   68.9287 N   0  0  0  0  0
    4.0572   20.9693   69.4208 N   0  0  0  0  0
    4.6961   19.0936   71.5017 N   0  0  0  0  0
    6.7900   23.7395   72.3135 N   0  0  0  0  0
   -0.7210   21.6869   66.7407 N   0  0  0  0  0
   -2.5592   22.1356   63.5443 N   0  0  0  0  0
  2  1  1  0  0  0
  2  3  1  0  0  0
  2 34  1  0  0  0
  3 26  1  0  0  0
  4 26  1  0  0  0
  5  6  1  0  0  0
  7  8  1  0  0  0
  9 10  1  0  0  0
  9  4  1  0  0  0
 10 32  1  0  0  0
 11 32  1  0  0  0
 11 12  1  0  0  0
 11 18  1  0  0  0
 12 13  1  0  0  0
 13 33  1  0  0  0
 14 33  1  0  0  0
 14 15  1  0  0  0
 14 16  1  0  0  0
 15 34  1  0  0  0
 16 17  1  0  0  0
 17 35  1  0  0  0
 18 36  1  0  0  0
 19 36  1  0  0  0
 19 20  1  0  0  0
 20 37  1  0  0  0
 21 37  1  0  0  0
 21 22  1  0  0  0
 22 23  1  0  0  0
 23 24  1  0  0  0
 24 25  1  0  0  0
 25 37  1  0  0  0
  4  5  2  0  0  0
  6  7  2  0  0  0
  8  9  2  0  0  0
 10 27  2  0  0  0
 13 28  2  0  0  0
 15 29  2  0  0  0
 17 30  2  0  0  0
 18 31  2  0  0  0
M  END
> <rmsd>
0.714153945

$$$$
MolPort-035-704-846 LN00398903 MCULE-3646729608 ZINC000218377847


 24 26  0  0  0  0  0  0  0  0999 V2000
   10.0888   22.8644   68.8344 F   0  0  0  0  0
    9.1899   23.0175   69.8359 C   0  0  0  0  0
    9.6311   23.1784   71.1530 C   0  0  0  0  0
    8.7030   23.3332   72.1874 C   0  0  0  0  0
    7.3338   23.3282   71.9046 C   0  0  0  0  0
    6.8911   23.1731   70.5862 C   0  0  0  0  0
    5.4302   23.1413   70.2878 C   0  0  0  0  0
    4.6086   21.0549   71.5371 C   0  0  0  0  0
    4.7703   19.4042   69.9140 C   0  0  0  0  0
    3.5806   18.7379   69.2125 C   0  0  0  0  0
    2.3173   19.5389   69.2763 C   0  0  0  0  0
    0.6235   20.9309   67.9981 C   0  0  0  0  0
   -0.9253   22.1274   67.2462 C   0  0  0  0  0
    5.0621   20.7706   69.3692 C   0  0  0  0  0
    7.8207   23.0123   69.5529 C   0  0  0  0  0
    4.9247   21.7763   70.3603 N   0  0  0  0  0
    4.4851   19.6522   71.3287 N   0  0  0  0  0
    1.7980   20.1170   68.0748 N   0  0  0  0  0
   -0.1349   21.2676   69.0541 N   0  0  0  0  0
   -1.1100   22.0208   68.5773 N   0  0  0  0  0
    0.1679   21.4473   66.8436 N   0  0  0  0  0
    4.4605   21.5963   72.6641 O   0  0  0  0  0
    1.7181   19.6815   70.3758 O   0  0  0  0  0
    5.4199   21.0071   68.1849 O   0  0  0  0  0
  2  1  1  0  0  0
  3  4  1  0  0  0
  5  6  1  0  0  0
  7  6  1  0  0  0
  7 16  1  0  0  0
  8 17  1  0  0  0
  9 17  1  0  0  0
  9 10  1  0  0  0
  9 14  1  0  0  0
 10 11  1  0  0  0
 11 18  1  0  0  0
 12 21  1  0  0  0
 14 16  1  0  0  0
 15  2  1  0  0  0
 16  8  1  0  0  0
 18 12  1  0  0  0
 20 19  1  0  0  0
 20 13  1  0  0  0
  2  3  2  0  0  0
  4  5  2  0  0  0
  6 15  2  0  0  0
  8 22  2  0  0  0
 11 23  2  0  0  0
 12 19  2  0  0  0
 13 21  2  0  0  0
 14 24  2  0  0  0
M  END
> <rmsd>
0.766375363

$$$$
MolPort-035-704-075 170625568 CSSS00161094730 LN00418917 MCULE-7860323611 ZINC000170625568


 24 26  0  0  0  0  0  0  0  0999 V2000
    6.8990   23.9439   67.7210 Cl  0  0  0  0  0
    7.6490   23.5733   69.2661 C   0  0  0  0  0
    6.8825   23.2404   70.3986 C   0  0  0  0  0
    5.3895   23.1626   70.3288 C   0  0  0  0  0
    4.7435   20.9978   71.5493 C   0  0  0  0  0
    4.7902   19.4228   69.8453 C   0  0  0  0  0
    3.5548   18.7609   69.2231 C   0  0  0  0  0
    2.2884   19.5316   69.4327 C   0  0  0  0  0
    0.4667   20.9440   68.3715 C   0  0  0  0  0
   -1.2180   21.9867   69.0595 C   0  0  0  0  0
    5.0062   20.8178   69.3387 C   0  0  0  0  0
    7.5251   22.9707   71.6135 C   0  0  0  0  0
    8.9182   23.0265   71.7028 C   0  0  0  0  0
    9.6774   23.3539   70.5771 C   0  0  0  0  0
    9.0434   23.6276   69.3626 C   0  0  0  0  0
    4.9425   21.7759   70.3831 N   0  0  0  0  0
    4.6282   19.6029   71.2895 N   0  0  0  0  0
    1.6554   20.1499   68.3082 N   0  0  0  0  0
   -0.0967   21.4981   67.2881 N   0  0  0  0  0
   -1.1579   22.1538   67.7233 N   0  0  0  0  0
   -0.2003   21.2230   69.5071 N   0  0  0  0  0
    4.6819   21.4868   72.7078 O   0  0  0  0  0
    1.7863   19.6144   70.5857 O   0  0  0  0  0
    5.2429   21.1132   68.1375 O   0  0  0  0  0
  2  1  1  0  0  0
  3 12  1  0  0  0
  4  3  1  0  0  0
  4 16  1  0  0  0
  5 17  1  0  0  0
  6 17  1  0  0  0
  6  7  1  0  0  0
  6 11  1  0  0  0
  7  8  1  0  0  0
  8 18  1  0  0  0
  9 21  1  0  0  0
 11 16  1  0  0  0
 13 14  1  0  0  0
 15  2  1  0  0  0
 16  5  1  0  0  0
 18  9  1  0  0  0
 20 19  1  0  0  0
 20 10  1  0  0  0
  2  3  2  0  0  0
  5 22  2  0  0  0
  8 23  2  0  0  0
  9 19  2  0  0  0
 10 21  2  0  0  0
 11 24  2  0  0  0
 12 13  2  0  0  0
 14 15  2  0  0  0
M  END
> <rmsd>
0.608767688

$$$$
MolPort-035-704-075 170625568 CSSS00161094730 LN00418917 MCULE-7860323611 ZINC000170625568


 24 26  0  0  0  0  0  0  0  0999 V2000
    7.1533   23.7886   67.7925 Cl  0  0  0  0  0
    7.7566   23.4753   69.4127 C   0  0  0  0  0
    6.8866   23.2071   70.4861 C   0  0  0  0  0
    5.4042   23.1517   70.2874 C   0  0  0  0  0
    4.6079   21.0555   71.5385 C   0  0  0  0  0
    4.7713   19.4048   69.9154 C   0  0  0  0  0
    3.5819   18.7365   69.2153 C   0  0  0  0  0
    2.3183   19.5373   69.2779 C   0  0  0  0  0
    0.6267   20.9308   67.9984 C   0  0  0  0  0
   -0.9200   22.1291   67.2455 C   0  0  0  0  0
    5.0603   20.7716   69.3699 C   0  0  0  0  0
    7.4140   22.9814   71.7638 C   0  0  0  0  0
    8.7947   23.0173   71.9741 C   0  0  0  0  0
    9.6566   23.2805   70.9071 C   0  0  0  0  0
    9.1378   23.5100   69.6302 C   0  0  0  0  0
    4.9252   21.7766   70.3620 N   0  0  0  0  0
    4.4866   19.6525   71.3303 N   0  0  0  0  0
    1.8000   20.1151   68.0759 N   0  0  0  0  0
   -0.1309   21.2699   69.0541 N   0  0  0  0  0
   -1.1047   22.0242   68.5766 N   0  0  0  0  0
    0.1720   21.4467   66.8434 N   0  0  0  0  0
    4.4550   21.5973   72.6646 O   0  0  0  0  0
    1.7185   19.6804   70.3770 O   0  0  0  0  0
    5.4080   21.0083   68.1828 O   0  0  0  0  0
  2  1  1  0  0  0
  3 12  1  0  0  0
  4  3  1  0  0  0
  4 16  1  0  0  0
  5 17  1  0  0  0
  6 17  1  0  0  0
  6  7  1  0  0  0
  6 11  1  0  0  0
  7  8  1  0  0  0
  8 18  1  0  0  0
  9 21  1  0  0  0
 11 16  1  0  0  0
 13 14  1  0  0  0
 15  2  1  0  0  0
 16  5  1  0  0  0
 18  9  1  0  0  0
 20 19  1  0  0  0
 20 10  1  0  0  0
  2  3  2  0  0  0
  5 22  2  0  0  0
  8 23  2  0  0  0
  9 19  2  0  0  0
 10 21  2  0  0  0
 11 24  2  0  0  0
 12 13  2  0  0  0
 14 15  2  0  0  0
M  END
> <rmsd>
0.765799224

$$$$
Molport-047-044-734 643566893 MCULE-4543148573 PubChem-133074960


 37 39  0  0  0  0  0  0  0  0999 V2000
    4.3457   19.5641   74.2989 C   0  0  0  0  0
    3.3151   20.4349   73.5916 C   0  0  0  0  0
    3.6149   20.6209   72.1017 C   0  0  0  0  0
    4.9936   21.1699   71.8465 C   0  0  0  0  0
    7.3081   20.9151   70.8496 C   0  0  0  0  0
    7.3152   22.1554   69.9628 C   0  0  0  0  0
    7.0500   21.7920   68.5117 C   0  0  0  0  0
    5.1409   21.0736   67.1060 C   0  0  0  0  0
    5.9763   20.8969   65.9891 C   0  0  0  0  0
    5.4605   20.4311   64.7806 C   0  0  0  0  0
    4.1027   20.1331   64.6728 C   0  0  0  0  0
    3.2634   20.3038   65.7748 C   0  0  0  0  0
    3.7654   20.7828   66.9945 C   0  0  0  0  0
    2.8299   20.9605   68.1231 C   0  0  0  0  0
    0.5804   20.2807   69.1788 C   0  0  0  0  0
    1.0845   20.1432   70.6229 C   0  0  0  0  0
    2.1142   19.0664   70.7981 C   0  0  0  0  0
   -0.2166   21.5314   68.9716 C   0  0  0  0  0
   -2.0447   22.7191   67.6852 C   0  0  0  0  0
   -1.2557   23.7893   66.9483 C   0  0  0  0  0
   -2.1466   24.9809   66.6224 C   0  0  0  0  0
   -2.9807   24.7366   65.4045 C   0  0  0  0  0
   -3.9790   23.7515   65.4001 C   0  0  0  0  0
   -4.7717   23.5608   64.2647 C   0  0  0  0  0
   -4.5788   24.3579   63.1338 C   0  0  0  0  0
   -3.5926   25.3509   63.1381 C   0  0  0  0  0
   -2.7988   25.5429   64.2736 C   0  0  0  0  0
    5.2994   22.3009   72.3127 O   0  0  0  0  0
    5.6692   21.5045   68.3288 O   0  0  0  0  0
    3.0668   21.8117   69.0217 O   0  0  0  0  0
    1.8634   17.8879   70.4285 O   0  0  0  0  0
   -0.0150   22.5474   69.6922 O   0  0  0  0  0
    3.2047   21.6693   74.2308 O   0  0  0  0  0
    5.9503   20.4329   71.0754 N   0  0  0  0  0
    1.6370   20.1687   68.1747 N   0  0  0  0  0
    3.3833   19.3679   71.3887 N   0  0  0  0  0
   -1.2003   21.5634   67.9377 N   0  0  0  0  0
  2  1  1  0  0  0
  2  3  1  0  0  0
  2 33  1  0  0  0
  3  4  1  0  0  0
  3 36  1  0  0  0
  4 34  1  0  0  0
  5 34  1  0  0  0
  5  6  1  0  0  0
  6  7  1  0  0  0
  7 29  1  0  0  0
  8 29  1  0  0  0
  9 10  1  0  0  0
 11 12  1  0  0  0
 13 14  1  0  0  0
 13  8  1  0  0  0
 14 35  1  0  0  0
 15 35  1  0  0  0
 15 16  1  0  0  0
 15 18  1  0  0  0
 16 17  1  0  0  0
 17 36  1  0  0  0
 18 37  1  0  0  0
 19 37  1  0  0  0
 19 20  1  0  0  0
 20 21  1  0  0  0
 21 22  1  0  0  0
 23 24  1  0  0  0
 25 26  1  0  0  0
 27 22  1  0  0  0
  4 28  2  0  0  0
  8  9  2  0  0  0
 10 11  2  0  0  0
 12 13  2  0  0  0
 14 30  2  0  0  0
 17 31  2  0  0  0
 18 32  2  0  0  0
 22 23  2  0  0  0
 24 25  2  0  0  0
 26 27  2  0  0  0
M  END
> <rmsd>
0.70644325

$$$$
MolPort-035-870-907 CSSS00132906800 MCULE-4827331502


 25 28  0  0  0  0  0  0  0  0999 V2000
    6.2280   19.3634   67.7940 O   0  0  0  0  0
    4.6080   21.3958   72.6107 O   0  0  0  0  0
    1.7036   19.6044   70.7174 O   0  0  0  0  0
    5.2824   19.9537   68.6211 C   0  0  0  0  0
    3.9861   22.0114   69.0769 C   0  0  0  0  0
    3.3370   22.9881   68.3103 C   0  0  0  0  0
    2.4550   23.8969   68.8926 C   0  0  0  0  0
    2.2231   23.8541   70.2638 C   0  0  0  0  0
    2.8766   22.9048   71.0480 C   0  0  0  0  0
    3.7624   21.9728   70.4807 C   0  0  0  0  0
    4.4358   21.0411   71.4136 C   0  0  0  0  0
    4.7115   19.1264   69.7237 C   0  0  0  0  0
    3.3594   18.4571   69.4499 C   0  0  0  0  0
    2.1828   19.3631   69.5774 C   0  0  0  0  0
    0.5080   20.8485   68.3877 C   0  0  0  0  0
   -0.9917   22.1758   68.9674 C   0  0  0  0  0
   -1.9711   22.9587   69.7792 C   0  0  0  0  0
   -1.2434   23.7603   70.8428 C   0  0  0  0  0
   -1.7239   24.4427   69.5824 C   0  0  0  0  0
    4.9219   21.1769   68.3784 N   0  0  0  0  0
    4.8573   19.7301   71.0370 N   0  0  0  0  0
    1.5893   19.9120   68.3968 N   0  0  0  0  0
    0.0031   21.3655   67.2550 N   0  0  0  0  0
   -0.9519   22.2020   67.6216 N   0  0  0  0  0
   -0.0901   21.3253   69.4974 N   0  0  0  0  0
  4  1  1  0  0  0
  5 20  1  0  0  0
  6  7  1  0  0  0
  8  9  1  0  0  0
 10 11  1  0  0  0
 10  5  1  0  0  0
 11 21  1  0  0  0
 12 21  1  0  0  0
 12 13  1  0  0  0
 12  4  1  0  0  0
 13 14  1  0  0  0
 14 22  1  0  0  0
 15 25  1  0  0  0
 17 16  1  0  0  0
 17 18  1  0  0  0
 18 19  1  0  0  0
 19 17  1  0  0  0
 22 15  1  0  0  0
 24 23  1  0  0  0
 24 16  1  0  0  0
  4 20  2  0  0  0
  5  6  2  0  0  0
  7  8  2  0  0  0
  9 10  2  0  0  0
 11  2  2  0  0  0
 14  3  2  0  0  0
 15 23  2  0  0  0
 16 25  2  0  0  0
M  END
> <rmsd>
0.654951453

$$$$
Molport-047-036-258 643559843 MCULE-7729637858 PubChem-133066166


 32 34  0  0  0  0  0  0  0  0999 V2000
    5.7664   18.8685   75.3492 C   0  0  0  0  0
    5.1304   18.8451   73.9723 C   0  0  0  0  0
    4.0667   19.9321   73.8581 C   0  0  0  0  0
    2.8119   19.5348   74.6180 C   0  0  0  0  0
    3.7225   20.2458   72.4006 C   0  0  0  0  0
    4.8423   20.9558   71.7034 C   0  0  0  0  0
    6.5950   20.9728   69.8655 C   0  0  0  0  0
    5.9818   22.0782   69.0179 C   0  0  0  0  0
    4.8220   21.5246   66.8946 C   0  0  0  0  0
    5.9348   21.9282   66.1366 C   0  0  0  0  0
    5.9093   21.8683   64.7434 C   0  0  0  0  0
    4.7704   21.4034   64.0891 C   0  0  0  0  0
    3.6573   21.0019   64.8289 C   0  0  0  0  0
    3.6616   21.0564   66.2327 C   0  0  0  0  0
    2.4365   20.6300   66.9551 C   0  0  0  0  0
    1.0958   20.4371   69.0912 C   0  0  0  0  0
    1.3482   20.2478   70.5828 C   0  0  0  0  0
    2.1375   19.0058   70.8592 C   0  0  0  0  0
    0.1061   21.5353   68.8764 C   0  0  0  0  0
   -2.1207   22.2687   67.9330 C   0  0  0  0  0
   -1.7359   23.0134   66.6689 C   0  0  0  0  0
   -2.9078   22.3880   65.9410 C   0  0  0  0  0
   -3.2945   21.6470   67.2047 C   0  0  0  0  0
    5.1335   22.1338   72.0440 O   0  0  0  0  0
    4.8664   21.5763   68.2912 O   0  0  0  0  0
    1.4573   20.1795   66.2981 O   0  0  0  0  0
    1.7511   17.9025   70.3914 O   0  0  0  0  0
    0.3677   22.7101   69.2546 O   0  0  0  0  0
    5.5729   20.3046   70.6598 N   0  0  0  0  0
    2.3363   20.7318   68.3811 N   0  0  0  0  0
    3.3096   19.0473   71.6748 N   0  0  0  0  0
   -1.1304   21.2423   68.2246 N   0  0  0  0  0
  1  2  1  0  0  0
  3  2  1  0  0  0
  3  4  1  0  0  0
  3  5  1  0  0  0
  5  6  1  0  0  0
  5 31  1  0  0  0
  6 29  1  0  0  0
  7 29  1  0  0  0
  7  8  1  0  0  0
  8 25  1  0  0  0
  9 25  1  0  0  0
 10 11  1  0  0  0
 12 13  1  0  0  0
 14 15  1  0  0  0
 14  9  1  0  0  0
 15 30  1  0  0  0
 16 30  1  0  0  0
 16 17  1  0  0  0
 16 19  1  0  0  0
 17 18  1  0  0  0
 18 31  1  0  0  0
 19 32  1  0  0  0
 20 32  1  0  0  0
 20 21  1  0  0  0
 21 22  1  0  0  0
 22 23  1  0  0  0
 23 20  1  0  0  0
  6 24  2  0  0  0
  9 10  2  0  0  0
 11 12  2  0  0  0
 13 14  2  0  0  0
 15 26  2  0  0  0
 18 27  2  0  0  0
 19 28  2  0  0  0
M  END
> <rmsd>
0.865046084

$$$$
Molport-047-036-258 643559843 MCULE-7729637858 PubChem-133066166


 32 34  0  0  0  0  0  0  0  0999 V2000
    3.2623   15.1819   68.3122 C   0  0  0  0  0
    3.8194   16.5101   68.7890 C   0  0  0  0  0
    3.0646   17.6654   68.1445 C   0  0  0  0  0
    3.5461   17.8351   66.7109 C   0  0  0  0  0
    3.2850   18.9584   68.9373 C   0  0  0  0  0
    2.7904   18.8655   70.3526 C   0  0  0  0  0
    4.8407   20.0579   71.2216 C   0  0  0  0  0
    5.0024   21.2232   72.1765 C   0  0  0  0  0
    4.0023   23.4706   72.5089 C   0  0  0  0  0
    4.7578   23.6788   73.6756 C   0  0  0  0  0
    4.6210   24.8550   74.4136 C   0  0  0  0  0
    3.7241   25.8371   73.9965 C   0  0  0  0  0
    2.9702   25.6459   72.8377 C   0  0  0  0  0
    3.1023   24.4738   72.0762 C   0  0  0  0  0
    2.2846   24.3337   70.8487 C   0  0  0  0  0
    1.8034   23.1300   68.6662 C   0  0  0  0  0
    2.6316   22.5100   67.5374 C   0  0  0  0  0
    3.3632   21.2778   67.9638 C   0  0  0  0  0
    0.5923   22.3038   68.9906 C   0  0  0  0  0
   -1.6746   21.4392   68.2824 C   0  0  0  0  0
   -2.6186   21.5846   67.1069 C   0  0  0  0  0
   -3.5808   22.3729   67.9721 C   0  0  0  0  0
   -2.6391   22.2256   69.1495 C   0  0  0  0  0
    1.6686   18.3462   70.5954 O   0  0  0  0  0
    4.1223   22.2734   71.7940 O   0  0  0  0  0
    1.2894   25.0888   70.6715 O   0  0  0  0  0
    4.6207   21.2999   68.0374 O   0  0  0  0  0
    0.5187   21.6746   70.0819 O   0  0  0  0  0
    3.5417   19.4357   71.4247 N   0  0  0  0  0
    2.6280   23.3722   69.8466 N   0  0  0  0  0
    2.6395   20.0901   68.2881 N   0  0  0  0  0
   -0.4717   22.2229   68.0407 N   0  0  0  0  0
  1  2  1  0  0  0
  3  2  1  0  0  0
  3  4  1  0  0  0
  3  5  1  0  0  0
  5  6  1  0  0  0
  5 31  1  0  0  0
  6 29  1  0  0  0
  7 29  1  0  0  0
  7  8  1  0  0  0
  8 25  1  0  0  0
  9 25  1  0  0  0
 10 11  1  0  0  0
 12 13  1  0  0  0
 14 15  1  0  0  0
 14  9  1  0  0  0
 15 30  1  0  0  0
 16 30  1  0  0  0
 16 17  1  0  0  0
 16 19  1  0  0  0
 17 18  1  0  0  0
 18 31  1  0  0  0
 19 32  1  0  0  0
 20 32  1  0  0  0
 20 21  1  0  0  0
 21 22  1  0  0  0
 22 23  1  0  0  0
 23 20  1  0  0  0
  6 24  2  0  0  0
  9 10  2  0  0  0
 11 12  2  0  0  0
 13 14  2  0  0  0
 15 26  2  0  0  0
 18 27  2  0  0  0
 19 28  2  0  0  0
M  END
> <rmsd>
0.80738312

$$$$
Molport-047-044-703 643566069 MCULE-6035072122 PubChem-133074939


 36 38  0  0  0  0  0  0  0  0999 V2000
    4.7485   22.3802   72.4842 O   0  0  0  0  0
    1.7674   18.0570   70.7445 O   0  0  0  0  0
    2.9355   22.1486   68.3778 O   0  0  0  0  0
    5.5669   21.4335   68.1721 O   0  0  0  0  0
    6.3314   18.9775   72.1884 O   0  0  0  0  0
    0.0166   22.5522   69.8092 O   0  0  0  0  0
   -3.6083   21.3316   66.7393 O   0  0  0  0  0
    4.1568   21.1170   72.4642 C   0  0  0  0  0
    4.6167   20.3445   71.2352 C   0  0  0  0  0
    2.3878   19.1525   70.7665 C   0  0  0  0  0
    1.6405   20.4268   70.5190 C   0  0  0  0  0
    0.8339   20.3683   69.2145 C   0  0  0  0  0
    2.7960   21.0657   67.7458 C   0  0  0  0  0
    3.7847   20.6798   66.7274 C   0  0  0  0  0
    3.3619   20.0626   65.5434 C   0  0  0  0  0
    4.2930   19.6983   64.5671 C   0  0  0  0  0
    5.6533   19.9409   64.7725 C   0  0  0  0  0
    6.0860   20.5352   65.9607 C   0  0  0  0  0
    5.1573   20.8982   66.9483 C   0  0  0  0  0
    6.9189   21.6623   68.5290 C   0  0  0  0  0
    6.9798   21.8520   70.0297 C   0  0  0  0  0
    6.0503   19.9236   71.4048 C   0  0  0  0  0
   -0.0489   21.5676   69.0223 C   0  0  0  0  0
   -1.8509   22.7111   67.6819 C   0  0  0  0  0
   -2.7302   22.4229   66.4757 C   0  0  0  0  0
   -4.7057   21.4151   67.6039 C   0  0  0  0  0
   -5.0662   22.6226   68.2253 C   0  0  0  0  0
   -6.1698   22.6724   69.0818 C   0  0  0  0  0
   -6.9200   21.5179   69.3217 C   0  0  0  0  0
   -6.5675   20.3145   68.7044 C   0  0  0  0  0
   -5.4637   20.2647   67.8478 C   0  0  0  0  0
    3.7893   19.1529   71.0609 N   0  0  0  0  0
    1.7123   20.1854   68.0601 N   0  0  0  0  0
    7.1086   20.5585   70.6821 N   0  0  0  0  0
   -0.9698   21.5819   67.9313 N   0  0  0  0  0
   -7.9894   21.5656   70.1516 F   0  0  0  0  0
  8  1  1  0  0  0
  9  8  1  0  0  0
  9 32  1  0  0  0
  9 22  1  0  0  0
 11 10  1  0  0  0
 11 12  1  0  0  0
 12 33  1  0  0  0
 12 23  1  0  0  0
 13 14  1  0  0  0
 15 16  1  0  0  0
 17 18  1  0  0  0
 19  4  1  0  0  0
 19 14  1  0  0  0
 20  4  1  0  0  0
 20 21  1  0  0  0
 21 34  1  0  0  0
 23 35  1  0  0  0
 24 35  1  0  0  0
 24 25  1  0  0  0
 25  7  1  0  0  0
 26  7  1  0  0  0
 27 28  1  0  0  0
 29 36  1  0  0  0
 29 30  1  0  0  0
 31 26  1  0  0  0
 32 10  1  0  0  0
 33 13  1  0  0  0
 34 22  1  0  0  0
 10  2  2  0  0  0
 13  3  2  0  0  0
 14 15  2  0  0  0
 16 17  2  0  0  0
 18 19  2  0  0  0
 22  5  2  0  0  0
 23  6  2  0  0  0
 26 27  2  0  0  0
 28 29  2  0  0  0
 30 31  2  0  0  0
M  END
> <rmsd>
0.63994664

$$$$
MolPort-035-702-141 170625567 CSSS00161093931 LN00447717 MCULE-8482888263 PubChem-91638767 ZINC000170625567


 32 35  0  0  0  0  0  0  0  0999 V2000
    9.7894   23.3095   68.3496 F   0  0  0  0  0
    9.0041   23.3183   69.4531 C   0  0  0  0  0
    9.5842   23.3842   70.7238 C   0  0  0  0  0
    8.7738   23.3902   71.8632 C   0  0  0  0  0
    7.3830   23.3324   71.7319 C   0  0  0  0  0
    6.8008   23.2737   70.4604 C   0  0  0  0  0
    5.3187   23.1829   70.3201 C   0  0  0  0  0
    4.7131   21.0104   71.5458 C   0  0  0  0  0
    4.7894   19.4356   69.8424 C   0  0  0  0  0
    3.5662   18.7453   69.2267 C   0  0  0  0  0
    2.2867   19.4943   69.4337 C   0  0  0  0  0
    0.4730   20.9161   68.3748 C   0  0  0  0  0
   -1.1448   22.0352   69.0595 C   0  0  0  0  0
   -2.1258   22.7323   69.9408 C   0  0  0  0  0
   -1.4868   23.9379   70.6207 C   0  0  0  0  0
   -1.2164   25.0410   69.6500 C   0  0  0  0  0
    0.1041   25.4210   69.3869 C   0  0  0  0  0
    0.3690   26.4558   68.4846 C   0  0  0  0  0
   -0.6866   27.1149   67.8469 C   0  0  0  0  0
   -2.0073   26.7408   68.1125 C   0  0  0  0  0
   -2.2730   25.7061   69.0145 C   0  0  0  0  0
    4.9707   20.8352   69.3345 C   0  0  0  0  0
    7.6133   23.2608   69.3214 C   0  0  0  0  0
    4.8858   21.7925   70.3780 N   0  0  0  0  0
    4.6294   19.6128   71.2872 N   0  0  0  0  0
    1.6411   20.0933   68.3062 N   0  0  0  0  0
   -0.1062   21.4498   67.2855 N   0  0  0  0  0
   -1.1302   22.1625   67.7202 N   0  0  0  0  0
   -0.1435   21.2620   69.5227 N   0  0  0  0  0
    4.6495   21.4983   72.7046 O   0  0  0  0  0
    1.7863   19.5777   70.5874 O   0  0  0  0  0
    5.2009   21.1359   68.1332 O   0  0  0  0  0
  2  1  1  0  0  0
  3  4  1  0  0  0
  5  6  1  0  0  0
  7  6  1  0  0  0
  7 24  1  0  0  0
  8 25  1  0  0  0
  9 25  1  0  0  0
  9 10  1  0  0  0
  9 22  1  0  0  0
 10 11  1  0  0  0
 11 26  1  0  0  0
 12 29  1  0  0  0
 14 13  1  0  0  0
 14 15  1  0  0  0
 15 16  1  0  0  0
 17 18  1  0  0  0
 19 20  1  0  0  0
 21 16  1  0  0  0
 22 24  1  0  0  0
 23  2  1  0  0  0
 24  8  1  0  0  0
 26 12  1  0  0  0
 28 27  1  0  0  0
 28 13  1  0  0  0
  2  3  2  0  0  0
  4  5  2  0  0  0
  6 23  2  0  0  0
  8 30  2  0  0  0
 11 31  2  0  0  0
 12 27  2  0  0  0
 13 29  2  0  0  0
 16 17  2  0  0  0
 18 19  2  0  0  0
 20 21  2  0  0  0
 22 32  2  0  0  0
M  END
> <rmsd>
0.593576431

$$$$
Molport-047-045-547 643567745 MCULE-6357892945 PubChem-133078947


 36 37  0  0  0  0  0  0  0  0999 V2000
    7.7023   25.2204   70.6874 C   0  0  0  0  0
    7.3014   23.8561   70.1667 C   0  0  0  0  0
    8.5363   22.9836   70.0605 C   0  0  0  0  0
    6.2980   23.2295   71.1205 C   0  0  0  0  0
    5.5912   22.0449   70.4748 C   0  0  0  0  0
    4.8460   21.2396   71.4835 C   0  0  0  0  0
    4.2201   18.9781   72.3770 C   0  0  0  0  0
    4.1149   17.5659   71.8174 C   0  0  0  0  0
    3.4749   17.5258   70.4264 C   0  0  0  0  0
    1.1923   18.3473   71.0438 C   0  0  0  0  0
    0.9630   17.2536   71.8962 C   0  0  0  0  0
   -0.1903   17.1902   72.6792 C   0  0  0  0  0
   -1.1308   18.2172   72.6159 C   0  0  0  0  0
   -0.9235   19.2990   71.7591 C   0  0  0  0  0
    0.2250   19.3752   70.9566 C   0  0  0  0  0
    0.3681   20.5313   70.0407 C   0  0  0  0  0
    1.2691   21.4876   67.8705 C   0  0  0  0  0
    2.4382   21.2514   66.9284 C   0  0  0  0  0
    3.5546   22.2488   67.1894 C   0  0  0  0  0
    4.4922   21.7449   68.2318 C   0  0  0  0  0
   -0.0101   21.4170   67.0983 C   0  0  0  0  0
   -2.0936   22.5928   66.2685 C   0  0  0  0  0
   -1.8329   22.5681   64.7686 C   0  0  0  0  0
   -1.2265   23.8943   64.2879 C   0  0  0  0  0
   -3.1272   25.2397   64.8628 C   0  0  0  0  0
   -2.9957   24.2726   62.7161 C   0  0  0  0  0
    4.0342   21.7982   72.2708 O   0  0  0  0  0
    2.3825   18.4374   70.3077 O   0  0  0  0  0
   -0.3562   21.5510   70.2094 O   0  0  0  0  0
    5.1286   20.6734   68.0401 O   0  0  0  0  0
   -0.3562   20.3398   66.5406 O   0  0  0  0  0
    5.0055   19.8225   71.4926 N   0  0  0  0  0
    1.2738   20.4851   68.9319 N   0  0  0  0  0
    4.6798   22.4937   69.4319 N   0  0  0  0  0
   -0.8374   22.5784   67.0079 N   0  0  0  0  0
   -2.2151   24.8623   63.7949 N   0  0  0  0  0
  1  2  1  0  0  0
  2  3  1  0  0  0
  2  4  1  0  0  0
  5  4  1  0  0  0
  5  6  1  0  0  0
  5 34  1  0  0  0
  6 32  1  0  0  0
  7 32  1  0  0  0
  7  8  1  0  0  0
  8  9  1  0  0  0
  9 28  1  0  0  0
 10 28  1  0  0  0
 11 12  1  0  0  0
 13 14  1  0  0  0
 15 16  1  0  0  0
 15 10  1  0  0  0
 16 33  1  0  0  0
 17 33  1  0  0  0
 17 18  1  0  0  0
 17 21  1  0  0  0
 18 19  1  0  0  0
 19 20  1  0  0  0
 20 34  1  0  0  0
 21 35  1  0  0  0
 22 35  1  0  0  0
 22 23  1  0  0  0
 23 24  1  0  0  0
 24 36  1  0  0  0
 25 36  1  0  0  0
 26 36  1  0  0  0
  6 27  2  0  0  0
 10 11  2  0  0  0
 12 13  2  0  0  0
 14 15  2  0  0  0
 16 29  2  0  0  0
 20 30  2  0  0  0
 21 31  2  0  0  0
M  END
> <rmsd>
0.84304291

$$$$
MolPort-047-146-494 CSSS00161146090 MCULE-5902798777 PubChem-146116758


 33 35  0  0  0  0  0  0  0  0999 V2000
    4.1037   22.7311   69.1360 N   0  0  0  0  0
   -0.6023   22.2370   67.3507 N   0  0  0  0  0
    4.7902   19.8469   71.1995 N   0  0  0  0  0
    4.9120   15.5719   71.1660 N   0  0  0  0  0
    1.9580   20.4000   68.9434 N   0  0  0  0  0
    4.0394   21.5283   68.3708 C   0  0  0  0  0
    2.7295   21.0163   67.8657 C   0  0  0  0  0
    1.9424   22.1643   67.2419 C   0  0  0  0  0
    0.5985   21.7180   66.7562 C   0  0  0  0  0
   -0.5779   23.1957   68.4484 C   0  0  0  0  0
   -1.2232   22.6002   69.6871 C   0  0  0  0  0
   -0.6736   21.5223   71.5321 C   0  0  0  0  0
    0.4364   20.7451   72.2246 C   0  0  0  0  0
    2.6120   20.4178   72.4478 C   0  0  0  0  0
    3.9815   20.7657   71.9550 C   0  0  0  0  0
    4.4663   18.4897   70.7375 C   0  0  0  0  0
    5.7912   17.7941   70.4203 C   0  0  0  0  0
    5.5811   16.3122   70.0793 C   0  0  0  0  0
    3.6226   16.2104   71.4729 C   0  0  0  0  0
    3.7750   17.6863   71.8494 C   0  0  0  0  0
    5.7637   15.5013   72.3663 C   0  0  0  0  0
    7.0925   14.8252   72.0645 C   0  0  0  0  0
    7.4645   14.0975   73.3353 C   0  0  0  0  0
    6.1483   13.6410   73.9161 C   0  0  0  0  0
    5.1139   14.6556   73.4594 C   0  0  0  0  0
    3.6439   18.5455   69.4351 C   0  0  0  0  0
    2.2871   19.1568   69.5757 C   0  0  0  0  0
    5.0973   20.8952   68.1107 O   0  0  0  0  0
    0.5250   20.8722   65.8218 O   0  0  0  0  0
   -0.4803   21.5147   70.1466 O   0  0  0  0  0
    1.6744   21.3355   71.9628 O   0  0  0  0  0
    4.4649   21.8889   72.2580 O   0  0  0  0  0
    1.4097   18.5616   70.2524 O   0  0  0  0  0
  1  6  1  0  0  0
  7  6  1  0  0  0
  7  8  1  0  0  0
  7  5  1  0  0  0
  8  9  1  0  0  0
  9  2  1  0  0  0
 10  2  1  0  0  0
 10 11  1  0  0  0
 11 30  1  0  0  0
 12 30  1  0  0  0
 12 13  1  0  0  0
 13 31  1  0  0  0
 14 31  1  0  0  0
 14 15  1  0  0  0
 15  3  1  0  0  0
 16  3  1  0  0  0
 16 17  1  0  0  0
 16 26  1  0  0  0
 17 18  1  0  0  0
 18  4  1  0  0  0
 19  4  1  0  0  0
 19 20  1  0  0  0
 20 16  1  0  0  0
 21  4  1  0  0  0
 21 22  1  0  0  0
 22 23  1  0  0  0
 23 24  1  0  0  0
 24 25  1  0  0  0
 25 21  1  0  0  0
 26 27  1  0  0  0
 27  5  1  0  0  0
  6 28  2  0  0  0
  9 29  2  0  0  0
 15 32  2  0  0  0
 27 33  2  0  0  0
M  END
> <rmsd>
0.626392543

$$$$
Molport-047-042-942 643564698 MCULE-2461793242 PubChem-133075443


 37 39  0  0  0  0  0  0  0  0999 V2000
    7.2728   23.5789   68.6612 C   0  0  0  0  0
    7.8316   22.8087   69.8424 C   0  0  0  0  0
    8.4862   21.5190   69.3802 C   0  0  0  0  0
    6.7749   22.5605   70.9203 C   0  0  0  0  0
    5.6881   21.5680   70.5016 C   0  0  0  0  0
    5.0406   20.9378   71.6961 C   0  0  0  0  0
    4.8562   18.7157   70.5120 C   0  0  0  0  0
    3.6065   17.8750   70.3332 C   0  0  0  0  0
    1.4416   18.7440   71.1669 C   0  0  0  0  0
    1.4275   17.8004   72.2092 C   0  0  0  0  0
    0.4183   17.8124   73.1715 C   0  0  0  0  0
   -0.5911   18.7704   73.1068 C   0  0  0  0  0
   -0.5903   19.7138   72.0788 C   0  0  0  0  0
    0.4153   19.7169   71.0978 C   0  0  0  0  0
    0.3518   20.7495   70.0346 C   0  0  0  0  0
    1.1355   21.6489   67.8011 C   0  0  0  0  0
    2.3870   21.6056   66.9401 C   0  0  0  0  0
    3.4588   22.5336   67.4892 C   0  0  0  0  0
    4.4363   21.7889   68.3325 C   0  0  0  0  0
   -0.0531   21.2695   66.9776 C   0  0  0  0  0
   -2.2800   21.9365   65.9810 C   0  0  0  0  0
   -1.9178   21.9405   64.4929 C   0  0  0  0  0
   -3.5401   20.2690   63.9285 C   0  0  0  0  0
   -4.5849   19.8242   62.8980 C   0  0  0  0  0
   -5.2884   21.0099   62.2312 C   0  0  0  0  0
   -5.4656   22.1604   63.2172 C   0  0  0  0  0
   -4.1171   22.6130   63.8016 C   0  0  0  0  0
    4.7392   21.6404   72.6976 O   0  0  0  0  0
    2.4721   18.7271   70.2192 O   0  0  0  0  0
   -0.5392   21.6418   70.0900 O   0  0  0  0  0
    5.0776   20.8199   67.8428 O   0  0  0  0  0
   -0.1336   20.1172   66.4700 O   0  0  0  0  0
    4.7158   19.5476   71.6975 N   0  0  0  0  0
    1.2705   20.7430   68.9361 N   0  0  0  0  0
    4.6814   22.2153   69.6733 N   0  0  0  0  0
   -1.0996   22.2223   66.7819 N   0  0  0  0  0
   -3.0499   21.6152   63.6208 N   0  0  0  0  0
  1  2  1  0  0  0
  2  3  1  0  0  0
  2  4  1  0  0  0
  5  4  1  0  0  0
  5  6  1  0  0  0
  5 35  1  0  0  0
  6 33  1  0  0  0
  7 33  1  0  0  0
  7  8  1  0  0  0
  8 29  1  0  0  0
  9 29  1  0  0  0
 10 11  1  0  0  0
 12 13  1  0  0  0
 14 15  1  0  0  0
 14  9  1  0  0  0
 15 34  1  0  0  0
 16 34  1  0  0  0
 16 17  1  0  0  0
 16 20  1  0  0  0
 17 18  1  0  0  0
 18 19  1  0  0  0
 19 35  1  0  0  0
 20 36  1  0  0  0
 21 36  1  0  0  0
 21 22  1  0  0  0
 22 37  1  0  0  0
 23 37  1  0  0  0
 23 24  1  0  0  0
 24 25  1  0  0  0
 25 26  1  0  0  0
 26 27  1  0  0  0
 27 37  1  0  0  0
  6 28  2  0  0  0
  9 10  2  0  0  0
 11 12  2  0  0  0
 13 14  2  0  0  0
 15 30  2  0  0  0
 19 31  2  0  0  0
 20 32  2  0  0  0
M  END
> <rmsd>
0.792450607

$$$$
Molport-047-045-156 643566494 MCULE-4684900315 PubChem-133074400


 38 41  0  0  0  0  0  0  0  0999 V2000
   -2.8345   25.1276   69.1499 C   0  0  0  0  0
   -3.7383   23.9808   68.7397 C   0  0  0  0  0
   -4.5866   22.9891   66.7942 C   0  0  0  0  0
   -4.4483   21.4901   66.6352 C   0  0  0  0  0
   -2.9730   21.2372   66.7324 C   0  0  0  0  0
   -2.4661   22.3757   67.5870 C   0  0  0  0  0
   -1.0559   22.7673   67.1684 C   0  0  0  0  0
    0.2151   21.5368   68.9867 C   0  0  0  0  0
    1.2297   20.4900   69.3438 C   0  0  0  0  0
    1.4526   20.3509   70.8514 C   0  0  0  0  0
    2.2200   19.1148   71.1778 C   0  0  0  0  0
    4.3271   18.0800   72.1427 C   0  0  0  0  0
    5.1752   18.3238   73.3580 C   0  0  0  0  0
    7.2639   19.2691   74.4096 C   0  0  0  0  0
    8.2484   20.3606   74.0364 C   0  0  0  0  0
    7.9117   20.7613   72.6077 C   0  0  0  0  0
    6.4916   20.2894   72.3613 C   0  0  0  0  0
    5.5464   21.4691   72.5061 C   0  0  0  0  0
    3.9804   22.7350   71.0625 C   0  0  0  0  0
    3.7694   23.7221   72.0386 C   0  0  0  0  0
    2.8465   24.7478   71.8190 C   0  0  0  0  0
    2.1293   24.7966   70.6220 C   0  0  0  0  0
    2.3293   23.8160   69.6475 C   0  0  0  0  0
    3.2433   22.7789   69.8657 C   0  0  0  0  0
    3.4362   21.7491   68.8331 C   0  0  0  0  0
    5.1378   17.5727   70.9406 C   0  0  0  0  0
    4.4015   16.4392   70.2573 C   0  0  0  0  0
    5.4695   18.6505   69.9200 C   0  0  0  0  0
   -3.3702   23.5090   67.4129 N   0  0  0  0  0
   -0.0908   21.7684   67.6086 N   0  0  0  0  0
    3.4797   19.2285   71.8407 N   0  0  0  0  0
    6.2264   19.3067   73.3966 N   0  0  0  0  0
    2.4845   20.6961   68.6182 N   0  0  0  0  0
   -0.3760   22.1955   69.8872 O   0  0  0  0  0
    1.7415   17.9836   70.8965 O   0  0  0  0  0
    4.9491   17.6227   74.3801 O   0  0  0  0  0
    4.9067   21.7060   71.2611 O   0  0  0  0  0
    4.4907   21.7668   68.1459 O   0  0  0  0  0
  1  2  1  0  0  0
  2 29  1  0  0  0
  3 29  1  0  0  0
  3  4  1  0  0  0
  4  5  1  0  0  0
  5  6  1  0  0  0
  6  7  1  0  0  0
  6 29  1  0  0  0
  7 30  1  0  0  0
  9  8  1  0  0  0
  9 10  1  0  0  0
  9 33  1  0  0  0
 10 11  1  0  0  0
 11 31  1  0  0  0
 12 31  1  0  0  0
 12 13  1  0  0  0
 12 26  1  0  0  0
 13 32  1  0  0  0
 14 32  1  0  0  0
 14 15  1  0  0  0
 15 16  1  0  0  0
 17 16  1  0  0  0
 17 18  1  0  0  0
 17 32  1  0  0  0
 18 37  1  0  0  0
 19 37  1  0  0  0
 20 21  1  0  0  0
 22 23  1  0  0  0
 24 25  1  0  0  0
 24 19  1  0  0  0
 25 33  1  0  0  0
 26 27  1  0  0  0
 26 28  1  0  0  0
 30  8  1  0  0  0
  8 34  2  0  0  0
 11 35  2  0  0  0
 13 36  2  0  0  0
 19 20  2  0  0  0
 21 22  2  0  0  0
 23 24  2  0  0  0
 25 38  2  0  0  0
M  END
> <rmsd>
0.838619113

$$$$
MolPort-038-385-567 225517774 CSSS00159295399 MCULE-4084750410 PubChem-100663645 ZINC000225517774


 31 34  0  0  0  0  0  0  0  0999 V2000
    4.9487   20.1645   66.4081 C   0  0  0  0  0
    5.3366   19.3989   68.7362 C   0  0  0  0  0
    5.9962   19.9239   69.8282 C   0  0  0  0  0
    6.0753   19.3184   71.1891 C   0  0  0  0  0
    4.1413   20.5035   72.3105 C   0  0  0  0  0
    2.7115   20.4680   72.7219 C   0  0  0  0  0
    1.8177   20.7775   71.5310 C   0  0  0  0  0
    0.3927   20.9484   71.9881 C   0  0  0  0  0
   -0.3998   20.3543   70.8722 C   0  0  0  0  0
   -0.2549   21.0133   68.6948 C   0  0  0  0  0
   -1.3554   21.0677   67.6516 C   0  0  0  0  0
   -1.6192   23.0050   66.0656 C   0  0  0  0  0
   -1.9812   24.9883   64.5362 C   0  0  0  0  0
   -3.1650   24.4612   63.7145 C   0  0  0  0  0
   -4.5186   24.9062   64.2867 C   0  0  0  0  0
   -4.4925   26.3062   64.9136 C   0  0  0  0  0
   -3.3592   27.1531   64.3503 C   0  0  0  0  0
   -2.0024   26.5195   64.6727 C   0  0  0  0  0
    0.3189   19.6215   68.7544 C   0  0  0  0  0
    0.5635   19.4007   70.2191 C   0  0  0  0  0
    6.5212   21.1436   69.4475 C   0  0  0  0  0
    5.4897   20.2954   67.7479 N   0  0  0  0  0
    4.7593   19.3161   71.8112 N   0  0  0  0  0
   -1.7076   22.4517   67.3780 N   0  0  0  0  0
   -1.9637   24.3756   65.8584 N   0  0  0  0  0
    6.1913   21.3398   68.1556 N   0  0  0  0  0
    4.7795   21.5887   72.3599 O   0  0  0  0  0
   -0.7717   21.3625   69.9586 O   0  0  0  0  0
   -1.2386   22.2907   65.0978 O   0  0  0  0  0
    1.4982   19.5475   68.0098 O   0  0  0  0  0
    1.8844   19.7364   70.5843 O   0  0  0  0  0
  1 22  1  0  0  0
  3 21  1  0  0  0
  4  3  1  0  0  0
  4 23  1  0  0  0
  6  5  1  0  0  0
  7  6  1  0  0  0
  7  8  1  0  0  0
  7 31  1  0  0  0
  9  8  1  0  0  0
  9 28  1  0  0  0
 10 28  1  0  0  0
 10 11  1  0  0  0
 10 19  1  0  0  0
 11 24  1  0  0  0
 12 25  1  0  0  0
 13 25  1  0  0  0
 13 14  1  0  0  0
 14 15  1  0  0  0
 15 16  1  0  0  0
 16 17  1  0  0  0
 17 18  1  0  0  0
 18 13  1  0  0  0
 19 30  1  0  0  0
 19 20  1  0  0  0
 20 31  1  0  0  0
 20  9  1  0  0  0
 22  2  1  0  0  0
 22 26  1  0  0  0
 23  5  1  0  0  0
 24 12  1  0  0  0
  2  3  2  0  0  0
  5 27  2  0  0  0
 12 29  2  0  0  0
 21 26  2  0  0  0
M  END
> <rmsd>
0.836086571

$$$$
Molport-047-045-444 643567216 MCULE-5426382115 PubChem-133075474


 31 33  0  0  0  0  0  0  0  0999 V2000
    6.3131   22.7864   70.9050 C   0  0  0  0  0
    5.4688   21.6612   70.3350 C   0  0  0  0  0
    4.6751   20.9949   71.4082 C   0  0  0  0  0
    3.8028   18.8741   72.4304 C   0  0  0  0  0
    3.5361   17.4453   71.9717 C   0  0  0  0  0
    2.8884   17.3814   70.5858 C   0  0  0  0  0
    0.6779   18.4133   71.1333 C   0  0  0  0  0
    0.2746   17.3135   71.9087 C   0  0  0  0  0
   -0.9055   17.3635   72.6524 C   0  0  0  0  0
   -1.6925   18.5149   72.6332 C   0  0  0  0  0
   -1.3046   19.6128   71.8627 C   0  0  0  0  0
   -0.1298   19.5721   71.0970 C   0  0  0  0  0
    0.2424   20.7591   70.2983 C   0  0  0  0  0
    1.5416   21.7358   68.3325 C   0  0  0  0  0
    2.4444   21.2054   67.2299 C   0  0  0  0  0
    3.6147   22.1439   66.9801 C   0  0  0  0  0
    4.7176   21.8530   67.9392 C   0  0  0  0  0
    0.4190   22.5212   67.7324 C   0  0  0  0  0
   -1.6216   22.5964   66.2331 C   0  0  0  0  0
   -1.0916   23.4434   65.0917 C   0  0  0  0  0
   -2.2607   24.0515   64.3451 C   0  0  0  0  0
   -1.4761   24.8894   65.3294 C   0  0  0  0  0
    3.9712   21.6829   72.1982 O   0  0  0  0  0
    1.8840   18.3815   70.4213 O   0  0  0  0  0
   -0.1583   21.9014   70.6526 O   0  0  0  0  0
    5.7763   21.3122   67.5224 O   0  0  0  0  0
    0.3149   23.7487   67.9957 O   0  0  0  0  0
    4.6574   19.5698   71.4814 N   0  0  0  0  0
    1.0319   20.6145   69.1121 N   0  0  0  0  0
    4.5652   22.1785   69.3210 N   0  0  0  0  0
   -0.5285   21.8798   66.8729 N   0  0  0  0  0
  2  1  1  0  0  0
  2  3  1  0  0  0
  2 30  1  0  0  0
  3 28  1  0  0  0
  4 28  1  0  0  0
  4  5  1  0  0  0
  5  6  1  0  0  0
  6 24  1  0  0  0
  7 24  1  0  0  0
  8  9  1  0  0  0
 10 11  1  0  0  0
 12 13  1  0  0  0
 12  7  1  0  0  0
 13 29  1  0  0  0
 14 29  1  0  0  0
 14 15  1  0  0  0
 14 18  1  0  0  0
 15 16  1  0  0  0
 16 17  1  0  0  0
 17 30  1  0  0  0
 18 31  1  0  0  0
 19 31  1  0  0  0
 19 20  1  0  0  0
 20 21  1  0  0  0
 21 22  1  0  0  0
 22 20  1  0  0  0
  3 23  2  0  0  0
  7  8  2  0  0  0
  9 10  2  0  0  0
 11 12  2  0  0  0
 13 25  2  0  0  0
 17 26  2  0  0  0
 18 27  2  0  0  0
M  END
> <rmsd>
0.78984338

$$$$
