MolPort-044-430-707 MCULE-1697146393 PubChem-132285944


 33 36  0  0  0  0  0  0  0  0999 V2000
   -2.7621   26.9461   59.4150 C   0  0  0  0  0
   -2.5037   25.2341   61.1813 C   0  0  0  0  0
   -1.7926   26.1063   62.0172 C   0  0  0  0  0
   -1.3290   25.6859   63.2754 C   0  0  0  0  0
   -1.5858   24.3624   63.7008 C   0  0  0  0  0
   -2.2983   23.4991   62.8556 C   0  0  0  0  0
   -2.7528   23.9300   61.6086 C   0  0  0  0  0
   -1.1296   23.8466   65.0114 C   0  0  0  0  0
   -0.7751   22.5921   66.6448 C   0  0  0  0  0
   -0.1448   21.4026   68.7966 C   0  0  0  0  0
   -0.1579   20.1313   69.5751 C   0  0  0  0  0
    0.6686   19.0474   68.8834 C   0  0  0  0  0
    2.1722   19.1191   69.1865 C   0  0  0  0  0
    2.5241   18.8329   70.6134 C   0  0  0  0  0
    5.0324   18.7278   70.1337 C   0  0  0  0  0
    6.1158   17.8902   70.4253 C   0  0  0  0  0
    7.2952   17.9544   69.6839 C   0  0  0  0  0
    7.4135   18.8763   68.6472 C   0  0  0  0  0
    6.3540   19.7356   68.3575 C   0  0  0  0  0
    5.1523   19.6794   69.0824 C   0  0  0  0  0
    4.1183   20.6873   68.7459 C   0  0  0  0  0
   -0.3307   27.9096   63.7282 C   0  0  0  0  0
   -2.9712   25.6374   59.9276 O   0  0  0  0  0
    0.4008   22.4242   69.2922 O   0  0  0  0  0
    1.6294   18.7468   71.4965 O   0  0  0  0  0
    4.4811   21.8256   68.3452 O   0  0  0  0  0
   -0.6201   26.5684   64.0995 O   0  0  0  0  0
   -1.3654   22.5869   65.4358 N   0  0  0  0  0
   -0.2107   23.7747   66.9478 N   0  0  0  0  0
   -0.4355   24.5672   65.9149 N   0  0  0  0  0
   -0.7539   21.4464   67.5016 N   0  0  0  0  0
    3.8846   18.6198   70.9864 N   0  0  0  0  0
    2.7198   20.4048   68.7987 N   0  0  0  0  0
  1 23  1  0  0  0
  2 23  1  0  0  0
  3  4  1  0  0  0
  4 27  1  0  0  0
  5  6  1  0  0  0
  5  8  1  0  0  0
  7  2  1  0  0  0
  9 28  1  0  0  0
  9 31  1  0  0  0
 11 10  1  0  0  0
 11 12  1  0  0  0
 12 13  1  0  0  0
 13 14  1  0  0  0
 13 33  1  0  0  0
 14 32  1  0  0  0
 16 17  1  0  0  0
 18 19  1  0  0  0
 20 21  1  0  0  0
 20 15  1  0  0  0
 21 33  1  0  0  0
 22 27  1  0  0  0
 30 29  1  0  0  0
 30  8  1  0  0  0
 31 10  1  0  0  0
 32 15  1  0  0  0
  2  3  2  0  0  0
  4  5  2  0  0  0
  6  7  2  0  0  0
  8 28  2  0  0  0
  9 29  2  0  0  0
 10 24  2  0  0  0
 14 25  2  0  0  0
 15 16  2  0  0  0
 17 18  2  0  0  0
 19 20  2  0  0  0
 21 26  2  0  0  0
M  END
> <rmsd>
0.842221677

$$$$
MolPort-045-916-659 MCULE-6492915523 PubChem-131936982 ZINC000952972910


 38 40  0  0  0  0  0  0  0  0999 V2000
   -4.6064   23.0616   67.0142 C   0  0  0  0  0
   -4.0388   22.7230   65.6461 C   0  0  0  0  0
   -3.7545   23.9867   64.8537 C   0  0  0  0  0
   -2.8088   21.8139   65.7372 C   0  0  0  0  0
   -1.7107   22.3413   66.6625 C   0  0  0  0  0
    0.0853   21.3503   68.1476 C   0  0  0  0  0
    1.1025   20.2682   68.3476 C   0  0  0  0  0
    2.0090   20.1698   67.1376 C   0  0  0  0  0
    1.8271   19.6708   70.6848 C   0  0  0  0  0
    2.7405   19.9078   71.8386 C   0  0  0  0  0
    3.9515   18.9940   71.7458 C   0  0  0  0  0
    6.2908   19.7986   71.2778 C   0  0  0  0  0
    7.3009   20.3839   70.3614 C   0  0  0  0  0
    6.9689   20.9381   69.1006 C   0  0  0  0  0
    5.2331   21.5295   67.4198 C   0  0  0  0  0
    5.2162   23.0489   67.4951 C   0  0  0  0  0
    4.0976   23.5066   68.4123 C   0  0  0  0  0
    1.9729   24.2045   67.3315 C   0  0  0  0  0
    1.5454   25.3922   66.7686 C   0  0  0  0  0
    0.2135   25.6607   66.1412 C   0  0  0  0  0
   -0.8838   23.3905   65.9875 C   0  0  0  0  0
    7.9898   21.4646   68.2901 C   0  0  0  0  0
    9.3192   21.4483   68.7133 C   0  0  0  0  0
    9.6470   20.9081   69.9551 C   0  0  0  0  0
    8.6451   20.3816   70.7705 C   0  0  0  0  0
   -0.8558   21.2361   67.0769 N   0  0  0  0  0
    1.9096   20.5113   69.5343 N   0  0  0  0  0
    4.9456   19.5655   70.8501 N   0  0  0  0  0
    3.2352   24.4465   67.7160 N   0  0  0  0  0
   -0.7780   24.6865   66.5796 N   0  0  0  0  0
    2.5464   26.2931   66.8187 N   0  0  0  0  0
    3.5646   25.6891   67.4095 N   0  0  0  0  0
    0.0619   22.3590   68.9044 O   0  0  0  0  0
    1.0096   18.7116   70.7230 O   0  0  0  0  0
    6.6311   19.4771   72.4498 O   0  0  0  0  0
    5.6374   20.9653   68.6650 O   0  0  0  0  0
   -0.2568   23.1194   64.9267 O   0  0  0  0  0
   10.5723   22.1119   67.6882 Cl  0  0  0  0  0
  1  2  1  0  0  0
  2  3  1  0  0  0
  2  4  1  0  0  0
  5  4  1  0  0  0
  5 26  1  0  0  0
  5 21  1  0  0  0
  7  6  1  0  0  0
  7  8  1  0  0  0
  7 27  1  0  0  0
 10  9  1  0  0  0
 10 11  1  0  0  0
 11 28  1  0  0  0
 12 13  1  0  0  0
 14 36  1  0  0  0
 14 22  1  0  0  0
 15 36  1  0  0  0
 15 16  1  0  0  0
 16 17  1  0  0  0
 17 29  1  0  0  0
 19 31  1  0  0  0
 20 19  1  0  0  0
 20 30  1  0  0  0
 23 38  1  0  0  0
 23 24  1  0  0  0
 25 13  1  0  0  0
 26  6  1  0  0  0
 27  9  1  0  0  0
 28 12  1  0  0  0
 29 18  1  0  0  0
 29 32  1  0  0  0
 30 21  1  0  0  0
  6 33  2  0  0  0
  9 34  2  0  0  0
 12 35  2  0  0  0
 13 14  2  0  0  0
 18 19  2  0  0  0
 21 37  2  0  0  0
 22 23  2  0  0  0
 24 25  2  0  0  0
 31 32  2  0  0  0
M  END
> <rmsd>
0.876899898

$$$$
