MolPort-045-964-453


 22 23  0  0  0  0  0  0  0  0999 V2000
    7.5878   21.9754   69.5084 C   0  0  0  0  0
    6.2473   21.3340   69.4969 C   0  0  0  0  0
    5.7292   20.7824   70.6679 C   0  0  0  0  0
    4.4690   20.1819   70.6483 C   0  0  0  0  0
    3.7307   20.1369   69.4466 C   0  0  0  0  0
    4.2986   20.7071   68.2984 C   0  0  0  0  0
    2.3872   19.5213   69.3542 C   0  0  0  0  0
    0.3399   19.0020   67.9464 C   0  0  0  0  0
   -0.6541   19.9414   68.6109 C   0  0  0  0  0
   -0.2513   22.4305   68.6300 C   0  0  0  0  0
   -0.2245   23.7155   67.9108 C   0  0  0  0  0
   -0.5764   23.7836   66.5567 C   0  0  0  0  0
   -0.1796   26.1244   66.5231 C   0  0  0  0  0
    0.1797   26.1047   67.8719 C   0  0  0  0  0
    0.1560   24.8936   68.5652 C   0  0  0  0  0
    3.9699   19.6382   71.8262 O   0  0  0  0  0
    1.8413   19.0134   70.3712 O   0  0  0  0  0
    0.0723   22.3826   69.8486 O   0  0  0  0  0
    5.5278   21.2857   68.3458 N   0  0  0  0  0
    1.6983   19.5063   68.0989 N   0  0  0  0  0
   -0.6360   21.2350   67.9460 N   0  0  0  0  0
   -0.5471   24.9736   65.8983 N   0  0  0  0  0
  1  2  1  0  0  0
  2 19  1  0  0  0
  3  4  1  0  0  0
  4 16  1  0  0  0
  5  6  1  0  0  0
  5  7  1  0  0  0
  7 20  1  0  0  0
  8 20  1  0  0  0
  8  9  1  0  0  0
  9 21  1  0  0  0
 10 11  1  0  0  0
 12 22  1  0  0  0
 13 14  1  0  0  0
 15 11  1  0  0  0
 21 10  1  0  0  0
  2  3  2  0  0  0
  4  5  2  0  0  0
  6 19  2  0  0  0
  7 17  2  0  0  0
 10 18  2  0  0  0
 11 12  2  0  0  0
 13 22  2  0  0  0
 14 15  2  0  0  0
M  END
> <rmsd>
0.655980766

$$$$
MolPort-051-714-470 MCULE-8222614365


 40 43  0  0  0  0  0  0  0  0999 V2000
    1.8895   16.4166   68.9933 C   0  0  0  0  0
    1.9698   17.7296   68.2353 C   0  0  0  0  0
    3.2741   17.8250   67.4663 C   0  0  0  0  0
    1.6878   18.9419   69.1389 C   0  0  0  0  0
    0.9438   21.3330   68.8002 C   0  0  0  0  0
    0.7473   22.4597   67.8367 C   0  0  0  0  0
    1.3338   23.7554   68.3862 C   0  0  0  0  0
    2.8427   23.7616   68.2306 C   0  0  0  0  0
    3.2280   24.0681   66.7917 C   0  0  0  0  0
    4.6718   23.6739   66.5118 C   0  0  0  0  0
    6.0611   24.2440   68.5849 C   0  0  0  0  0
    5.7906   22.9635   69.2691 C   0  0  0  0  0
    6.0233   22.7131   70.6082 C   0  0  0  0  0
    5.2087   20.9843   69.6820 C   0  0  0  0  0
    4.7329   19.5771   69.5045 C   0  0  0  0  0
    5.9171   18.6094   69.5382 C   0  0  0  0  0
    6.8150   18.7754   68.3521 C   0  0  0  0  0
    7.9157   19.6368   68.4248 C   0  0  0  0  0
    8.7467   19.8067   67.3134 C   0  0  0  0  0
    8.4795   19.1150   66.1275 C   0  0  0  0  0
    7.3817   18.2537   66.0522 C   0  0  0  0  0
    6.5503   18.0842   67.1638 C   0  0  0  0  0
    2.4159   18.9935   70.4601 C   0  0  0  0  0
   -1.1686   23.4000   66.4684 C   0  0  0  0  0
   -2.6241   23.5595   66.2920 C   0  0  0  0  0
   -4.7266   23.3918   66.6516 C   0  0  0  0  0
   -4.5434   24.1435   65.5045 C   0  0  0  0  0
   -2.5981   24.9466   64.1882 C   0  0  0  0  0
    1.7299   20.2040   68.4076 N   0  0  0  0  0
    5.5965   24.5179   67.2574 N   0  0  0  0  0
    5.2799   21.8692   68.6722 N   0  0  0  0  0
    3.8229   19.2363   70.5888 N   0  0  0  0  0
   -0.6742   22.6303   67.5681 N   0  0  0  0  0
   -3.5213   23.0267   67.1428 N   0  0  0  0  0
   -3.2206   24.2387   65.2938 N   0  0  0  0  0
    0.3839   21.3603   69.9306 O   0  0  0  0  0
    6.7260   25.1287   69.1857 O   0  0  0  0  0
    5.6473   21.4741   70.8189 O   0  0  0  0  0
    1.7441   18.8005   71.5060 O   0  0  0  0  0
   -0.3622   23.9356   65.6617 O   0  0  0  0  0
  1  2  1  0  0  0
  2  3  1  0  0  0
  4  2  1  0  0  0
  4 29  1  0  0  0
  4 23  1  0  0  0
  6  5  1  0  0  0
  6  7  1  0  0  0
  6 33  1  0  0  0
  7  8  1  0  0  0
  8  9  1  0  0  0
  9 10  1  0  0  0
 10 30  1  0  0  0
 11 12  1  0  0  0
 12 31  1  0  0  0
 13 38  1  0  0  0
 14 38  1  0  0  0
 15 14  1  0  0  0
 15 16  1  0  0  0
 15 32  1  0  0  0
 16 17  1  0  0  0
 18 19  1  0  0  0
 20 21  1  0  0  0
 22 17  1  0  0  0
 24 25  1  0  0  0
 26 34  1  0  0  0
 27 35  1  0  0  0
 28 35  1  0  0  0
 29  5  1  0  0  0
 30 11  1  0  0  0
 32 23  1  0  0  0
 33 24  1  0  0  0
 35 25  1  0  0  0
  5 36  2  0  0  0
 11 37  2  0  0  0
 12 13  2  0  0  0
 14 31  2  0  0  0
 17 18  2  0  0  0
 19 20  2  0  0  0
 21 22  2  0  0  0
 23 39  2  0  0  0
 24 40  2  0  0  0
 25 34  2  0  0  0
 26 27  2  0  0  0
M  END
> <rmsd>
0.77214998

$$$$
MolPort-044-180-239 409413109 MCULE-3496423326 PubChem-126417408 ZINC000409413109


 25 27  0  0  0  0  0  0  0  0999 V2000
   -2.0351   21.5647   64.6995 C   0  0  0  0  0
   -1.3251   22.6623   65.4178 C   0  0  0  0  0
   -0.7568   22.5952   66.6657 C   0  0  0  0  0
   -0.1404   21.3929   68.8195 C   0  0  0  0  0
   -0.1558   20.1152   69.5871 C   0  0  0  0  0
    0.6727   19.0368   68.8892 C   0  0  0  0  0
    2.1765   19.1103   69.1912 C   0  0  0  0  0
    4.1192   20.6836   68.7540 C   0  0  0  0  0
    5.1555   19.6765   69.0860 C   0  0  0  0  0
    6.3563   19.7375   68.3600 C   0  0  0  0  0
    7.4179   18.8793   68.6459 C   0  0  0  0  0
    7.3024   17.9537   69.6797 C   0  0  0  0  0
    6.1238   17.8847   70.4220 C   0  0  0  0  0
    5.0385   18.7212   70.1342 C   0  0  0  0  0
    2.5303   18.8195   70.6167 C   0  0  0  0  0
   -0.2122   23.8449   66.9157 C   0  0  0  0  0
   -1.5618   24.4189   63.6584 C   0  0  0  0  0
   -0.7357   21.4444   67.5180 N   0  0  0  0  0
    2.7214   20.3984   68.8074 N   0  0  0  0  0
    3.8917   18.6080   70.9877 N   0  0  0  0  0
   -0.4605   24.6218   65.8368 N   0  0  0  0  0
   -1.1273   23.9039   64.9458 N   0  0  0  0  0
    0.3946   22.4128   69.3295 O   0  0  0  0  0
    4.4795   21.8238   68.3566 O   0  0  0  0  0
    1.6367   18.7283   71.5004 O   0  0  0  0  0
  1  2  1  0  0  0
  3 18  1  0  0  0
  3 16  1  0  0  0
  5  4  1  0  0  0
  5  6  1  0  0  0
  7  6  1  0  0  0
  7 19  1  0  0  0
  7 15  1  0  0  0
  8  9  1  0  0  0
 10 11  1  0  0  0
 12 13  1  0  0  0
 14 20  1  0  0  0
 14  9  1  0  0  0
 17 22  1  0  0  0
 18  4  1  0  0  0
 19  8  1  0  0  0
 20 15  1  0  0  0
 22 21  1  0  0  0
 22  2  1  0  0  0
  2  3  2  0  0  0
  4 23  2  0  0  0
  8 24  2  0  0  0
  9 10  2  0  0  0
 11 12  2  0  0  0
 13 14  2  0  0  0
 15 25  2  0  0  0
 16 21  2  0  0  0
M  END
> <rmsd>
0.850456953

$$$$
Molport-047-047-302 643568843 MCULE-8111116866 PubChem-133078792


 35 37  0  0  0  0  0  0  0  0999 V2000
   -8.9746   19.4105   70.6233 C   0  0  0  0  0
   -7.5424   18.9590   70.3970 C   0  0  0  0  0
   -5.7847   19.2562   68.8773 C   0  0  0  0  0
   -4.9792   20.2535   68.0458 C   0  0  0  0  0
   -5.3917   21.9390   69.8485 C   0  0  0  0  0
   -6.1740   20.8588   70.5892 C   0  0  0  0  0
   -3.0973   21.7290   68.8546 C   0  0  0  0  0
   -2.1617   21.1430   67.8308 C   0  0  0  0  0
   -1.0812   20.2467   68.4579 C   0  0  0  0  0
    0.0634   20.9991   69.0706 C   0  0  0  0  0
    2.5239   21.6122   69.0407 C   0  0  0  0  0
    3.7245   21.5071   68.1223 C   0  0  0  0  0
    2.3892   22.1332   66.0410 C   0  0  0  0  0
    1.9675   23.5502   66.3796 C   0  0  0  0  0
   -0.2122   24.3791   65.5242 C   0  0  0  0  0
    0.3922   25.3969   64.7690 C   0  0  0  0  0
   -0.3662   26.1832   63.9007 C   0  0  0  0  0
   -1.7368   25.9596   63.7770 C   0  0  0  0  0
   -2.3496   24.9450   64.5171 C   0  0  0  0  0
   -1.6025   24.1445   65.3958 C   0  0  0  0  0
   -2.2937   23.0617   66.1402 C   0  0  0  0  0
    2.8361   21.2772   70.5081 C   0  0  0  0  0
    3.1909   19.8384   70.7279 C   0  0  0  0  0
   -6.8232   19.9623   69.6293 N   0  0  0  0  0
   -4.4627   21.2999   68.9223 N   0  0  0  0  0
    1.3846   20.8413   68.5415 N   0  0  0  0  0
    3.6274   21.7912   66.7222 N   0  0  0  0  0
   -1.5603   22.1856   67.0062 N   0  0  0  0  0
    4.4908   19.4966   71.1930 N   0  0  0  0  0
   -2.6865   22.6314   69.6330 O   0  0  0  0  0
   -0.1357   21.7451   70.0665 O   0  0  0  0  0
    4.8615   21.2403   68.5985 O   0  0  0  0  0
    0.5506   23.5951   66.3934 O   0  0  0  0  0
   -3.5364   22.8977   65.9959 O   0  0  0  0  0
    2.3381   18.9328   70.5374 O   0  0  0  0  0
  1  2  1  0  0  0
  2 24  1  0  0  0
  3 24  1  0  0  0
  3  4  1  0  0  0
  4 25  1  0  0  0
  5 25  1  0  0  0
  5  6  1  0  0  0
  6 24  1  0  0  0
  8  7  1  0  0  0
  8  9  1  0  0  0
  8 28  1  0  0  0
  9 10  1  0  0  0
 10 26  1  0  0  0
 11 26  1  0  0  0
 11 12  1  0  0  0
 11 22  1  0  0  0
 12 27  1  0  0  0
 13 27  1  0  0  0
 13 14  1  0  0  0
 14 33  1  0  0  0
 15 33  1  0  0  0
 16 17  1  0  0  0
 18 19  1  0  0  0
 20 21  1  0  0  0
 20 15  1  0  0  0
 21 28  1  0  0  0
 22 23  1  0  0  0
 23 29  1  0  0  0
 25  7  1  0  0  0
  7 30  2  0  0  0
 10 31  2  0  0  0
 12 32  2  0  0  0
 15 16  2  0  0  0
 17 18  2  0  0  0
 19 20  2  0  0  0
 21 34  2  0  0  0
 23 35  2  0  0  0
M  END
> <rmsd>
0.739931405

$$$$
MolPort-045-938-320 MCULE-1590407555 PubChem-131952268 ZINC000952967957


 37 39  0  0  0  0  0  0  0  0999 V2000
    4.4580   21.9640   75.0424 C   0  0  0  0  0
    5.0745   21.0935   73.9687 C   0  0  0  0  0
    6.5681   20.9949   74.2101 C   0  0  0  0  0
    4.8042   21.7145   72.6041 C   0  0  0  0  0
    4.7041   20.6758   71.4864 C   0  0  0  0  0
    2.7309   19.2608   70.7486 C   0  0  0  0  0
    2.8025   19.7947   69.3459 C   0  0  0  0  0
    3.7955   18.9784   68.5430 C   0  0  0  0  0
    0.4083   20.5926   69.0483 C   0  0  0  0  0
   -0.8797   20.4834   68.3065 C   0  0  0  0  0
   -0.7419   21.1030   66.9272 C   0  0  0  0  0
   -0.4656   23.4291   65.9561 C   0  0  0  0  0
    0.3872   22.9719   64.8399 C   0  0  0  0  0
    1.5936   22.2482   65.0350 C   0  0  0  0  0
    2.1234   22.9665   67.3521 C   0  0  0  0  0
    3.3759   23.8233   67.3258 C   0  0  0  0  0
    5.1002   23.2428   69.0200 C   0  0  0  0  0
    6.0963   22.2899   69.0533 C   0  0  0  0  0
    7.0547   22.0783   70.1759 C   0  0  0  0  0
    6.0123   19.9847   71.2018 C   0  0  0  0  0
    2.2772   21.7443   63.9226 C   0  0  0  0  0
    1.8155   21.9921   62.6292 C   0  0  0  0  0
    0.6602   22.7487   62.4349 C   0  0  0  0  0
   -0.0525   23.2290   63.5344 C   0  0  0  0  0
    3.6359   19.7195   71.7554 N   0  0  0  0  0
    1.4997   19.7400   68.6937 N   0  0  0  0  0
   -0.8525   22.5512   67.0183 N   0  0  0  0  0
    4.5066   23.0622   67.8284 N   0  0  0  0  0
    7.0942   20.6745   70.5661 N   0  0  0  0  0
    6.0902   21.5854   67.9045 N   0  0  0  0  0
    5.1028   22.0787   67.1750 N   0  0  0  0  0
    1.8966   18.3626   71.0398 O   0  0  0  0  0
    0.5369   21.4580   69.9545 O   0  0  0  0  0
   -0.8796   24.6183   65.9677 O   0  0  0  0  0
    2.1524   22.0130   66.2973 O   0  0  0  0  0
    6.1689   18.7776   71.5271 O   0  0  0  0  0
    0.0884   23.0723   60.8129 Cl  0  0  0  0  0
  1  2  1  0  0  0
  2  3  1  0  0  0
  2  4  1  0  0  0
  5  4  1  0  0  0
  5 25  1  0  0  0
  5 20  1  0  0  0
  7  6  1  0  0  0
  7  8  1  0  0  0
  7 26  1  0  0  0
 10  9  1  0  0  0
 10 11  1  0  0  0
 11 27  1  0  0  0
 12 13  1  0  0  0
 14 35  1  0  0  0
 14 21  1  0  0  0
 15 35  1  0  0  0
 15 16  1  0  0  0
 16 28  1  0  0  0
 18 30  1  0  0  0
 19 18  1  0  0  0
 19 29  1  0  0  0
 22 23  1  0  0  0
 23 37  1  0  0  0
 24 13  1  0  0  0
 25  6  1  0  0  0
 26  9  1  0  0  0
 27 12  1  0  0  0
 28 17  1  0  0  0
 28 31  1  0  0  0
 29 20  1  0  0  0
  6 32  2  0  0  0
  9 33  2  0  0  0
 12 34  2  0  0  0
 13 14  2  0  0  0
 17 18  2  0  0  0
 20 36  2  0  0  0
 21 22  2  0  0  0
 23 24  2  0  0  0
 30 31  2  0  0  0
M  END
> <rmsd>
0.782534897

$$$$
Molport-047-047-290 643569133 MCULE-6271222603 PubChem-133080165


 33 34  0  0  0  0  0  0  0  0999 V2000
   -0.2204   26.2992   69.7288 C   0  0  0  0  0
   -0.0842   25.6970   68.3438 C   0  0  0  0  0
   -0.2193   24.1738   68.4095 C   0  0  0  0  0
   -0.4440   23.5336   67.0700 C   0  0  0  0  0
   -0.7520   21.3785   65.7825 C   0  0  0  0  0
   -1.0203   19.9154   66.0868 C   0  0  0  0  0
   -0.1205   18.1612   67.5981 C   0  0  0  0  0
   -0.9232   17.1673   67.0135 C   0  0  0  0  0
   -0.9654   15.8802   67.5510 C   0  0  0  0  0
   -0.2099   15.5731   68.6823 C   0  0  0  0  0
    0.5917   16.5519   69.2730 C   0  0  0  0  0
    0.6567   17.8476   68.7374 C   0  0  0  0  0
    1.5107   18.8527   69.4105 C   0  0  0  0  0
    2.7635   21.1024   69.2630 C   0  0  0  0  0
    2.0569   21.7761   70.4362 C   0  0  0  0  0
    0.8308   22.4840   69.9689 C   0  0  0  0  0
    4.1542   20.6721   69.6048 C   0  0  0  0  0
    5.7466   19.4609   71.1416 C   0  0  0  0  0
    5.7018   18.6827   72.4472 C   0  0  0  0  0
    5.3311   19.5876   73.6141 C   0  0  0  0  0
    5.8266   21.8448   73.9203 C   0  0  0  0  0
    6.8662   20.2372   75.2453 C   0  0  0  0  0
   -0.3435   24.2002   66.0030 O   0  0  0  0  0
   -0.1040   19.4578   67.0744 O   0  0  0  0  0
    1.8349   18.6842   70.6174 O   0  0  0  0  0
   -0.2993   22.1053   70.3768 O   0  0  0  0  0
    5.1039   21.0115   68.8494 O   0  0  0  0  0
    1.1436   26.0656   67.7895 O   0  0  0  0  0
   -0.7516   22.1412   67.0207 N   0  0  0  0  0
    1.9756   20.0070   68.6970 N   0  0  0  0  0
    0.9447   23.5732   69.0510 N   0  0  0  0  0
    4.4064   19.8869   70.7712 N   0  0  0  0  0
    6.4129   20.5168   73.8945 N   0  0  0  0  0
  2  1  1  0  0  0
  2  3  1  0  0  0
  2 28  1  0  0  0
  3  4  1  0  0  0
  3 31  1  0  0  0
  4 29  1  0  0  0
  5 29  1  0  0  0
  5  6  1  0  0  0
  6 24  1  0  0  0
  7 24  1  0  0  0
  8  9  1  0  0  0
 10 11  1  0  0  0
 12 13  1  0  0  0
 12  7  1  0  0  0
 13 30  1  0  0  0
 14 30  1  0  0  0
 14 15  1  0  0  0
 14 17  1  0  0  0
 15 16  1  0  0  0
 16 31  1  0  0  0
 17 32  1  0  0  0
 18 32  1  0  0  0
 18 19  1  0  0  0
 19 20  1  0  0  0
 20 33  1  0  0  0
 21 33  1  0  0  0
 22 33  1  0  0  0
  4 23  2  0  0  0
  7  8  2  0  0  0
  9 10  2  0  0  0
 11 12  2  0  0  0
 13 25  2  0  0  0
 16 26  2  0  0  0
 17 27  2  0  0  0
M  END
> <rmsd>
0.637990654

$$$$
Molport-047-047-286 643568816 MCULE-5187827477 PubChem-133079009


 38 40  0  0  0  0  0  0  0  0999 V2000
   -0.2726   26.2892   69.7356 C   0  0  0  0  0
   -0.1127   25.6897   68.3520 C   0  0  0  0  0
   -0.2350   24.1651   68.4151 C   0  0  0  0  0
   -0.4386   23.5249   67.0728 C   0  0  0  0  0
   -0.7637   21.3732   65.7861 C   0  0  0  0  0
   -1.0316   19.9105   66.0930 C   0  0  0  0  0
   -0.1291   18.1591   67.6060 C   0  0  0  0  0
   -0.9325   17.1644   67.0235 C   0  0  0  0  0
   -0.9687   15.8759   67.5582 C   0  0  0  0  0
   -0.2072   15.5683   68.6849 C   0  0  0  0  0
    0.5948   16.5476   69.2737 C   0  0  0  0  0
    0.6533   17.8450   68.7415 C   0  0  0  0  0
    1.5090   18.8496   69.4129 C   0  0  0  0  0
    2.7467   21.1081   69.2709 C   0  0  0  0  0
    2.0418   21.7750   70.4490 C   0  0  0  0  0
    0.8150   22.4836   69.9842 C   0  0  0  0  0
    4.1434   20.6877   69.6010 C   0  0  0  0  0
    5.7592   19.5102   71.1568 C   0  0  0  0  0
    6.3846   20.5914   72.0235 C   0  0  0  0  0
    7.8996   22.2930   71.0566 C   0  0  0  0  0
    8.0415   23.4500   70.2837 C   0  0  0  0  0
    9.3072   24.0023   70.0644 C   0  0  0  0  0
   10.4449   23.4037   70.6150 C   0  0  0  0  0
   10.3051   22.2420   71.3917 C   0  0  0  0  0
    9.0400   21.6900   71.6110 C   0  0  0  0  0
   12.9022   23.4406   70.8977 C   0  0  0  0  0
   -0.2764   24.1794   66.0064 O   0  0  0  0  0
   -0.1176   19.4565   67.0842 O   0  0  0  0  0
    1.8443   18.6745   70.6159 O   0  0  0  0  0
   -0.3150   22.1032   70.3911 O   0  0  0  0  0
    5.0829   21.0360   68.8371 O   0  0  0  0  0
    6.6217   21.7638   71.2539 O   0  0  0  0  0
   11.6955   23.9802   70.3753 O   0  0  0  0  0
    1.1199   26.0698   67.8149 O   0  0  0  0  0
   -0.7838   22.1415   67.0206 N   0  0  0  0  0
    1.9623   20.0111   68.7035 N   0  0  0  0  0
    0.9283   23.5734   69.0670 N   0  0  0  0  0
    4.4116   19.8922   70.7596 N   0  0  0  0  0
  2  1  1  0  0  0
  2  3  1  0  0  0
  2 34  1  0  0  0
  3  4  1  0  0  0
  3 37  1  0  0  0
  4 35  1  0  0  0
  5 35  1  0  0  0
  5  6  1  0  0  0
  6 28  1  0  0  0
  7 28  1  0  0  0
  8  9  1  0  0  0
 10 11  1  0  0  0
 12 13  1  0  0  0
 12  7  1  0  0  0
 13 36  1  0  0  0
 14 36  1  0  0  0
 14 15  1  0  0  0
 14 17  1  0  0  0
 15 16  1  0  0  0
 16 37  1  0  0  0
 17 38  1  0  0  0
 18 38  1  0  0  0
 18 19  1  0  0  0
 19 32  1  0  0  0
 20 32  1  0  0  0
 21 22  1  0  0  0
 23 24  1  0  0  0
 23 33  1  0  0  0
 25 20  1  0  0  0
 26 33  1  0  0  0
  4 27  2  0  0  0
  7  8  2  0  0  0
  9 10  2  0  0  0
 11 12  2  0  0  0
 13 29  2  0  0  0
 16 30  2  0  0  0
 17 31  2  0  0  0
 20 21  2  0  0  0
 22 23  2  0  0  0
 24 25  2  0  0  0
M  END
> <rmsd>
0.633282006

$$$$
Molport-047-036-258 643559843 MCULE-7729637858 PubChem-133066166


 32 34  0  0  0  0  0  0  0  0999 V2000
    1.1965   27.5902   67.2686 C   0  0  0  0  0
    1.2705   26.1454   67.7248 C   0  0  0  0  0
   -0.0601   25.7088   68.3308 C   0  0  0  0  0
   -0.2308   26.3017   69.7193 C   0  0  0  0  0
   -0.1947   24.1824   68.3951 C   0  0  0  0  0
   -0.4347   23.5332   67.0618 C   0  0  0  0  0
   -0.7632   21.3722   65.7907 C   0  0  0  0  0
   -1.0362   19.9118   66.1044 C   0  0  0  0  0
   -0.1305   18.1572   67.6108 C   0  0  0  0  0
   -0.9389   17.1647   67.0318 C   0  0  0  0  0
   -0.9809   15.8780   67.5703 C   0  0  0  0  0
   -0.2200   15.5701   68.6977 C   0  0  0  0  0
    0.5868   16.5474   69.2829 C   0  0  0  0  0
    0.6512   17.8430   68.7468 C   0  0  0  0  0
    1.5093   18.8467   69.4162 C   0  0  0  0  0
    2.7595   21.0979   69.2665 C   0  0  0  0  0
    2.0542   21.7727   70.4396 C   0  0  0  0  0
    0.8353   22.4905   69.9684 C   0  0  0  0  0
    4.1521   20.6709   69.6053 C   0  0  0  0  0
    5.7480   19.4415   71.1353 C   0  0  0  0  0
    5.6802   18.6201   72.4061 C   0  0  0  0  0
    6.3787   19.7299   73.1652 C   0  0  0  0  0
    6.4501   20.5510   71.8943 C   0  0  0  0  0
   -0.3461   24.1922   65.9897 O   0  0  0  0  0
   -0.1138   19.4532   67.0856 O   0  0  0  0  0
    1.8380   18.6770   70.6217 O   0  0  0  0  0
   -0.2989   22.1263   70.3781 O   0  0  0  0  0
    5.1008   21.0278   68.8572 O   0  0  0  0  0
   -0.7451   22.1410   67.0249 N   0  0  0  0  0
    1.9712   20.0021   68.7022 N   0  0  0  0  0
    0.9614   23.5722   69.0433 N   0  0  0  0  0
    4.4077   19.8682   70.7606 N   0  0  0  0  0
  1  2  1  0  0  0
  3  2  1  0  0  0
  3  4  1  0  0  0
  3  5  1  0  0  0
  5  6  1  0  0  0
  5 31  1  0  0  0
  6 29  1  0  0  0
  7 29  1  0  0  0
  7  8  1  0  0  0
  8 25  1  0  0  0
  9 25  1  0  0  0
 10 11  1  0  0  0
 12 13  1  0  0  0
 14 15  1  0  0  0
 14  9  1  0  0  0
 15 30  1  0  0  0
 16 30  1  0  0  0
 16 17  1  0  0  0
 16 19  1  0  0  0
 17 18  1  0  0  0
 18 31  1  0  0  0
 19 32  1  0  0  0
 20 32  1  0  0  0
 20 21  1  0  0  0
 21 22  1  0  0  0
 22 23  1  0  0  0
 23 20  1  0  0  0
  6 24  2  0  0  0
  9 10  2  0  0  0
 11 12  2  0  0  0
 13 14  2  0  0  0
 15 26  2  0  0  0
 18 27  2  0  0  0
 19 28  2  0  0  0
M  END
> <rmsd>
0.638508976

$$$$
Molport-047-036-258 643559843 MCULE-7729637858 PubChem-133066166


 32 34  0  0  0  0  0  0  0  0999 V2000
   -1.1675   25.8067   70.8388 C   0  0  0  0  0
   -0.1143   26.2073   69.8149 C   0  0  0  0  0
   -0.3772   25.6002   68.4341 C   0  0  0  0  0
   -1.6780   26.1428   67.8569 C   0  0  0  0  0
   -0.3702   24.0637   68.4518 C   0  0  0  0  0
   -0.4652   23.4504   67.0867 C   0  0  0  0  0
   -0.7965   21.3346   65.7492 C   0  0  0  0  0
   -1.0277   19.8656   66.0516 C   0  0  0  0  0
   -0.1186   18.1530   67.6053 C   0  0  0  0  0
   -0.8982   17.1373   67.0261 C   0  0  0  0  0
   -0.9171   15.8544   67.5747 C   0  0  0  0  0
   -0.1609   15.5723   68.7118 C   0  0  0  0  0
    0.6185   16.5722   69.2966 C   0  0  0  0  0
    0.6595   17.8648   68.7510 C   0  0  0  0  0
    1.4934   18.8901   69.4187 C   0  0  0  0  0
    2.7286   21.1490   69.2566 C   0  0  0  0  0
    2.0485   21.8055   70.4555 C   0  0  0  0  0
    0.7855   22.4746   70.0318 C   0  0  0  0  0
    4.1313   20.7282   69.5575 C   0  0  0  0  0
    5.7556   19.4126   70.9845 C   0  0  0  0  0
    6.0972   18.2265   70.1028 C   0  0  0  0  0
    6.0403   17.3110   71.3078 C   0  0  0  0  0
    5.7040   18.4964   72.1896 C   0  0  0  0  0
   -0.0531   24.0706   66.0682 O   0  0  0  0  0
   -0.1282   19.4456   67.0714 O   0  0  0  0  0
    1.8175   18.7346   70.6273 O   0  0  0  0  0
   -0.3172   22.0622   70.4807 O   0  0  0  0  0
    5.0639   21.1232   68.8082 O   0  0  0  0  0
   -0.9313   22.1073   66.9734 N   0  0  0  0  0
    1.9368   20.0506   68.7009 N   0  0  0  0  0
    0.8319   23.5585   69.1017 N   0  0  0  0  0
    4.4137   19.8871   70.6791 N   0  0  0  0  0
  1  2  1  0  0  0
  3  2  1  0  0  0
  3  4  1  0  0  0
  3  5  1  0  0  0
  5  6  1  0  0  0
  5 31  1  0  0  0
  6 29  1  0  0  0
  7 29  1  0  0  0
  7  8  1  0  0  0
  8 25  1  0  0  0
  9 25  1  0  0  0
 10 11  1  0  0  0
 12 13  1  0  0  0
 14 15  1  0  0  0
 14  9  1  0  0  0
 15 30  1  0  0  0
 16 30  1  0  0  0
 16 17  1  0  0  0
 16 19  1  0  0  0
 17 18  1  0  0  0
 18 31  1  0  0  0
 19 32  1  0  0  0
 20 32  1  0  0  0
 20 21  1  0  0  0
 21 22  1  0  0  0
 22 23  1  0  0  0
 23 20  1  0  0  0
  6 24  2  0  0  0
  9 10  2  0  0  0
 11 12  2  0  0  0
 13 14  2  0  0  0
 15 26  2  0  0  0
 18 27  2  0  0  0
 19 28  2  0  0  0
M  END
> <rmsd>
0.635998309

$$$$
MolPort-047-044-738 643566608 MCULE-7826005304 PubChem-133075338


 33 34  0  0  0  0  0  0  0  0999 V2000
    0.5190   21.2370   64.1382 C   0  0  0  0  0
   -0.3021   21.2305   65.4154 C   0  0  0  0  0
    0.4790   21.8618   66.5689 C   0  0  0  0  0
    0.7013   23.3302   66.3212 C   0  0  0  0  0
    3.0968   22.9506   65.5703 C   0  0  0  0  0
    3.8625   22.6866   66.8493 C   0  0  0  0  0
    4.8825   21.5931   66.6119 C   0  0  0  0  0
    5.7098   20.0353   68.3782 C   0  0  0  0  0
    6.8578   19.7955   69.1426 C   0  0  0  0  0
    7.1135   18.5316   69.6759 C   0  0  0  0  0
    6.2167   17.4877   69.4548 C   0  0  0  0  0
    5.0522   17.7144   68.7208 C   0  0  0  0  0
    4.7742   18.9815   68.1912 C   0  0  0  0  0
    3.4701   19.1648   67.5314 C   0  0  0  0  0
    2.6554   20.8208   69.2869 C   0  0  0  0  0
    1.7834   22.0802   69.3121 C   0  0  0  0  0
    0.3220   21.8073   69.1207 C   0  0  0  0  0
    2.4189   19.9302   70.4666 C   0  0  0  0  0
    3.2672   18.9647   72.6326 C   0  0  0  0  0
    4.5018   19.0437   73.5103 C   0  0  0  0  0
    5.6440   18.2726   72.8780 C   0  0  0  0  0
    7.6921   17.4906   73.1115 C   0  0  0  0  0
   -0.2439   24.1445   66.4966 O   0  0  0  0  0
    5.5749   21.3155   67.8213 O   0  0  0  0  0
    3.1814   18.4600   66.5289 O   0  0  0  0  0
   -0.4221   21.7264   70.1320 O   0  0  0  0  0
    1.3398   19.2861   70.5745 O   0  0  0  0  0
    6.7746   18.3679   73.6874 O   0  0  0  0  0
   -0.6328   19.9106   65.7268 O   0  0  0  0  0
    1.9589   23.8162   65.8416 N   0  0  0  0  0
    2.5001   20.0890   68.0346 N   0  0  0  0  0
   -0.2529   21.6677   67.8181 N   0  0  0  0  0
    3.4364   19.8070   71.4592 N   0  0  0  0  0
  2  1  1  0  0  0
  2  3  1  0  0  0
  2 29  1  0  0  0
  3  4  1  0  0  0
  3 32  1  0  0  0
  4 30  1  0  0  0
  5 30  1  0  0  0
  5  6  1  0  0  0
  6  7  1  0  0  0
  7 24  1  0  0  0
  8 24  1  0  0  0
  9 10  1  0  0  0
 11 12  1  0  0  0
 13 14  1  0  0  0
 13  8  1  0  0  0
 14 31  1  0  0  0
 15 31  1  0  0  0
 15 16  1  0  0  0
 15 18  1  0  0  0
 16 17  1  0  0  0
 17 32  1  0  0  0
 18 33  1  0  0  0
 19 33  1  0  0  0
 19 20  1  0  0  0
 20 21  1  0  0  0
 21 28  1  0  0  0
 22 28  1  0  0  0
  4 23  2  0  0  0
  8  9  2  0  0  0
 10 11  2  0  0  0
 12 13  2  0  0  0
 14 25  2  0  0  0
 17 26  2  0  0  0
 18 27  2  0  0  0
M  END
> <rmsd>
0.69678539

$$$$
MolPort-047-044-738 643566608 MCULE-7826005304 PubChem-133075338


 33 34  0  0  0  0  0  0  0  0999 V2000
    0.5293   21.2783   64.1179 C   0  0  0  0  0
   -0.3026   21.2629   65.3881 C   0  0  0  0  0
    0.4746   21.8714   66.5563 C   0  0  0  0  0
    0.7127   23.3409   66.3294 C   0  0  0  0  0
    3.1118   22.9487   65.5963 C   0  0  0  0  0
    3.8764   22.6835   66.8757 C   0  0  0  0  0
    4.8876   21.5806   66.6423 C   0  0  0  0  0
    5.6784   20.0103   68.4160 C   0  0  0  0  0
    6.8061   19.7599   69.2066 C   0  0  0  0  0
    7.0365   18.4943   69.7482 C   0  0  0  0  0
    6.1355   17.4587   69.5061 C   0  0  0  0  0
    4.9907   17.6960   68.7451 C   0  0  0  0  0
    4.7366   18.9657   68.2095 C   0  0  0  0  0
    3.4421   19.1652   67.5357 C   0  0  0  0  0
    2.6348   20.8363   69.2812 C   0  0  0  0  0
    1.7483   22.0850   69.3140 C   0  0  0  0  0
    0.2920   21.7982   69.1065 C   0  0  0  0  0
    2.4313   19.9466   70.4671 C   0  0  0  0  0
    3.4062   18.8994   72.5534 C   0  0  0  0  0
    3.5611   17.4622   72.0873 C   0  0  0  0  0
    3.4501   16.5137   73.2662 C   0  0  0  0  0
    2.1729   15.6269   74.8311 C   0  0  0  0  0
   -0.2264   24.1616   66.5069 O   0  0  0  0  0
    5.5678   21.2920   67.8563 O   0  0  0  0  0
    3.1559   18.4654   66.5289 O   0  0  0  0  0
   -0.4608   21.7008   70.1099 O   0  0  0  0  0
    1.3489   19.3163   70.6151 O   0  0  0  0  0
    2.1348   16.4821   73.7308 O   0  0  0  0  0
   -0.6485   19.9422   65.6792 O   0  0  0  0  0
    1.9786   23.8212   65.8661 N   0  0  0  0  0
    2.4764   20.0972   68.0331 N   0  0  0  0  0
   -0.2693   21.6669   67.7969 N   0  0  0  0  0
    3.4894   19.8026   71.4161 N   0  0  0  0  0
  2  1  1  0  0  0
  2  3  1  0  0  0
  2 29  1  0  0  0
  3  4  1  0  0  0
  3 32  1  0  0  0
  4 30  1  0  0  0
  5 30  1  0  0  0
  5  6  1  0  0  0
  6  7  1  0  0  0
  7 24  1  0  0  0
  8 24  1  0  0  0
  9 10  1  0  0  0
 11 12  1  0  0  0
 13 14  1  0  0  0
 13  8  1  0  0  0
 14 31  1  0  0  0
 15 31  1  0  0  0
 15 16  1  0  0  0
 15 18  1  0  0  0
 16 17  1  0  0  0
 17 32  1  0  0  0
 18 33  1  0  0  0
 19 33  1  0  0  0
 19 20  1  0  0  0
 20 21  1  0  0  0
 21 28  1  0  0  0
 22 28  1  0  0  0
  4 23  2  0  0  0
  8  9  2  0  0  0
 10 11  2  0  0  0
 12 13  2  0  0  0
 14 25  2  0  0  0
 17 26  2  0  0  0
 18 27  2  0  0  0
M  END
> <rmsd>
0.684720993

$$$$
Molport-047-040-606 643562565 MCULE-6696420680 PubChem-133067606


 36 38  0  0  0  0  0  0  0  0999 V2000
    8.6599   20.0115   69.1920 C   0  0  0  0  0
    8.6801   18.7793   70.0342 C   0  0  0  0  0
    9.3998   17.1402   71.1961 C   0  0  0  0  0
    8.0148   17.0867   71.1855 C   0  0  0  0  0
    6.1931   18.4697   70.1907 C   0  0  0  0  0
    5.7436   19.5626   71.1467 C   0  0  0  0  0
    4.1016   20.7201   69.6000 C   0  0  0  0  0
    2.6968   21.1182   69.2757 C   0  0  0  0  0
    1.9692   21.7383   70.4643 C   0  0  0  0  0
    0.7555   22.4655   69.9948 C   0  0  0  0  0
   -0.2336   24.2187   68.4652 C   0  0  0  0  0
   -0.4003   23.5469   67.1325 C   0  0  0  0  0
   -0.8516   21.4072   65.8667 C   0  0  0  0  0
   -1.1347   19.9496   66.1867 C   0  0  0  0  0
   -0.1688   18.1663   67.6188 C   0  0  0  0  0
   -0.9877   17.1804   67.0425 C   0  0  0  0  0
   -1.0080   15.8828   67.5555 C   0  0  0  0  0
   -0.2129   15.5564   68.6528 C   0  0  0  0  0
    0.6080   16.5253   69.2328 C   0  0  0  0  0
    0.6495   17.8325   68.7229 C   0  0  0  0  0
    1.5260   18.8249   69.3849 C   0  0  0  0  0
   -0.0193   25.7291   68.3239 C   0  0  0  0  0
   -0.3692   26.5141   69.5891 C   0  0  0  0  0
    0.5763   26.2030   70.7348 C   0  0  0  0  0
   -1.8122   26.2904   70.0108 C   0  0  0  0  0
    9.8148   18.2055   70.4729 N   0  0  0  0  0
    7.5824   18.1223   70.4468 N   0  0  0  0  0
    4.3997   20.0068   70.8051 N   0  0  0  0  0
    0.8963   23.6204   69.1643 N   0  0  0  0  0
   -0.8182   22.1824   67.0976 N   0  0  0  0  0
    1.9382   20.0120   68.6919 N   0  0  0  0  0
    5.0195   21.0053   68.7867 O   0  0  0  0  0
   -0.3869   22.0504   70.3268 O   0  0  0  0  0
   -0.1396   24.1574   66.0584 O   0  0  0  0  0
   -0.1744   19.4728   67.1211 O   0  0  0  0  0
    1.9129   18.6201   70.5674 O   0  0  0  0  0
  1  2  1  0  0  0
  3 26  1  0  0  0
  4 27  1  0  0  0
  5 27  1  0  0  0
  5  6  1  0  0  0
  6 28  1  0  0  0
  8  7  1  0  0  0
  8  9  1  0  0  0
  8 31  1  0  0  0
  9 10  1  0  0  0
 10 29  1  0  0  0
 11 29  1  0  0  0
 11 12  1  0  0  0
 11 22  1  0  0  0
 12 30  1  0  0  0
 13 30  1  0  0  0
 13 14  1  0  0  0
 14 35  1  0  0  0
 15 35  1  0  0  0
 16 17  1  0  0  0
 18 19  1  0  0  0
 20 21  1  0  0  0
 20 15  1  0  0  0
 21 31  1  0  0  0
 22 23  1  0  0  0
 23 24  1  0  0  0
 23 25  1  0  0  0
 27  2  1  0  0  0
 28  7  1  0  0  0
  2 26  2  0  0  0
  3  4  2  0  0  0
  7 32  2  0  0  0
 10 33  2  0  0  0
 12 34  2  0  0  0
 15 16  2  0  0  0
 17 18  2  0  0  0
 19 20  2  0  0  0
 21 36  2  0  0  0
M  END
> <rmsd>
0.62160182

$$$$
MolPort-020-197-763 CSSS00160038722 MCULE-3264237805 PubChem-56890904


 26 27  0  0  0  0  0  0  0  0999 V2000
    5.4892   20.6949   68.4436 O   0  0  0  0  0
    4.4373   20.1190   71.5648 O   0  0  0  0  0
    1.5026   18.7474   70.3409 O   0  0  0  0  0
    3.5421   22.6536   68.3750 O   0  0  0  0  0
   -0.2198   21.7705   69.3446 O   0  0  0  0  0
    4.7505   19.5445   68.7263 C   0  0  0  0  0
    3.4087   19.8752   69.3869 C   0  0  0  0  0
    3.5991   20.7445   70.6379 C   0  0  0  0  0
    2.7680   18.5473   69.7827 C   0  0  0  0  0
    2.6494   21.8809   67.9364 C   0  0  0  0  0
    1.6763   22.3820   66.9257 C   0  0  0  0  0
    0.5650   23.2078   67.5939 C   0  0  0  0  0
    0.8579   24.9893   66.0012 C   0  0  0  0  0
    0.2756   26.3471   65.7799 C   0  0  0  0  0
    0.0727   26.8297   64.4781 C   0  0  0  0  0
   -0.4663   28.1053   64.2829 C   0  0  0  0  0
   -0.7997   28.9022   65.3819 C   0  0  0  0  0
   -0.5940   28.4252   66.6794 C   0  0  0  0  0
   -0.0559   27.1505   66.8781 C   0  0  0  0  0
   -0.8229   23.3500   65.6358 C   0  0  0  0  0
   -2.0241   22.6370   66.2611 C   0  0  0  0  0
   -0.4500   22.2997   68.2260 C   0  0  0  0  0
    2.5226   20.5409   68.4286 N   0  0  0  0  0
   -0.1148   24.1214   66.6578 N   0  0  0  0  0
   -1.6893   22.0447   67.5571 N   0  0  0  0  0
    0.3913   26.0686   63.4015 F   0  0  0  0  0
  6  1  1  0  0  0
  6  7  1  0  0  0
  7  8  1  0  0  0
  7  9  1  0  0  0
  7 23  1  0  0  0
  8  2  1  0  0  0
  9  3  1  0  0  0
 11 10  1  0  0  0
 12 11  1  0  0  0
 12 24  1  0  0  0
 12 22  1  0  0  0
 13 24  1  0  0  0
 13 14  1  0  0  0
 15 26  1  0  0  0
 15 16  1  0  0  0
 17 18  1  0  0  0
 19 14  1  0  0  0
 20 24  1  0  0  0
 20 21  1  0  0  0
 21 25  1  0  0  0
 23 10  1  0  0  0
 25 22  1  0  0  0
 10  4  2  0  0  0
 14 15  2  0  0  0
 16 17  2  0  0  0
 18 19  2  0  0  0
 22  5  2  0  0  0
M  END
> <rmsd>
0.69169265

$$$$
MolPort-002-772-115 18218156 CSC026720318 CSSS00026720318 MCULE-6185915712 PubChem-135536172 Z56889684 ZINC000018218156 ZINC18218156


 26 28  0  0  0  0  0  0  0  0999 V2000
    2.8166   30.4969   64.5336 C   0  0  0  0  0
    2.0568   28.3834   65.5699 C   0  0  0  0  0
    2.1802   27.4682   66.6193 C   0  0  0  0  0
    1.3775   26.3246   66.6570 C   0  0  0  0  0
    0.4393   26.0807   65.6438 C   0  0  0  0  0
    0.3166   26.9995   64.5909 C   0  0  0  0  0
    1.1190   28.1430   64.5532 C   0  0  0  0  0
   -0.4042   24.8709   65.6925 C   0  0  0  0  0
   -1.3574   24.5674   64.7127 C   0  0  0  0  0
   -1.1608   22.9431   66.5543 C   0  0  0  0  0
   -0.5054   21.6868   68.6575 C   0  0  0  0  0
   -0.6725   20.4598   69.4843 C   0  0  0  0  0
    1.7591   19.4976   69.2343 C   0  0  0  0  0
    3.4536   19.4070   70.8789 C   0  0  0  0  0
    4.2758   20.2108   70.0902 C   0  0  0  0  0
    3.7919   20.6424   68.8560 C   0  0  0  0  0
    2.8737   29.5172   65.5615 O   0  0  0  0  0
    0.3218   22.5665   69.0168 O   0  0  0  0  0
    4.5072   21.3686   68.1186 O   0  0  0  0  0
   -2.0761   23.1111   65.1643 S   0  0  0  0  0
    0.1235   19.0354   68.6772 S   0  0  0  0  0
   -1.2719   21.8401   67.4584 N   0  0  0  0  0
    2.2143   19.0647   70.4395 N   0  0  0  0  0
    3.9114   18.9467   72.1444 N   0  0  0  0  0
    2.5477   20.2789   68.4498 N   0  0  0  0  0
   -0.2994   23.9685   66.7082 N   0  0  0  0  0
  1 17  1  0  0  0
  2 17  1  0  0  0
  3  4  1  0  0  0
  5  6  1  0  0  0
  5  8  1  0  0  0
  7  2  1  0  0  0
  8 26  1  0  0  0
  9 20  1  0  0  0
 10 20  1  0  0  0
 10 22  1  0  0  0
 12 11  1  0  0  0
 12 21  1  0  0  0
 13 21  1  0  0  0
 14 23  1  0  0  0
 14 24  1  0  0  0
 15 16  1  0  0  0
 16 25  1  0  0  0
 22 11  1  0  0  0
 25 13  1  0  0  0
  2  3  2  0  0  0
  4  5  2  0  0  0
  6  7  2  0  0  0
  8  9  2  0  0  0
 10 26  2  0  0  0
 11 18  2  0  0  0
 13 23  2  0  0  0
 14 15  2  0  0  0
 16 19  2  0  0  0
M  END
> <rmsd>
0.793439686

$$$$
