PubChem-145273972


 28 30  0  0  0  0  0  0  0  0999 V2000
    4.4768   20.0373   69.3774 B   0  0  0  0  0
    3.2762   19.6526   68.3954 C   0  0  0  0  0
    3.7443   19.9174   66.9598 C   0  0  0  0  0
    4.3138   21.3045   66.7755 C   0  0  0  0  0
    5.1064   21.8976   67.7918 C   0  0  0  0  0
    5.6927   23.1659   67.5667 C   0  0  0  0  0
    5.4512   23.8242   66.3506 C   0  0  0  0  0
    4.6501   23.2432   65.3646 C   0  0  0  0  0
    4.0857   21.9830   65.5751 C   0  0  0  0  0
    6.5442   23.8394   68.5757 C   0  0  0  0  0
    1.2049   20.2632   69.7519 C   0  0  0  0  0
    0.1592   21.2846   70.0809 C   0  0  0  0  0
    0.7776   23.2397   68.6505 C   0  0  0  0  0
    0.7951   23.9659   67.5224 C   0  0  0  0  0
    1.7795   25.0589   67.3744 C   0  0  0  0  0
    2.7118   25.3999   68.3569 C   0  0  0  0  0
    2.8343   26.8249   66.2448 C   0  0  0  0  0
    1.8490   25.8447   66.2121 C   0  0  0  0  0
    5.2883   21.2376   69.0196 O   0  0  0  0  0
    6.8083   23.2875   69.6794 O   0  0  0  0  0
    7.0722   25.0988   68.3112 O   0  0  0  0  0
    1.3218   19.2442   70.4854 O   0  0  0  0  0
    4.6065   19.4168   70.6969 O   0  0  0  0  0
    2.1221   20.4940   68.6784 N   0  0  0  0  0
   -0.1163   22.1409   68.9289 N   0  0  0  0  0
   -0.0989   23.6840   66.4393 N   0  0  0  0  0
   -1.1999   21.8193   68.0832 N   0  0  0  0  0
    3.5971   26.6848   67.7361 S   0  0  0  0  0
  1 23  1  0  0  0
  1 19  1  0  0  0
  2  1  1  0  0  0
  2  3  1  0  0  0
  2 24  1  0  0  0
  3  4  1  0  0  0
  5 19  1  0  0  0
  5  6  1  0  0  0
  6 10  1  0  0  0
  7  8  1  0  0  0
  9  4  1  0  0  0
 10 21  1  0  0  0
 12 11  1  0  0  0
 12 25  1  0  0  0
 14 15  1  0  0  0
 14 26  1  0  0  0
 16 28  1  0  0  0
 17 28  1  0  0  0
 18 15  1  0  0  0
 24 11  1  0  0  0
 25 13  1  0  0  0
 25 27  1  0  0  0
  4  5  2  0  0  0
  6  7  2  0  0  0
  8  9  2  0  0  0
 10 20  2  0  0  0
 11 22  2  0  0  0
 13 14  2  0  0  0
 15 16  2  0  0  0
 17 18  2  0  0  0
M  END
> <rmsd>
0.70862025

$$$$
PubChem-136272398 PubChem-136984005 CHEMBL4111327


 30 33  0  0  0  0  0  0  0  0999 V2000
    5.4851   23.2920   66.4120 C   0  0  0  0  0
    5.8769   22.0723   67.1647 C   0  0  0  0  0
    7.1093   21.4658   66.9183 C   0  0  0  0  0
    7.4580   20.3197   67.6328 C   0  0  0  0  0
    6.5764   19.7956   68.5791 C   0  0  0  0  0
    5.3452   20.4279   68.8062 C   0  0  0  0  0
    4.3816   19.8864   69.8023 C   0  0  0  0  0
    2.9916   19.9301   69.5665 C   0  0  0  0  0
    1.0550   20.5874   68.0591 C   0  0  0  0  0
    0.8551   20.8336   66.5731 C   0  0  0  0  0
    0.0722   22.1281   66.4207 C   0  0  0  0  0
    1.0032   23.2216   65.9222 C   0  0  0  0  0
   -0.4573   22.4751   67.7999 C   0  0  0  0  0
    0.5003   21.8052   68.7734 C   0  0  0  0  0
    2.5743   18.9002   71.6639 C   0  0  0  0  0
    4.8154   19.3249   71.0220 C   0  0  0  0  0
    0.2006   18.5362   72.4080 C   0  0  0  0  0
   -0.5140   17.2340   72.7564 C   0  0  0  0  0
   -0.1320   16.7876   74.1648 C   0  0  0  0  0
    1.3782   16.5900   74.2610 C   0  0  0  0  0
    2.0996   17.8900   73.9174 C   0  0  0  0  0
    5.0324   21.5466   68.0919 N   0  0  0  0  0
    2.4771   20.4525   68.3367 N   0  0  0  0  0
    2.1325   19.4351   70.4966 N   0  0  0  0  0
    3.9085   18.8486   71.9125 N   0  0  0  0  0
    1.6388   18.3856   72.6219 N   0  0  0  0  0
    0.2691   24.3655   65.6074 O   0  0  0  0  0
   -1.7471   21.9530   67.9333 O   0  0  0  0  0
   -0.1418   21.4342   69.9571 O   0  0  0  0  0
    6.0401   19.2728   71.3128 O   0  0  0  0  0
  1  2  1  0  0  0
  2 22  1  0  0  0
  3  4  1  0  0  0
  5  6  1  0  0  0
  6  7  1  0  0  0
  8 23  1  0  0  0
  8 24  1  0  0  0
  9 23  1  0  0  0
  9 10  1  0  0  0
 10 11  1  0  0  0
 11 12  1  0  0  0
 11 13  1  0  0  0
 12 27  1  0  0  0
 13 28  1  0  0  0
 13 14  1  0  0  0
 14 29  1  0  0  0
 14  9  1  0  0  0
 15 25  1  0  0  0
 15 26  1  0  0  0
 16  7  1  0  0  0
 17 26  1  0  0  0
 17 18  1  0  0  0
 18 19  1  0  0  0
 19 20  1  0  0  0
 20 21  1  0  0  0
 21 26  1  0  0  0
 25 16  1  0  0  0
  2  3  2  0  0  0
  4  5  2  0  0  0
  6 22  2  0  0  0
  7  8  2  0  0  0
 15 24  2  0  0  0
 16 30  2  0  0  0
M  END
> <rmsd>
0.724179268

$$$$
PubChem-24537080


 31 33  0  0  0  0  0  0  0  0999 V2000
   -6.2156   28.6683   67.3651 C   0  0  0  0  0
   -4.9382   28.0758   66.8905 C   0  0  0  0  0
   -3.7783   28.2070   67.6601 C   0  0  0  0  0
   -2.5763   27.6496   67.2135 C   0  0  0  0  0
   -2.5313   26.9622   65.9951 C   0  0  0  0  0
   -3.6947   26.8282   65.2286 C   0  0  0  0  0
   -4.8967   27.3857   65.6752 C   0  0  0  0  0
    0.3702   24.0910   65.6124 C   0  0  0  0  0
    0.5776   22.7068   66.1374 C   0  0  0  0  0
   -0.2191   20.7637   67.5592 C   0  0  0  0  0
    0.7167   20.8294   68.7164 C   0  0  0  0  0
    4.4340   20.4780   69.3897 C   0  0  0  0  0
    5.1699   19.8051   70.5089 C   0  0  0  0  0
    6.0370   18.6615   69.9696 C   0  0  0  0  0
    6.8565   18.0133   71.0844 C   0  0  0  0  0
    7.7171   19.0603   71.7835 C   0  0  0  0  0
    6.8317   20.1484   72.3813 C   0  0  0  0  0
    6.0119   20.8250   71.2837 C   0  0  0  0  0
    2.8617   19.6509   70.7395 C   0  0  0  0  0
   -1.0266   26.2505   65.4427 S   0  0  0  0  0
    0.1272   27.0933   65.9117 O   0  0  0  0  0
   -1.0169   26.2020   63.9397 O   0  0  0  0  0
    1.6270   22.0864   65.8206 O   0  0  0  0  0
    0.2874   21.1911   69.8437 O   0  0  0  0  0
    4.9840   21.0083   68.3872 O   0  0  0  0  0
    1.7448   19.2627   71.1704 O   0  0  0  0  0
   -0.8880   24.6493   66.0850 N   0  0  0  0  0
   -0.3996   22.0882   66.9816 N   0  0  0  0  0
    2.1056   20.5563   68.5164 N   0  0  0  0  0
    3.0281   20.4368   69.5692 N   0  0  0  0  0
    4.0920   19.2801   71.3505 N   0  0  0  0  0
  1  2  1  0  0  0
  3  4  1  0  0  0
  5  6  1  0  0  0
  7  2  1  0  0  0
  8 27  1  0  0  0
  8  9  1  0  0  0
  9 28  1  0  0  0
 10 28  1  0  0  0
 10 11  1  0  0  0
 11 29  1  0  0  0
 13 12  1  0  0  0
 13 14  1  0  0  0
 13 31  1  0  0  0
 14 15  1  0  0  0
 15 16  1  0  0  0
 16 17  1  0  0  0
 17 18  1  0  0  0
 18 13  1  0  0  0
 19 30  1  0  0  0
 20  5  1  0  0  0
 20 27  1  0  0  0
 29 30  1  0  0  0
 30 12  1  0  0  0
 31 19  1  0  0  0
  2  3  2  0  0  0
  4  5  2  0  0  0
  6  7  2  0  0  0
  9 23  2  0  0  0
 11 24  2  0  0  0
 12 25  2  0  0  0
 19 26  2  0  0  0
 20 21  2  0  0  0
 20 22  2  0  0  0
M  END
> <rmsd>
0.777265251

$$$$
PubChem-24562314


 30 31  0  0  0  0  0  0  0  0999 V2000
    6.7354   20.1799   72.3695 C   0  0  0  0  0
    6.0260   20.8286   71.1903 C   0  0  0  0  0
    5.1668   19.8308   70.4130 C   0  0  0  0  0
    4.3692   20.5413   69.3610 C   0  0  0  0  0
    2.8736   19.6097   70.7311 C   0  0  0  0  0
    0.6236   20.8137   68.8420 C   0  0  0  0  0
   -0.3643   20.7313   67.7300 C   0  0  0  0  0
    0.4504   22.4587   66.0398 C   0  0  0  0  0
    0.3578   23.7615   65.4887 C   0  0  0  0  0
    1.2937   24.1653   64.5291 C   0  0  0  0  0
    2.2976   23.2972   64.0969 C   0  0  0  0  0
    2.3790   22.0067   64.6219 C   0  0  0  0  0
    1.4617   21.5944   65.5899 C   0  0  0  0  0
    5.5504   22.2727   65.1828 C   0  0  0  0  0
    5.9740   20.0187   64.7550 C   0  0  0  0  0
   -1.8312   24.4461   66.6742 C   0  0  0  0  0
   -2.8805   23.7575   65.8221 C   0  0  0  0  0
    6.0127   18.7330   69.7831 C   0  0  0  0  0
    4.8651   21.1459   68.3722 O   0  0  0  0  0
    1.7839   19.1769   71.1903 O   0  0  0  0  0
    0.2387   21.1634   69.9895 O   0  0  0  0  0
    3.0841   19.5190   64.0072 O   0  0  0  0  0
    4.1251   21.3230   62.7247 O   0  0  0  0  0
    2.9724   20.4500   69.5914 N   0  0  0  0  0
    4.1376   19.2437   71.2744 N   0  0  0  0  0
    2.0079   20.5735   68.5780 N   0  0  0  0  0
   -0.4634   22.0172   67.0516 N   0  0  0  0  0
    4.9588   20.9453   65.2257 N   0  0  0  0  0
   -0.6429   24.7165   65.8771 N   0  0  0  0  0
    3.6457   20.9119   64.0911 S   0  0  0  0  0
  1  2  1  0  0  0
  3  2  1  0  0  0
  3  4  1  0  0  0
  3 18  1  0  0  0
  3 25  1  0  0  0
  4 24  1  0  0  0
  5 25  1  0  0  0
  7  6  1  0  0  0
  7 27  1  0  0  0
  9 10  1  0  0  0
  9 29  1  0  0  0
 11 12  1  0  0  0
 13  8  1  0  0  0
 14 28  1  0  0  0
 15 28  1  0  0  0
 16 29  1  0  0  0
 16 17  1  0  0  0
 24  5  1  0  0  0
 24 26  1  0  0  0
 26  6  1  0  0  0
 27  8  1  0  0  0
 30 12  1  0  0  0
 30 28  1  0  0  0
  4 19  2  0  0  0
  5 20  2  0  0  0
  6 21  2  0  0  0
  8  9  2  0  0  0
 10 11  2  0  0  0
 12 13  2  0  0  0
 30 22  2  0  0  0
 30 23  2  0  0  0
M  END
> <rmsd>
0.732815504

$$$$
PubChem-91603688


 39 43  0  0  0  0  0  0  0  0999 V2000
   -1.4861   24.9351   68.1950 C   0  0  0  0  0
   -0.1724   24.3276   68.6629 C   0  0  0  0  0
    0.6732   23.6082   67.5873 C   0  0  0  0  0
   -0.0875   22.8145   68.6280 C   0  0  0  0  0
    2.0547   22.1774   68.9843 C   0  0  0  0  0
    2.1103   23.1389   67.7675 C   0  0  0  0  0
    3.0272   24.3465   67.9254 C   0  0  0  0  0
    3.8771   24.6533   69.1118 C   0  0  0  0  0
    3.6822   24.0478   70.3624 C   0  0  0  0  0
    4.4954   24.3705   71.4519 C   0  0  0  0  0
    5.5168   25.3109   71.3054 C   0  0  0  0  0
    5.7208   25.9292   70.0706 C   0  0  0  0  0
    4.9041   25.6037   68.9839 C   0  0  0  0  0
    2.5756   20.7235   68.7961 C   0  0  0  0  0
    4.0443   20.6737   68.3956 C   0  0  0  0  0
    4.6941   19.4198   67.9382 C   0  0  0  0  0
    6.0315   19.4423   67.5129 C   0  0  0  0  0
    6.6616   18.2708   67.0833 C   0  0  0  0  0
    5.9609   17.0626   67.0767 C   0  0  0  0  0
    4.6306   17.0262   67.4994 C   0  0  0  0  0
    4.0016   18.1987   67.9277 C   0  0  0  0  0
    2.4162   19.9747   70.1046 C   0  0  0  0  0
    3.0885   20.4806   71.3526 C   0  0  0  0  0
    2.0944   20.9023   72.3902 C   0  0  0  0  0
    1.2918   19.9598   73.0511 C   0  0  0  0  0
    0.3645   20.3764   74.0107 C   0  0  0  0  0
    0.2335   21.7352   74.3115 C   0  0  0  0  0
    1.0293   22.6779   73.6536 C   0  0  0  0  0
    1.9580   22.2614   72.6955 C   0  0  0  0  0
    0.5590   25.0161   69.8033 C   0  0  0  0  0
    0.7586   22.1730   69.5453 O   0  0  0  0  0
    3.0899   25.1405   66.9454 O   0  0  0  0  0
    2.5086   22.4496   66.6147 O   0  0  0  0  0
    4.7507   21.7156   68.4880 O   0  0  0  0  0
    1.7486   18.9505   70.1514 O   0  0  0  0  0
    3.9594   19.5172   71.8656 O   0  0  0  0  0
    1.8037   20.1042   67.8045 O   0  0  0  0  0
   -1.1925   22.0923   68.1655 O   0  0  0  0  0
    0.1001   23.4798   66.3153 O   0  0  0  0  0
  1  2  1  0  0  0
  2  3  1  0  0  0
  2 30  1  0  0  0
  3  4  1  0  0  0
  3 39  1  0  0  0
  4 31  1  0  0  0
  4 38  1  0  0  0
  4  2  1  0  0  0
  5 31  1  0  0  0
  5  6  1  0  0  0
  5 14  1  0  0  0
  6  7  1  0  0  0
  6 33  1  0  0  0
  6  3  1  0  0  0
  7  8  1  0  0  0
  9 10  1  0  0  0
 11 12  1  0  0  0
 13  8  1  0  0  0
 14 15  1  0  0  0
 14 22  1  0  0  0
 14 37  1  0  0  0
 15 16  1  0  0  0
 17 18  1  0  0  0
 19 20  1  0  0  0
 21 16  1  0  0  0
 23 22  1  0  0  0
 23 24  1  0  0  0
 23 36  1  0  0  0
 25 26  1  0  0  0
 27 28  1  0  0  0
 29 24  1  0  0  0
  7 32  2  0  0  0
  8  9  2  0  0  0
 10 11  2  0  0  0
 12 13  2  0  0  0
 15 34  2  0  0  0
 16 17  2  0  0  0
 18 19  2  0  0  0
 20 21  2  0  0  0
 22 35  2  0  0  0
 24 25  2  0  0  0
 26 27  2  0  0  0
 28 29  2  0  0  0
M  END
> <rmsd>
0.743309438

$$$$
PubChem-118190904


 23 22  0  0  0  0  0  0  0  0999 V2000
   -0.8846   18.9948   69.0230 C   0  0  0  0  0
   -0.0422   20.1607   69.5122 C   0  0  0  0  0
   -0.5783   21.4418   68.9705 C   0  0  0  0  0
   -1.1033   22.9170   66.9810 C   0  0  0  0  0
   -2.4759   22.6836   66.2928 C   0  0  0  0  0
   -2.3719   21.6898   65.1481 C   0  0  0  0  0
   -3.4612   22.1299   67.3065 C   0  0  0  0  0
    0.0045   23.6334   66.1629 C   0  0  0  0  0
    0.4658   22.7969   64.9813 C   0  0  0  0  0
    1.2057   23.8857   67.0569 C   0  0  0  0  0
    2.2135   19.0167   69.6725 C   0  0  0  0  0
    3.6152   18.8978   69.1818 C   0  0  0  0  0
    4.4883   19.9907   69.7800 C   0  0  0  0  0
    5.7770   20.0796   69.0366 C   0  0  0  0  0
   -1.0071   22.3187   69.7667 O   0  0  0  0  0
    1.8160   18.2765   70.6114 O   0  0  0  0  0
    6.0811   21.1450   68.4405 O   0  0  0  0  0
    6.6464   18.9957   69.0000 O   0  0  0  0  0
   -0.5944   21.6740   67.5597 N   0  0  0  0  0
   -3.0192   23.9319   65.7865 N   0  0  0  0  0
   -0.4625   24.9204   65.6780 N   0  0  0  0  0
    1.3428   19.9917   69.0947 N   0  0  0  0  0
    4.7502   19.7110   71.1823 N   0  0  0  0  0
  2  1  1  0  0  0
  2  3  1  0  0  0
  2 22  1  0  0  0
  3 19  1  0  0  0
  4 19  1  0  0  0
  4  5  1  0  0  0
  4  8  1  0  0  0
  5  6  1  0  0  0
  5  7  1  0  0  0
  5 20  1  0  0  0
  8  9  1  0  0  0
  8 10  1  0  0  0
  8 21  1  0  0  0
 12 11  1  0  0  0
 13 12  1  0  0  0
 13 14  1  0  0  0
 13 23  1  0  0  0
 14 18  1  0  0  0
 22 11  1  0  0  0
  3 15  2  0  0  0
 11 16  2  0  0  0
 14 17  2  0  0  0
M  END
> <rmsd>
0.729921103

$$$$
PubChem-102314854


 31 34  0  0  0  0  0  0  0  0999 V2000
   -0.9225   22.2221   65.5479 C   0  0  0  0  0
    0.3792   22.9555   65.2452 C   0  0  0  0  0
    1.6010   24.2156   67.0538 C   0  0  0  0  0
    1.5608   25.2029   68.0410 C   0  0  0  0  0
    2.6057   25.2920   68.9622 C   0  0  0  0  0
    3.6806   24.4053   68.8820 C   0  0  0  0  0
    3.6929   23.4382   67.8749 C   0  0  0  0  0
    4.8408   22.4967   67.7593 C   0  0  0  0  0
    5.7326   21.1497   69.4318 C   0  0  0  0  0
    5.6108   19.9250   70.3352 C   0  0  0  0  0
    3.9948   18.6367   71.3840 C   0  0  0  0  0
    2.5315   18.5889   71.8013 C   0  0  0  0  0
    1.3963   18.2349   69.7557 C   0  0  0  0  0
    2.3405   18.4174   68.5748 C   0  0  0  0  0
    3.2203   19.9336   66.9949 C   0  0  0  0  0
    4.6075   20.1723   67.5925 C   0  0  0  0  0
    0.4180   19.5031   71.4535 C   0  0  0  0  0
   -0.0804   20.8457   71.0426 C   0  0  0  0  0
   -0.8360   22.3113   69.3283 C   0  0  0  0  0
   -1.0213   23.3349   70.2607 C   0  0  0  0  0
   -0.7298   23.0957   71.6051 C   0  0  0  0  0
   -0.2565   21.8443   72.0028 C   0  0  0  0  0
   -0.8750   21.5618   66.9174 C   0  0  0  0  0
    0.5217   24.1047   66.1269 N   0  0  0  0  0
    2.6570   23.3567   66.9962 N   0  0  0  0  0
    4.5879   21.2904   68.5330 N   0  0  0  0  0
    4.4154   20.0081   71.1548 N   0  0  0  0  0
    1.6819   19.2164   70.7964 N   0  0  0  0  0
    2.2142   19.7648   68.0359 N   0  0  0  0  0
   -0.3726   21.0976   69.7373 N   0  0  0  0  0
   -1.1201   22.5548   67.9527 N   0  0  0  0  0
  1  2  1  0  0  0
  2 24  1  0  0  0
  3 25  1  0  0  0
  4  5  1  0  0  0
  6  7  1  0  0  0
  8  7  1  0  0  0
  8 26  1  0  0  0
  9 26  1  0  0  0
  9 10  1  0  0  0
 10 27  1  0  0  0
 11 27  1  0  0  0
 11 12  1  0  0  0
 12 28  1  0  0  0
 13 28  1  0  0  0
 13 14  1  0  0  0
 14 29  1  0  0  0
 15 29  1  0  0  0
 15 16  1  0  0  0
 16 26  1  0  0  0
 17 28  1  0  0  0
 17 18  1  0  0  0
 18 30  1  0  0  0
 19 20  1  0  0  0
 19 31  1  0  0  0
 21 22  1  0  0  0
 23 31  1  0  0  0
 23  1  1  0  0  0
 24  3  1  0  0  0
  3  4  2  0  0  0
  5  6  2  0  0  0
  7 25  2  0  0  0
 19 30  2  0  0  0
 20 21  2  0  0  0
 22 18  2  0  0  0
M  END
> <rmsd>
0.774123371

$$$$
