PubChem-86621231


 31 34  0  0  0  0  0  0  0  0999 V2000
    4.8261   29.3099   54.5597 C   0  0  0  0  0
    4.3306   30.1731   55.7019 C   0  0  0  0  0
    2.3365   30.7957   56.4523 C   0  0  0  0  0
    3.0676   30.0356   57.4936 C   0  0  0  0  0
    2.0216   29.0709   58.0563 C   0  0  0  0  0
    1.1111   29.9492   56.1647 C   0  0  0  0  0
   -0.5138   31.3772   57.3111 C   0  0  0  0  0
   -1.6759   32.1445   57.3295 C   0  0  0  0  0
   -2.4095   32.2592   56.1527 C   0  0  0  0  0
   -0.8499   30.8850   55.0221 C   0  0  0  0  0
    2.6336   27.7089   58.4014 C   0  0  0  0  0
    1.7013   26.2633   60.1661 C   0  0  0  0  0
    0.6203   25.3811   60.6329 C   0  0  0  0  0
   -0.4728   25.1079   59.7990 C   0  0  0  0  0
   -1.5044   24.2729   60.2378 C   0  0  0  0  0
   -1.4506   23.7068   61.5144 C   0  0  0  0  0
   -0.3644   23.9746   62.3520 C   0  0  0  0  0
    0.6677   24.8091   61.9130 C   0  0  0  0  0
    3.1501   30.8284   55.3194 O   0  0  0  0  0
    4.0986   29.3740   56.8277 O   0  0  0  0  0
    1.0112   28.8908   57.0909 O   0  0  0  0  0
   -3.4644   32.9443   56.1326 O   0  0  0  0  0
   -0.4893   30.3161   53.9564 O   0  0  0  0  0
    1.6338   26.8227   58.8880 O   0  0  0  0  0
    2.6822   26.5150   60.9195 O   0  0  0  0  0
   -0.1097   30.7573   56.1652 N   0  0  0  0  0
   -1.9863   31.6309   55.0263 N   0  0  0  0  0
    1.4227   29.6538   59.2569 N   0  0  0  0  0
    2.0977   29.9154   60.2544 N   0  0  0  0  0
    2.7708   30.1763   61.2502 N   0  0  0  0  0
   -2.8649   23.9395   59.1890 Cl  0  0  0  0  0
  2  1  1  0  0  0
  2 19  1  0  0  0
  2 20  1  0  0  0
  3 19  1  0  0  0
  3  4  1  0  0  0
  4 20  1  0  0  0
  4  5  1  0  0  0
  5 21  1  0  0  0
  5 11  1  0  0  0
  5 28  1  0  0  0
  6 21  1  0  0  0
  6 26  1  0  0  0
  6  3  1  0  0  0
  8  9  1  0  0  0
  9 27  1  0  0  0
 10 26  1  0  0  0
 11 24  1  0  0  0
 12 24  1  0  0  0
 12 13  1  0  0  0
 14 15  1  0  0  0
 15 31  1  0  0  0
 16 17  1  0  0  0
 18 13  1  0  0  0
 26  7  1  0  0  0
 27 10  1  0  0  0
  7  8  2  0  0  0
  9 22  2  0  0  0
 10 23  2  0  0  0
 12 25  2  0  0  0
 13 14  2  0  0  0
 15 16  2  0  0  0
 17 18  2  0  0  0
 28 29  2  0  0  0
 29 30  2  0  0  0
M  CHG  2  29   1  30  -1
M  END
> <rmsd>
0.475027502

$$$$
PubChem-158232076


 29 32  0  0  0  0  0  0  0  0999 V2000
    1.3665   32.5704   59.9064 C   0  0  0  0  0
    2.8463   32.8224   59.7918 C   0  0  0  0  0
    3.3072   34.0707   59.3647 C   0  0  0  0  0
    4.6761   34.2850   59.1795 C   0  0  0  0  0
    5.5860   33.2495   59.4135 C   0  0  0  0  0
    5.1309   31.9995   59.8435 C   0  0  0  0  0
    3.7645   31.7804   60.0407 C   0  0  0  0  0
    1.6149   28.4050   59.3335 C   0  0  0  0  0
    1.9941   28.3646   57.8526 C   0  0  0  0  0
    3.0426   29.4448   57.5630 C   0  0  0  0  0
    2.2141   30.5420   56.9592 C   0  0  0  0  0
    1.0760   29.7792   56.3262 C   0  0  0  0  0
   -0.7358   31.0202   57.4072 C   0  0  0  0  0
   -1.8921   31.7946   57.3598 C   0  0  0  0  0
   -2.4193   32.1171   56.1131 C   0  0  0  0  0
   -0.6789   30.9219   55.0447 C   0  0  0  0  0
    3.3263   30.5409   60.5123 O   0  0  0  0  0
    1.5244   29.5418   62.1814 O   0  0  0  0  0
    1.0374   31.8889   61.0913 O   0  0  0  0  0
    0.8537   29.5400   59.6306 O   0  0  0  0  0
    0.8456   28.5988   57.0623 O   0  0  0  0  0
   -3.4626   32.8153   56.0323 O   0  0  0  0  0
   -0.1393   30.5318   53.9741 O   0  0  0  0  0
    2.9191   31.2682   55.9961 O   0  0  0  0  0
    4.0014   28.9949   56.6459 O   0  0  0  0  0
    1.6673   30.3242   60.8956 P   0  0  0  0  0
   -0.1387   30.5933   56.2575 N   0  0  0  0  0
   -1.8074   31.6772   54.9841 N   0  0  0  0  0
    2.6010   26.7156   57.5169 Cl  0  0  0  0  0
  1  2  1  0  0  0
  1 19  1  0  0  0
  3  4  1  0  0  0
  5  6  1  0  0  0
  7 17  1  0  0  0
  7  2  1  0  0  0
  8 20  1  0  0  0
  9  8  1  0  0  0
  9 10  1  0  0  0
  9 29  1  0  0  0
  9 21  1  0  0  0
 10 11  1  0  0  0
 10 25  1  0  0  0
 11 12  1  0  0  0
 11 24  1  0  0  0
 12 21  1  0  0  0
 12 27  1  0  0  0
 14 15  1  0  0  0
 15 28  1  0  0  0
 16 27  1  0  0  0
 26 17  1  0  0  0
 26 19  1  0  0  0
 26 20  1  0  0  0
 27 13  1  0  0  0
 28 16  1  0  0  0
  2  3  2  0  0  0
  4  5  2  0  0  0
  6  7  2  0  0  0
 13 14  2  0  0  0
 15 22  2  0  0  0
 16 23  2  0  0  0
 26 18  2  0  0  0
M  END
> <rmsd>
0.306039572

$$$$
PubChem-102238468


 28 31  0  0  0  0  0  0  0  0999 V2000
    2.7385   25.2501   65.0153 C   0  0  0  0  0
    2.5224   26.3837   64.0791 C   0  0  0  0  0
    1.2236   26.8106   63.7863 C   0  0  0  0  0
    1.0202   27.8770   62.9053 C   0  0  0  0  0
    2.1151   28.5196   62.3169 C   0  0  0  0  0
    3.4145   28.0891   62.6094 C   0  0  0  0  0
    3.6179   27.0226   63.4904 C   0  0  0  0  0
    1.9252   28.3759   59.2209 C   0  0  0  0  0
    2.1543   28.7286   57.7611 C   0  0  0  0  0
    3.2331   27.9250   57.0941 C   0  0  0  0  0
    3.0689   29.8870   57.5332 C   0  0  0  0  0
    2.3003   30.7761   56.5866 C   0  0  0  0  0
    1.1188   29.9353   56.1430 C   0  0  0  0  0
   -0.6031   31.2272   57.3033 C   0  0  0  0  0
   -1.7780   31.9748   57.3154 C   0  0  0  0  0
   -2.4345   32.1921   56.1078 C   0  0  0  0  0
   -0.7789   30.9504   54.9603 C   0  0  0  0  0
    1.8510   29.8509   61.2015 S   0  0  0  0  0
    3.1645   30.4853   60.8327 O   0  0  0  0  0
    0.9951   30.8851   61.8762 O   0  0  0  0  0
    1.0660   29.3087   59.8105 O   0  0  0  0  0
    4.0139   29.0750   56.8674 O   0  0  0  0  0
    0.9782   28.8164   56.9904 O   0  0  0  0  0
   -3.4981   32.8633   56.0813 O   0  0  0  0  0
   -0.3388   30.4891   53.8726 O   0  0  0  0  0
    3.0756   31.1446   55.4853 O   0  0  0  0  0
   -0.1129   30.7252   56.1333 N   0  0  0  0  0
   -1.9267   31.6787   54.9583 N   0  0  0  0  0
  1  2  1  0  0  0
  3  4  1  0  0  0
  5  6  1  0  0  0
  7  2  1  0  0  0
  8 21  1  0  0  0
  9  8  1  0  0  0
  9 10  1  0  0  0
  9 23  1  0  0  0
 10 22  1  0  0  0
 11 22  1  0  0  0
 11 12  1  0  0  0
 11  9  1  0  0  0
 12 13  1  0  0  0
 12 26  1  0  0  0
 13 23  1  0  0  0
 13 27  1  0  0  0
 15 16  1  0  0  0
 16 28  1  0  0  0
 17 27  1  0  0  0
 18  5  1  0  0  0
 18 21  1  0  0  0
 27 14  1  0  0  0
 28 17  1  0  0  0
  2  3  2  0  0  0
  4  5  2  0  0  0
  6  7  2  0  0  0
 14 15  2  0  0  0
 16 24  2  0  0  0
 17 25  2  0  0  0
 18 19  2  0  0  0
 18 20  2  0  0  0
M  END
> <rmsd>
0.350504011

$$$$
PubChem-156804398


 30 33  0  0  0  0  0  0  0  0999 V2000
    1.1718   32.5257   59.9465 C   0  0  0  0  0
    2.6321   32.8652   59.8113 C   0  0  0  0  0
    3.0119   34.1448   59.3975 C   0  0  0  0  0
    4.3624   34.4417   59.1926 C   0  0  0  0  0
    5.3351   33.4575   59.3938 C   0  0  0  0  0
    4.9612   32.1764   59.8103 C   0  0  0  0  0
    3.6136   31.8748   60.0270 C   0  0  0  0  0
    1.6408   28.3756   59.3134 C   0  0  0  0  0
    2.0172   28.3713   57.8319 C   0  0  0  0  0
    3.0543   29.4583   57.5583 C   0  0  0  0  0
    2.2345   30.5447   56.9245 C   0  0  0  0  0
    1.0905   29.7798   56.3044 C   0  0  0  0  0
   -0.7001   31.0238   57.4118 C   0  0  0  0  0
   -1.8531   31.8022   57.3852 C   0  0  0  0  0
   -2.4042   32.1285   56.1444 C   0  0  0  0  0
   -0.6832   30.9251   55.0494 C   0  0  0  0  0
    3.2569   30.6045   60.4851 O   0  0  0  0  0
    1.5450   29.4741   62.1650 O   0  0  0  0  0
    0.9033   31.8061   61.1240 O   0  0  0  0  0
    0.8336   29.4747   59.6249 O   0  0  0  0  0
    0.8664   28.6008   57.0442 O   0  0  0  0  0
   -3.4468   32.8307   56.0707 O   0  0  0  0  0
   -0.1627   30.5331   53.9701 O   0  0  0  0  0
    2.9480   31.2442   55.9481 O   0  0  0  0  0
    4.0320   28.9917   56.6707 O   0  0  0  0  0
    1.6203   30.2845   60.8909 P   0  0  0  0  0
   -0.1240   30.5951   56.2528 N   0  0  0  0  0
   -1.8104   31.6841   55.0073 N   0  0  0  0  0
   -2.5709   32.3464   58.8915 Cl  0  0  0  0  0
    2.5293   27.1205   57.5291 F   0  0  0  0  0
  1  2  1  0  0  0
  1 19  1  0  0  0
  3  4  1  0  0  0
  5  6  1  0  0  0
  7 17  1  0  0  0
  7  2  1  0  0  0
  8 20  1  0  0  0
  8  9  1  0  0  0
  9 10  1  0  0  0
  9 30  1  0  0  0
  9 21  1  0  0  0
 10 11  1  0  0  0
 10 25  1  0  0  0
 11 12  1  0  0  0
 11 24  1  0  0  0
 12 21  1  0  0  0
 12 27  1  0  0  0
 14 15  1  0  0  0
 14 29  1  0  0  0
 15 28  1  0  0  0
 16 27  1  0  0  0
 26 17  1  0  0  0
 26 19  1  0  0  0
 26 20  1  0  0  0
 27 13  1  0  0  0
 28 16  1  0  0  0
  2  3  2  0  0  0
  4  5  2  0  0  0
  6  7  2  0  0  0
 13 14  2  0  0  0
 15 22  2  0  0  0
 16 23  2  0  0  0
 26 18  2  0  0  0
M  END
> <rmsd>
0.318294615

$$$$
PubChem-142287247


 25 26  0  0  0  0  0  0  0  0999 V2000
    5.6700   30.6678   57.7012 C   0  0  0  0  0
    5.2759   29.2269   57.3968 C   0  0  0  0  0
    5.3650   28.3359   58.6300 C   0  0  0  0  0
    3.0065   29.5991   57.5396 C   0  0  0  0  0
    2.0130   28.4798   57.7977 C   0  0  0  0  0
    1.0243   29.8367   56.2803 C   0  0  0  0  0
    2.1800   30.6380   56.8300 C   0  0  0  0  0
    2.8288   32.6213   56.0940 C   0  0  0  0  0
   -0.7522   31.1515   57.3289 C   0  0  0  0  0
   -1.9063   31.9282   57.2640 C   0  0  0  0  0
   -2.4642   32.1782   56.0139 C   0  0  0  0  0
   -0.7564   30.9118   54.9752 C   0  0  0  0  0
    1.7455   28.3318   59.2903 C   0  0  0  0  0
    4.0420   29.1142   56.7145 O   0  0  0  0  0
    0.8061   28.7216   57.1090 O   0  0  0  0  0
    2.8840   31.2598   55.7942 O   0  0  0  0  0
   -3.5062   32.8764   55.9179 O   0  0  0  0  0
   -0.2454   30.4560   53.9165 O   0  0  0  0  0
    1.1040   29.4696   59.7919 O   0  0  0  0  0
    3.3817   30.3422   60.7777 O   0  0  0  0  0
    1.2038   31.2171   61.9223 O   0  0  0  0  0
    2.0694   28.6221   62.2547 O   0  0  0  0  0
   -0.1869   30.6534   56.1914 N   0  0  0  0  0
   -1.8831   31.6684   54.8981 N   0  0  0  0  0
    1.9838   29.9190   61.1707 P   0  0  0  0  0
  1  2  1  0  0  0
  2  3  1  0  0  0
  2 14  1  0  0  0
  4 14  1  0  0  0
  4  5  1  0  0  0
  5 15  1  0  0  0
  5 13  1  0  0  0
  6 15  1  0  0  0
  6  7  1  0  0  0
  6 23  1  0  0  0
  7 16  1  0  0  0
  7  4  1  0  0  0
  8 16  1  0  0  0
 10 11  1  0  0  0
 11 24  1  0  0  0
 12 23  1  0  0  0
 13 19  1  0  0  0
 23  9  1  0  0  0
 24 12  1  0  0  0
 25 19  1  0  0  0
 25 21  1  0  0  0
 25 22  1  0  0  0
  9 10  2  0  0  0
 11 17  2  0  0  0
 12 18  2  0  0  0
 25 20  2  0  0  0
M  END
> <rmsd>
0.303674668

$$$$
PubChem-166171919


 31 32  0  0  0  0  0  0  0  0999 V2000
    5.1888   31.7385   58.6844 C   0  0  0  0  0
    6.0722   30.8687   57.8134 C   0  0  0  0  0
    6.1598   31.4731   56.4277 C   0  0  0  0  0
    7.4593   30.8186   58.4200 C   0  0  0  0  0
    6.5916   28.0556   56.7682 C   0  0  0  0  0
    5.1705   28.3952   59.4087 C   0  0  0  0  0
    2.9487   29.8090   57.6017 C   0  0  0  0  0
    2.1732   30.7654   56.7402 C   0  0  0  0  0
    1.0104   29.9253   56.2577 C   0  0  0  0  0
    1.8626   28.8650   58.0776 C   0  0  0  0  0
    1.8068   28.3930   60.2417 C   0  0  0  0  0
    0.0140   29.0773   62.7278 C   0  0  0  0  0
    3.7384   31.1082   62.5368 C   0  0  0  0  0
   -0.7592   31.2567   57.2968 C   0  0  0  0  0
   -1.9255   32.0149   57.2295 C   0  0  0  0  0
   -2.5155   32.2090   55.9843 C   0  0  0  0  0
   -0.8143   30.9265   54.9548 C   0  0  0  0  0
    2.8377   32.6221   55.7373 C   0  0  0  0  0
    5.3742   29.1254   57.6982 Si  0  0  0  0  0
    3.8768   29.0902   56.8366 O   0  0  0  0  0
    0.8244   28.8284   57.1243 O   0  0  0  0  0
    1.3513   29.3138   59.2981 O   0  0  0  0  0
    2.8352   28.2779   62.7558 O   0  0  0  0  0
    0.9361   30.0769   62.4113 O   0  0  0  0  0
    3.4818   30.4045   61.3592 O   0  0  0  0  0
   -3.5696   32.8887   55.8863 O   0  0  0  0  0
   -0.3212   30.4372   53.9026 O   0  0  0  0  0
    2.9271   31.2316   55.6593 O   0  0  0  0  0
    2.2826   29.2731   61.7576 P   0  0  0  0  0
   -0.2136   30.7222   56.1663 N   0  0  0  0  0
   -1.9530   31.6644   54.8754 N   0  0  0  0  0
  1  2  1  0  0  0
  2  3  1  0  0  0
  2  4  1  0  0  0
  2 19  1  0  0  0
  7 20  1  0  0  0
  7  8  1  0  0  0
  8  9  1  0  0  0
  8 28  1  0  0  0
  9 21  1  0  0  0
  9 30  1  0  0  0
 10 21  1  0  0  0
 10 22  1  0  0  0
 10  7  1  0  0  0
 11 22  1  0  0  0
 11 29  1  0  0  0
 12 24  1  0  0  0
 13 25  1  0  0  0
 15 16  1  0  0  0
 16 31  1  0  0  0
 17 30  1  0  0  0
 18 28  1  0  0  0
 19  5  1  0  0  0
 19  6  1  0  0  0
 19 20  1  0  0  0
 29 24  1  0  0  0
 29 25  1  0  0  0
 30 14  1  0  0  0
 31 17  1  0  0  0
 14 15  2  0  0  0
 16 26  2  0  0  0
 17 27  2  0  0  0
 29 23  2  0  0  0
M  END
> <rmsd>
0.369321764

$$$$
PubChem-157998407


 30 33  0  0  0  0  0  0  0  0999 V2000
    1.0672   29.7531   56.2249 C   0  0  0  0  0
    2.2074   30.5515   56.8263 C   0  0  0  0  0
    3.0241   29.5069   57.5327 C   0  0  0  0  0
    1.9907   28.4227   57.8326 C   0  0  0  0  0
    1.6035   28.4675   59.3074 C   0  0  0  0  0
    3.9259   30.4973   62.1234 C   0  0  0  0  0
    3.8598   29.1834   62.8515 C   0  0  0  0  0
    4.9961   28.6676   63.4807 C   0  0  0  0  0
    4.9079   27.4825   64.2178 C   0  0  0  0  0
    3.6831   26.8172   64.3320 C   0  0  0  0  0
    2.5454   27.3288   63.6998 C   0  0  0  0  0
    2.6305   28.5060   62.9510 C   0  0  0  0  0
   -0.7190   30.9962   57.3256 C   0  0  0  0  0
   -1.8742   31.7713   57.3238 C   0  0  0  0  0
   -2.4430   32.1094   56.0958 C   0  0  0  0  0
   -0.7332   30.9237   54.9622 C   0  0  0  0  0
    0.8399   28.6216   57.0365 O   0  0  0  0  0
    0.9706   29.6732   59.6251 O   0  0  0  0  0
    1.0584   31.4846   61.5194 O   0  0  0  0  0
    3.3657   30.4080   60.8378 O   0  0  0  0  0
    1.5039   28.9886   62.2834 O   0  0  0  0  0
    4.0271   29.0093   56.6924 O   0  0  0  0  0
    2.9384   31.2243   55.8413 O   0  0  0  0  0
   -3.4889   32.8087   56.0437 O   0  0  0  0  0
   -0.2327   30.5540   53.8661 O   0  0  0  0  0
    1.6928   30.1884   61.0676 P   0  0  0  0  0
    2.5084   27.1654   57.5686 F   0  0  0  0  0
   -0.1527   30.5757   56.1568 N   0  0  0  0  0
   -1.8627   31.6804   54.9470 N   0  0  0  0  0
   -2.5747   32.2940   58.8457 Cl  0  0  0  0  0
  1  2  1  0  0  0
  1 28  1  0  0  0
  1 17  1  0  0  0
  2  3  1  0  0  0
  2 23  1  0  0  0
  3  4  1  0  0  0
  3 22  1  0  0  0
  4 17  1  0  0  0
  4  5  1  0  0  0
  4 27  1  0  0  0
  5 18  1  0  0  0
  6 20  1  0  0  0
  6  7  1  0  0  0
  8  9  1  0  0  0
 10 11  1  0  0  0
 12 21  1  0  0  0
 12  7  1  0  0  0
 14 15  1  0  0  0
 14 30  1  0  0  0
 15 29  1  0  0  0
 16 28  1  0  0  0
 26 18  1  0  0  0
 26 20  1  0  0  0
 26 21  1  0  0  0
 28 13  1  0  0  0
 29 16  1  0  0  0
  7  8  2  0  0  0
  9 10  2  0  0  0
 11 12  2  0  0  0
 13 14  2  0  0  0
 15 24  2  0  0  0
 16 25  2  0  0  0
 26 19  2  0  0  0
M  END
> <rmsd>
0.230541632

$$$$
PubChem-156574190


 32 35  0  0  0  0  0  0  0  0999 V2000
    1.9680   25.6959   64.8753 C   0  0  0  0  0
    3.0444   27.6603   63.8210 C   0  0  0  0  0
    4.2521   27.4400   64.5037 C   0  0  0  0  0
    5.3404   28.2944   64.3124 C   0  0  0  0  0
    5.2330   29.3789   63.4397 C   0  0  0  0  0
    4.0429   29.6027   62.7435 C   0  0  0  0  0
    2.9400   28.7437   62.9365 C   0  0  0  0  0
    3.9090   30.8294   61.8813 C   0  0  0  0  0
    1.6176   28.3727   59.2866 C   0  0  0  0  0
    1.9972   28.3735   57.8078 C   0  0  0  0  0
    3.0359   29.4609   57.5396 C   0  0  0  0  0
    2.2203   30.5462   56.8965 C   0  0  0  0  0
    1.0732   29.7827   56.2801 C   0  0  0  0  0
   -0.7164   31.0284   57.3878 C   0  0  0  0  0
   -1.8725   31.8027   57.3607 C   0  0  0  0  0
   -2.4253   32.1259   56.1197 C   0  0  0  0  0
   -0.7009   30.9272   55.0251 C   0  0  0  0  0
    1.9435   26.8159   64.0010 O   0  0  0  0  0
    1.7489   28.9522   62.2354 O   0  0  0  0  0
    0.9437   31.3623   61.5021 O   0  0  0  0  0
    3.2982   30.5493   60.6460 O   0  0  0  0  0
    0.9124   29.5320   59.6255 O   0  0  0  0  0
    0.8464   28.6063   57.0223 O   0  0  0  0  0
   -3.4704   32.8243   56.0458 O   0  0  0  0  0
   -0.1802   30.5352   53.9459 O   0  0  0  0  0
    2.9373   31.2348   55.9146 O   0  0  0  0  0
    4.0211   28.9923   56.6612 O   0  0  0  0  0
    1.6865   30.1438   61.0025 P   0  0  0  0  0
   -0.1399   30.6001   56.2285 N   0  0  0  0  0
   -1.8303   31.6826   54.9828 N   0  0  0  0  0
   -2.5939   32.3439   58.8664 Cl  0  0  0  0  0
    2.5071   27.1227   57.5008 F   0  0  0  0  0
  1 18  1  0  0  0
  2 18  1  0  0  0
  3  4  1  0  0  0
  5  6  1  0  0  0
  7 19  1  0  0  0
  7  2  1  0  0  0
  8 21  1  0  0  0
  8  6  1  0  0  0
  9 22  1  0  0  0
  9 10  1  0  0  0
 10 11  1  0  0  0
 10 32  1  0  0  0
 10 23  1  0  0  0
 11 12  1  0  0  0
 11 27  1  0  0  0
 12 13  1  0  0  0
 12 26  1  0  0  0
 13 23  1  0  0  0
 13 29  1  0  0  0
 15 16  1  0  0  0
 15 31  1  0  0  0
 16 30  1  0  0  0
 17 29  1  0  0  0
 28 19  1  0  0  0
 28 21  1  0  0  0
 28 22  1  0  0  0
 29 14  1  0  0  0
 30 17  1  0  0  0
  2  3  2  0  0  0
  4  5  2  0  0  0
  6  7  2  0  0  0
 14 15  2  0  0  0
 16 24  2  0  0  0
 17 25  2  0  0  0
 28 20  2  0  0  0
M  END
> <rmsd>
0.267888576

$$$$
PubChem-160968836


 32 35  0  0  0  0  0  0  0  0999 V2000
    1.0925   29.7004   56.1668 C   0  0  0  0  0
    2.2551   30.4602   56.7740 C   0  0  0  0  0
    3.0728   29.3780   57.4183 C   0  0  0  0  0
    2.0299   28.2994   57.7045 C   0  0  0  0  0
    1.6789   28.2991   59.1894 C   0  0  0  0  0
    4.0849   29.8159   60.6739 C   0  0  0  0  0
    4.3392   28.8909   61.8303 C   0  0  0  0  0
    5.6473   28.6483   62.2564 C   0  0  0  0  0
    5.8895   27.7233   63.2753 C   0  0  0  0  0
    4.8254   27.0316   63.8611 C   0  0  0  0  0
    3.5130   27.2670   63.4386 C   0  0  0  0  0
    3.2614   28.2113   62.4312 C   0  0  0  0  0
    2.3963   26.5251   64.0869 C   0  0  0  0  0
   -0.6519   30.9320   57.3438 C   0  0  0  0  0
   -1.7975   31.7263   57.3959 C   0  0  0  0  0
   -2.3841   32.1121   56.1874 C   0  0  0  0  0
   -0.7153   30.9376   54.9815 C   0  0  0  0  0
   -2.3650   32.1407   58.6867 C   0  0  0  0  0
    0.8646   28.5439   56.9422 O   0  0  0  0  0
    1.0354   29.4864   59.5532 O   0  0  0  0  0
    0.6048   30.7470   61.8032 O   0  0  0  0  0
    3.0872   30.7613   60.9666 O   0  0  0  0  0
    1.9495   28.4943   62.0391 O   0  0  0  0  0
    4.0456   28.8982   56.5324 O   0  0  0  0  0
    2.9734   31.1632   55.8013 O   0  0  0  0  0
   -3.4203   32.8290   56.1737 O   0  0  0  0  0
   -0.2428   30.5970   53.8636 O   0  0  0  0  0
   -1.8359   31.7921   59.7755 O   0  0  0  0  0
    1.6282   29.8929   61.0914 P   0  0  0  0  0
    2.5218   27.0446   57.3853 F   0  0  0  0  0
   -0.1164   30.5418   56.1510 N   0  0  0  0  0
   -1.8322   31.7112   55.0147 N   0  0  0  0  0
  1  2  1  0  0  0
  1 31  1  0  0  0
  1 19  1  0  0  0
  2  3  1  0  0  0
  2 25  1  0  0  0
  3  4  1  0  0  0
  3 24  1  0  0  0
  4 19  1  0  0  0
  4  5  1  0  0  0
  4 30  1  0  0  0
  5 20  1  0  0  0
  6 22  1  0  0  0
  6  7  1  0  0  0
  8  9  1  0  0  0
 10 11  1  0  0  0
 12 23  1  0  0  0
 12  7  1  0  0  0
 13 11  1  0  0  0
 15 16  1  0  0  0
 15 18  1  0  0  0
 16 32  1  0  0  0
 17 31  1  0  0  0
 29 20  1  0  0  0
 29 22  1  0  0  0
 29 23  1  0  0  0
 31 14  1  0  0  0
 32 17  1  0  0  0
  7  8  2  0  0  0
  9 10  2  0  0  0
 11 12  2  0  0  0
 14 15  2  0  0  0
 16 26  2  0  0  0
 17 27  2  0  0  0
 18 28  2  0  0  0
 29 21  2  0  0  0
M  END
> <rmsd>
0.217723206

$$$$
PubChem-118302205


 31 34  0  0  0  0  0  0  0  0999 V2000
    3.9550   31.6323   60.9096 C   0  0  0  0  0
    3.7281   32.7373   59.9195 C   0  0  0  0  0
    4.8018   33.4910   59.4385 C   0  0  0  0  0
    4.5666   34.5685   58.5782 C   0  0  0  0  0
    3.2586   34.8987   58.2086 C   0  0  0  0  0
    2.1830   34.1432   58.6862 C   0  0  0  0  0
    2.4150   33.0550   59.5321 C   0  0  0  0  0
    1.6622   28.5095   59.3804 C   0  0  0  0  0
    2.0299   28.4196   57.8908 C   0  0  0  0  0
    3.0737   29.5002   57.5617 C   0  0  0  0  0
    2.2354   30.5862   56.9520 C   0  0  0  0  0
    1.0945   29.8087   56.3441 C   0  0  0  0  0
   -0.6944   31.0975   57.4081 C   0  0  0  0  0
   -1.8500   31.8721   57.3511 C   0  0  0  0  0
   -2.4029   32.1404   56.1027 C   0  0  0  0  0
   -0.6879   30.8941   55.0517 C   0  0  0  0  0
    2.5543   27.0028   57.6114 C   0  0  0  0  0
    1.3475   32.2668   59.9604 O   0  0  0  0  0
    3.3384   30.4348   60.5054 O   0  0  0  0  0
    0.7967   29.5806   59.6309 O   0  0  0  0  0
    0.8725   28.6427   57.1054 O   0  0  0  0  0
   -3.4468   32.8367   56.0128 O   0  0  0  0  0
   -0.1737   30.4530   53.9881 O   0  0  0  0  0
    2.9264   31.3006   55.9702 O   0  0  0  0  0
    4.0224   29.0409   56.6372 O   0  0  0  0  0
    1.6517   30.6961   60.5869 P   0  0  0  0  0
    1.1011   30.5975   62.2236 S   0  0  0  0  0
   -0.1221   30.6189   56.2662 N   0  0  0  0  0
   -1.8159   31.6490   54.9819 N   0  0  0  0  0
    1.5640   26.0599   57.8254 F   0  0  0  0  0
    3.6512   26.7104   58.4051 F   0  0  0  0  0
  1  2  1  0  0  0
  1 19  1  0  0  0
  3  4  1  0  0  0
  5  6  1  0  0  0
  7 18  1  0  0  0
  7  2  1  0  0  0
  8 20  1  0  0  0
  9  8  1  0  0  0
  9 10  1  0  0  0
  9 17  1  0  0  0
  9 21  1  0  0  0
 10 11  1  0  0  0
 10 25  1  0  0  0
 11 12  1  0  0  0
 11 24  1  0  0  0
 12 21  1  0  0  0
 12 28  1  0  0  0
 14 15  1  0  0  0
 15 29  1  0  0  0
 16 28  1  0  0  0
 17 30  1  0  0  0
 17 31  1  0  0  0
 26 18  1  0  0  0
 26 19  1  0  0  0
 26 20  1  0  0  0
 28 13  1  0  0  0
 29 16  1  0  0  0
  2  3  2  0  0  0
  4  5  2  0  0  0
  6  7  2  0  0  0
 13 14  2  0  0  0
 15 22  2  0  0  0
 16 23  2  0  0  0
 26 27  2  0  0  0
M  END
> <rmsd>
0.3334665

$$$$
PubChem-118019477


 32 35  0  0  0  0  0  0  0  0999 V2000
    1.8625   31.8332   57.6790 C   0  0  0  0  0
    2.1442   30.6212   56.8011 C   0  0  0  0  0
    2.9473   29.6346   57.5532 C   0  0  0  0  0
    1.9735   28.4813   57.8647 C   0  0  0  0  0
    0.9104   29.8269   56.3906 C   0  0  0  0  0
   -1.0470   30.9616   57.3390 C   0  0  0  0  0
   -2.2173   31.7052   57.2083 C   0  0  0  0  0
   -2.6128   32.0937   55.9322 C   0  0  0  0  0
   -0.7256   31.0162   54.9962 C   0  0  0  0  0
    2.4865   27.1329   57.3469 C   0  0  0  0  0
    1.8095   28.3818   59.3802 C   0  0  0  0  0
    2.0173   28.8854   62.5428 C   0  0  0  0  0
    4.0356   30.2021   55.6857 C   0  0  0  0  0
    5.2637   31.0887   55.8354 C   0  0  0  0  0
    6.1954   30.7303   54.6982 C   0  0  0  0  0
    5.3062   30.1662   53.6169 C   0  0  0  0  0
    4.1707   29.4883   54.3508 C   0  0  0  0  0
    0.7174   28.7567   57.2808 O   0  0  0  0  0
   -3.6634   32.7680   55.7769 O   0  0  0  0  0
   -0.0605   30.7064   53.9707 O   0  0  0  0  0
    1.5434   26.1249   57.5615 O   0  0  0  0  0
    1.1715   29.5187   59.8900 O   0  0  0  0  0
    1.5789   31.3708   61.6554 O   0  0  0  0  0
    3.5424   30.2202   60.7650 O   0  0  0  0  0
    4.0021   29.2510   56.7208 O   0  0  0  0  0
    2.8751   30.9981   55.6763 O   0  0  0  0  0
   -0.3079   30.6311   56.2405 N   0  0  0  0  0
   -1.8658   31.7425   54.8549 N   0  0  0  0  0
    2.1100   30.0446   61.1903 S   0  0  0  0  0
    2.6287   29.4267   63.6576 F   0  0  0  0  0
    2.6575   27.7099   62.1987 F   0  0  0  0  0
    0.6927   28.6185   62.8314 F   0  0  0  0  0
  2  1  1  0  0  0
  2  3  1  0  0  0
  2 26  1  0  0  0
  3  4  1  0  0  0
  3 25  1  0  0  0
  4 18  1  0  0  0
  4 10  1  0  0  0
  4 11  1  0  0  0
  5 18  1  0  0  0
  5 27  1  0  0  0
  5  2  1  0  0  0
  7  8  1  0  0  0
  8 28  1  0  0  0
  9 27  1  0  0  0
 10 21  1  0  0  0
 11 22  1  0  0  0
 12 30  1  0  0  0
 12 31  1  0  0  0
 12 32  1  0  0  0
 13 25  1  0  0  0
 13 26  1  0  0  0
 13 14  1  0  0  0
 14 15  1  0  0  0
 15 16  1  0  0  0
 16 17  1  0  0  0
 17 13  1  0  0  0
 27  6  1  0  0  0
 28  9  1  0  0  0
 29 22  1  0  0  0
 29 12  1  0  0  0
  6  7  2  0  0  0
  8 19  2  0  0  0
  9 20  2  0  0  0
 29 23  2  0  0  0
 29 24  2  0  0  0
M  END
> <rmsd>
0.342882395

$$$$
PubChem-139479318


 32 35  0  0  0  0  0  0  0  0999 V2000
    2.7633   29.5398   63.1130 C   0  0  0  0  0
    4.1512   29.6452   62.5439 C   0  0  0  0  0
    4.3475   30.2487   61.2862 C   0  0  0  0  0
    5.6450   30.4321   60.7998 C   0  0  0  0  0
    6.7423   30.0002   61.5512 C   0  0  0  0  0
    6.5449   29.3826   62.7905 C   0  0  0  0  0
    5.2503   29.2115   63.2902 C   0  0  0  0  0
    1.6085   28.3261   59.2842 C   0  0  0  0  0
    1.9968   28.3447   57.8072 C   0  0  0  0  0
    3.0379   29.4342   57.5580 C   0  0  0  0  0
    2.2273   30.5280   56.9237 C   0  0  0  0  0
    1.0827   29.7734   56.2913 C   0  0  0  0  0
   -0.7104   31.0055   57.4067 C   0  0  0  0  0
   -1.8689   31.7833   57.3891 C   0  0  0  0  0
   -2.4143   32.1224   56.1458 C   0  0  0  0  0
   -0.6847   30.9359   55.0440 C   0  0  0  0  0
   -2.4922   32.2291   58.6432 C   0  0  0  0  0
    7.6100   28.9627   63.5142 F   0  0  0  0  0
    2.5083   27.0975   57.4886 F   0  0  0  0  0
    3.2557   30.6341   60.5067 O   0  0  0  0  0
    0.8939   31.3231   61.4775 O   0  0  0  0  0
    1.8614   28.9779   62.1928 O   0  0  0  0  0
    0.8725   29.4650   59.6281 O   0  0  0  0  0
    0.8513   28.5874   57.0168 O   0  0  0  0  0
   -3.4590   32.8227   56.0702 O   0  0  0  0  0
   -0.1596   30.5580   53.9620 O   0  0  0  0  0
   -2.0006   31.9231   59.7621 O   0  0  0  0  0
    2.9505   31.2278   55.9546 O   0  0  0  0  0
    4.0282   28.9755   56.6802 O   0  0  0  0  0
    1.6756   30.1369   60.9601 P   0  0  0  0  0
   -0.1295   30.5924   56.2448 N   0  0  0  0  0
   -1.8129   31.6926   55.0070 N   0  0  0  0  0
  1  2  1  0  0  0
  1 22  1  0  0  0
  3  4  1  0  0  0
  3 20  1  0  0  0
  5  6  1  0  0  0
  6 18  1  0  0  0
  7  2  1  0  0  0
  8 23  1  0  0  0
  8  9  1  0  0  0
  9 10  1  0  0  0
  9 19  1  0  0  0
  9 24  1  0  0  0
 10 11  1  0  0  0
 10 29  1  0  0  0
 11 12  1  0  0  0
 11 28  1  0  0  0
 12 24  1  0  0  0
 12 31  1  0  0  0
 14 15  1  0  0  0
 14 17  1  0  0  0
 15 32  1  0  0  0
 16 31  1  0  0  0
 30 20  1  0  0  0
 30 22  1  0  0  0
 30 23  1  0  0  0
 31 13  1  0  0  0
 32 16  1  0  0  0
  2  3  2  0  0  0
  4  5  2  0  0  0
  6  7  2  0  0  0
 13 14  2  0  0  0
 15 25  2  0  0  0
 16 26  2  0  0  0
 17 27  2  0  0  0
 30 21  2  0  0  0
M  END
> <rmsd>
0.306699723

$$$$
PubChem-152760238


 27 28  0  0  0  0  0  0  0  0999 V2000
    1.4750   33.1561   58.4246 C   0  0  0  0  0
    2.0990   33.7369   57.1727 C   0  0  0  0  0
    2.6246   35.1217   57.4898 C   0  0  0  0  0
    1.0488   33.8430   56.0871 C   0  0  0  0  0
    4.4712   33.5677   55.2661 C   0  0  0  0  0
    4.6857   32.2931   57.9966 C   0  0  0  0  0
    2.2520   30.4745   56.8735 C   0  0  0  0  0
    3.0661   29.3616   57.4787 C   0  0  0  0  0
    2.0317   28.2840   57.7340 C   0  0  0  0  0
    1.0849   29.7309   56.2658 C   0  0  0  0  0
   -0.7227   30.9068   57.4201 C   0  0  0  0  0
   -1.8737   31.6904   57.4210 C   0  0  0  0  0
   -2.3938   32.1002   56.1972 C   0  0  0  0  0
   -0.6576   30.9674   55.0563 C   0  0  0  0  0
    1.7002   28.1917   59.2194 C   0  0  0  0  0
    3.5138   32.6469   56.5809 Si  0  0  0  0  0
    2.9531   31.1691   55.8794 O   0  0  0  0  0
    0.8620   28.5427   56.9882 O   0  0  0  0  0
   -3.4319   32.8098   56.1601 O   0  0  0  0  0
   -0.1149   30.6481   53.9639 O   0  0  0  0  0
    1.0679   29.3587   59.6569 O   0  0  0  0  0
    2.9505   30.8585   60.5350 O   0  0  0  0  0
    4.0085   28.8753   56.5681 O   0  0  0  0  0
   -0.1232   30.5564   56.2462 N   0  0  0  0  0
   -1.7811   31.7325   55.0429 N   0  0  0  0  0
    0.6026   30.9651   61.6457 N   0  0  0  0  0
    1.8110   29.7202   61.1830 P   0  0  0  0  0
  1  2  1  0  0  0
  2  3  1  0  0  0
  2  4  1  0  0  0
  2 16  1  0  0  0
  7 17  1  0  0  0
  7  8  1  0  0  0
  8  9  1  0  0  0
  8 23  1  0  0  0
  9 18  1  0  0  0
  9 15  1  0  0  0
 10 18  1  0  0  0
 10 24  1  0  0  0
 10  7  1  0  0  0
 12 13  1  0  0  0
 13 25  1  0  0  0
 14 24  1  0  0  0
 15 21  1  0  0  0
 16  5  1  0  0  0
 16  6  1  0  0  0
 16 17  1  0  0  0
 24 11  1  0  0  0
 25 14  1  0  0  0
 27 21  1  0  0  0
 27 26  1  0  0  0
 27 22  1  0  0  0
 11 12  2  0  0  0
 13 19  2  0  0  0
 14 20  2  0  0  0
M  END
> <rmsd>
0.2965253

$$$$
PubChem-139478491


 33 36  0  0  0  0  0  0  0  0999 V2000
    6.8157   27.6111   64.1861 C   0  0  0  0  0
    5.9202   28.3378   63.2492 C   0  0  0  0  0
    6.4615   29.2122   62.3029 C   0  0  0  0  0
    5.6253   29.8944   61.4140 C   0  0  0  0  0
    4.2354   29.7092   61.4778 C   0  0  0  0  0
    3.6941   28.8221   62.4302 C   0  0  0  0  0
    4.5393   28.1333   63.3039 C   0  0  0  0  0
    2.2219   28.5144   62.4231 C   0  0  0  0  0
    1.6199   28.4663   59.3419 C   0  0  0  0  0
    2.0021   28.4366   57.8635 C   0  0  0  0  0
    3.0328   29.5254   57.5720 C   0  0  0  0  0
    2.2103   30.5898   56.9042 C   0  0  0  0  0
    1.0697   29.8044   56.3031 C   0  0  0  0  0
   -0.7301   31.0592   57.3830 C   0  0  0  0  0
   -1.8933   31.8236   57.3402 C   0  0  0  0  0
   -2.4398   32.1284   56.0896 C   0  0  0  0  0
   -0.7088   30.9132   55.0229 C   0  0  0  0  0
   -2.4969   32.3258   58.6090 C   0  0  0  0  0
    6.2274   30.8200   60.4146 C   0  0  0  0  0
    1.4313   29.6769   62.3941 O   0  0  0  0  0
    1.2174   31.8461   60.9412 O   0  0  0  0  0
    3.3934   30.4052   60.6067 O   0  0  0  0  0
    0.8637   29.6033   59.6470 O   0  0  0  0  0
    0.8514   28.6421   57.0698 O   0  0  0  0  0
   -3.4841   32.8269   55.9966 O   0  0  0  0  0
   -0.1843   30.5021   53.9526 O   0  0  0  0  0
   -1.9063   33.5386   58.9638 O   0  0  0  0  0
    2.9235   31.2620   55.9085 O   0  0  0  0  0
    4.0231   29.0449   56.7059 O   0  0  0  0  0
    1.6986   30.4148   60.8838 P   0  0  0  0  0
   -0.1494   30.6115   56.2335 N   0  0  0  0  0
   -1.8395   31.6652   54.9634 N   0  0  0  0  0
    2.5231   27.1835   57.5864 F   0  0  0  0  0
  1  2  1  0  0  0
  3  4  1  0  0  0
  5  6  1  0  0  0
  5 22  1  0  0  0
  7  2  1  0  0  0
  8  6  1  0  0  0
  8 20  1  0  0  0
  9 23  1  0  0  0
  9 10  1  0  0  0
 10 11  1  0  0  0
 10 33  1  0  0  0
 10 24  1  0  0  0
 11 12  1  0  0  0
 11 29  1  0  0  0
 12 13  1  0  0  0
 12 28  1  0  0  0
 13 24  1  0  0  0
 13 31  1  0  0  0
 15 16  1  0  0  0
 16 32  1  0  0  0
 17 31  1  0  0  0
 18 15  1  0  0  0
 18 27  1  0  0  0
 19  4  1  0  0  0
 30 20  1  0  0  0
 30 22  1  0  0  0
 30 23  1  0  0  0
 31 14  1  0  0  0
 32 17  1  0  0  0
  2  3  2  0  0  0
  4  5  2  0  0  0
  6  7  2  0  0  0
 14 15  2  0  0  0
 16 25  2  0  0  0
 17 26  2  0  0  0
 30 21  2  0  0  0
M  END
> <rmsd>
0.299457371

$$$$
PubChem-161154176


 31 34  0  0  0  0  0  0  0  0999 V2000
    1.0872   29.7360   56.2421 C   0  0  0  0  0
    2.2242   30.5148   56.8734 C   0  0  0  0  0
    3.0364   29.4483   57.5498 C   0  0  0  0  0
    1.9986   28.3602   57.8179 C   0  0  0  0  0
    1.6089   28.3691   59.2937 C   0  0  0  0  0
    3.9163   30.7751   61.8520 C   0  0  0  0  0
    4.0932   29.4750   62.5844 C   0  0  0  0  0
    5.3413   29.1291   63.1080 C   0  0  0  0  0
    5.4840   27.9570   63.8553 C   0  0  0  0  0
    4.3772   27.1355   64.0887 C   0  0  0  0  0
    3.1239   27.4760   63.5695 C   0  0  0  0  0
    2.9788   28.6409   62.8001 C   0  0  0  0  0
    1.9636   26.5770   63.8212 C   0  0  0  0  0
   -0.6985   30.9655   57.3589 C   0  0  0  0  0
   -1.8498   31.7463   57.3674 C   0  0  0  0  0
   -2.4129   32.1088   56.1439 C   0  0  0  0  0
   -0.7053   30.9350   54.9949 C   0  0  0  0  0
    0.8514   28.5841   57.0222 O   0  0  0  0  0
    0.8987   29.5290   59.6199 O   0  0  0  0  0
    0.9035   31.3623   61.4937 O   0  0  0  0  0
    3.2671   30.5929   60.6194 O   0  0  0  0  0
    1.7436   28.9631   62.2295 O   0  0  0  0  0
    4.0383   28.9719   56.6950 O   0  0  0  0  0
    2.9606   31.2174   55.9141 O   0  0  0  0  0
   -3.4551   32.8141   56.1012 O   0  0  0  0  0
   -0.2028   30.5825   53.8941 O   0  0  0  0  0
    1.6653   30.1556   60.9944 P   0  0  0  0  0
    2.5136   27.1086   57.5234 F   0  0  0  0  0
   -0.1302   30.5631   56.1848 N   0  0  0  0  0
   -1.8310   31.6972   54.9896 N   0  0  0  0  0
   -2.5517   32.2464   58.8963 Cl  0  0  0  0  0
  1  2  1  0  0  0
  1 29  1  0  0  0
  1 18  1  0  0  0
  2  3  1  0  0  0
  2 24  1  0  0  0
  3  4  1  0  0  0
  3 23  1  0  0  0
  4 18  1  0  0  0
  4  5  1  0  0  0
  4 28  1  0  0  0
  5 19  1  0  0  0
  6 21  1  0  0  0
  6  7  1  0  0  0
  8  9  1  0  0  0
 10 11  1  0  0  0
 12 22  1  0  0  0
 12  7  1  0  0  0
 13 11  1  0  0  0
 15 16  1  0  0  0
 15 31  1  0  0  0
 16 30  1  0  0  0
 17 29  1  0  0  0
 27 19  1  0  0  0
 27 21  1  0  0  0
 27 22  1  0  0  0
 29 14  1  0  0  0
 30 17  1  0  0  0
  7  8  2  0  0  0
  9 10  2  0  0  0
 11 12  2  0  0  0
 14 15  2  0  0  0
 16 25  2  0  0  0
 17 26  2  0  0  0
 27 20  2  0  0  0
M  END
> <rmsd>
0.269982427

$$$$
