PubChem-160275573 PubChem-160275576


 32 35  0  0  0  0  0  0  0  0999 V2000
    1.1301   29.7166   56.0928 C   0  0  0  0  0
    2.3762   30.5387   56.3512 C   0  0  0  0  0
    3.2841   29.5700   57.0531 C   0  0  0  0  0
    2.2950   28.6074   57.7135 C   0  0  0  0  0
    2.1782   28.9124   59.2109 C   0  0  0  0  0
   -0.7671   29.6586   61.3390 C   0  0  0  0  0
   -1.2751   30.9492   61.9169 C   0  0  0  0  0
   -0.4838   32.1106   61.8274 C   0  0  0  0  0
   -0.9944   33.3335   62.2720 C   0  0  0  0  0
   -2.2785   33.3977   62.8215 C   0  0  0  0  0
   -3.0549   32.2393   62.9286 C   0  0  0  0  0
   -2.5563   31.0162   62.4703 C   0  0  0  0  0
   -0.4290   31.1842   57.2639 C   0  0  0  0  0
   -1.5446   32.0153   57.3232 C   0  0  0  0  0
   -2.2889   32.2078   56.1566 C   0  0  0  0  0
   -0.8103   30.7923   54.9632 C   0  0  0  0  0
   -1.9335   32.6430   58.6196 C   0  0  0  0  0
    1.0240   28.7416   57.1068 O   0  0  0  0  0
    1.7034   30.2260   59.3960 O   0  0  0  0  0
    2.9062   30.4939   61.7339 O   0  0  0  0  0
    0.5279   29.3617   61.7956 O   0  0  0  0  0
    0.8128   32.0450   61.3142 O   0  0  0  0  0
    4.0903   28.8903   56.1313 O   0  0  0  0  0
    2.9300   31.0199   55.1603 O   0  0  0  0  0
   -3.3116   32.9435   56.1589 O   0  0  0  0  0
   -0.4951   30.2533   53.8683 O   0  0  0  0  0
   -2.9486   31.8968   59.2180 O   0  0  0  0  0
    1.5486   30.5132   61.0686 P   0  0  0  0  0
   -4.6607   32.3242   63.6184 Cl  0  0  0  0  0
    2.7224   27.2960   57.5695 F   0  0  0  0  0
   -0.0631   30.5803   56.0952 N   0  0  0  0  0
   -1.9054   31.5961   55.0084 N   0  0  0  0  0
  1  2  1  0  0  0
  1 31  1  0  0  0
  1 18  1  0  0  0
  2  3  1  0  0  0
  2 24  1  0  0  0
  3  4  1  0  0  0
  3 23  1  0  0  0
  4 18  1  0  0  0
  4  5  1  0  0  0
  4 30  1  0  0  0
  5 19  1  0  0  0
  6 21  1  0  0  0
  6  7  1  0  0  0
  8 22  1  0  0  0
  8  9  1  0  0  0
 10 11  1  0  0  0
 11 29  1  0  0  0
 12  7  1  0  0  0
 14 15  1  0  0  0
 15 32  1  0  0  0
 16 31  1  0  0  0
 17 14  1  0  0  0
 17 27  1  0  0  0
 28 19  1  0  0  0
 28 21  1  0  0  0
 28 22  1  0  0  0
 31 13  1  0  0  0
 32 16  1  0  0  0
  7  8  2  0  0  0
  9 10  2  0  0  0
 11 12  2  0  0  0
 13 14  2  0  0  0
 15 25  2  0  0  0
 16 26  2  0  0  0
 28 20  2  0  0  0
M  END
> <rmsd>
0.50557673

$$$$
PubChem-158232076


 29 32  0  0  0  0  0  0  0  0999 V2000
    1.2687   32.6042   59.8583 C   0  0  0  0  0
    2.7523   32.8451   59.7728 C   0  0  0  0  0
    3.2309   34.0864   59.3451 C   0  0  0  0  0
    4.6048   34.2897   59.1870 C   0  0  0  0  0
    5.5023   33.2500   59.4489 C   0  0  0  0  0
    5.0294   32.0069   59.8797 C   0  0  0  0  0
    3.6577   31.7989   60.0499 C   0  0  0  0  0
    1.4996   28.4324   59.3260 C   0  0  0  0  0
    1.9097   28.3768   57.8538 C   0  0  0  0  0
    2.9716   29.4472   57.5773 C   0  0  0  0  0
    2.1637   30.5448   56.9469 C   0  0  0  0  0
    1.0339   29.7844   56.2965 C   0  0  0  0  0
   -0.7914   31.0472   57.3284 C   0  0  0  0  0
   -1.9410   31.8291   57.2500 C   0  0  0  0  0
   -2.4395   32.1444   55.9899 C   0  0  0  0  0
   -0.6855   30.9282   54.9686 C   0  0  0  0  0
    3.2009   30.5666   60.5226 O   0  0  0  0  0
    1.3573   29.5943   62.1616 O   0  0  0  0  0
    0.9099   31.9353   61.0417 O   0  0  0  0  0
    0.7404   29.5751   59.5973 O   0  0  0  0  0
    0.7797   28.6120   57.0374 O   0  0  0  0  0
   -3.4760   32.8491   55.8812 O   0  0  0  0  0
   -0.1263   30.5252   53.9129 O   0  0  0  0  0
    2.8941   31.2578   55.9928 O   0  0  0  0  0
    3.9463   28.9829   56.6845 O   0  0  0  0  0
    1.5327   30.3646   60.8726 P   0  0  0  0  0
   -0.1733   30.6062   56.1952 N   0  0  0  0  0
   -1.8072   31.6906   54.8778 N   0  0  0  0  0
    2.5118   26.7207   57.5449 Cl  0  0  0  0  0
  1  2  1  0  0  0
  1 19  1  0  0  0
  3  4  1  0  0  0
  5  6  1  0  0  0
  7 17  1  0  0  0
  7  2  1  0  0  0
  8 20  1  0  0  0
  9  8  1  0  0  0
  9 10  1  0  0  0
  9 29  1  0  0  0
  9 21  1  0  0  0
 10 11  1  0  0  0
 10 25  1  0  0  0
 11 12  1  0  0  0
 11 24  1  0  0  0
 12 21  1  0  0  0
 12 27  1  0  0  0
 14 15  1  0  0  0
 15 28  1  0  0  0
 16 27  1  0  0  0
 26 17  1  0  0  0
 26 19  1  0  0  0
 26 20  1  0  0  0
 27 13  1  0  0  0
 28 16  1  0  0  0
  2  3  2  0  0  0
  4  5  2  0  0  0
  6  7  2  0  0  0
 13 14  2  0  0  0
 15 22  2  0  0  0
 16 23  2  0  0  0
 26 18  2  0  0  0
M  END
> <rmsd>
0.337319881

$$$$
PubChem-158232075 PubChem-158232079


 29 32  0  0  0  0  0  0  0  0999 V2000
    1.1287   29.7362   56.0966 C   0  0  0  0  0
    2.3673   30.5559   56.3957 C   0  0  0  0  0
    3.2662   29.5691   57.0840 C   0  0  0  0  0
    2.2591   28.6055   57.7293 C   0  0  0  0  0
    2.1058   28.9349   59.2212 C   0  0  0  0  0
    2.7676   30.4208   63.1767 C   0  0  0  0  0
    2.1218   29.1228   63.5717 C   0  0  0  0  0
    2.6265   28.3804   64.6428 C   0  0  0  0  0
    1.9722   27.2143   65.0523 C   0  0  0  0  0
    0.8094   26.7954   64.3971 C   0  0  0  0  0
    0.3039   27.5344   63.3227 C   0  0  0  0  0
    0.9620   28.6930   62.9000 C   0  0  0  0  0
   -0.4380   31.2115   57.2481 C   0  0  0  0  0
   -1.5631   32.0298   57.2978 C   0  0  0  0  0
   -2.3030   32.2035   56.1346 C   0  0  0  0  0
   -0.8203   30.7849   54.9542 C   0  0  0  0  0
    1.0031   28.7439   57.0918 O   0  0  0  0  0
    1.6340   30.2534   59.3789 O   0  0  0  0  0
    0.9049   31.9541   61.2447 O   0  0  0  0  0
    3.0160   30.4784   61.7945 O   0  0  0  0  0
    0.4820   29.4028   61.7983 O   0  0  0  0  0
    4.0779   28.9145   56.1485 O   0  0  0  0  0
    2.9372   31.0725   55.2272 O   0  0  0  0  0
   -3.3263   32.9352   56.1420 O   0  0  0  0  0
   -0.5062   30.2306   53.8673 O   0  0  0  0  0
    1.4897   30.5743   61.0456 P   0  0  0  0  0
    2.7771   26.8927   57.5957 Cl  0  0  0  0  0
   -0.0680   30.5951   56.0871 N   0  0  0  0  0
   -1.9210   31.5820   54.9913 N   0  0  0  0  0
  1  2  1  0  0  0
  1 28  1  0  0  0
  1 17  1  0  0  0
  2  3  1  0  0  0
  2 23  1  0  0  0
  3  4  1  0  0  0
  3 22  1  0  0  0
  4 17  1  0  0  0
  4  5  1  0  0  0
  4 27  1  0  0  0
  5 18  1  0  0  0
  6 20  1  0  0  0
  6  7  1  0  0  0
  8  9  1  0  0  0
 10 11  1  0  0  0
 12 21  1  0  0  0
 12  7  1  0  0  0
 14 15  1  0  0  0
 15 29  1  0  0  0
 16 28  1  0  0  0
 26 18  1  0  0  0
 26 20  1  0  0  0
 26 21  1  0  0  0
 28 13  1  0  0  0
 29 16  1  0  0  0
  7  8  2  0  0  0
  9 10  2  0  0  0
 11 12  2  0  0  0
 13 14  2  0  0  0
 15 24  2  0  0  0
 16 25  2  0  0  0
 26 19  2  0  0  0
M  END
> <rmsd>
0.493996441

$$$$
PubChem-158101680


 31 34  0  0  0  0  0  0  0  0999 V2000
    2.1837   28.9339   59.1748 C   0  0  0  0  0
    2.3391   28.6304   57.6794 C   0  0  0  0  0
    3.3273   29.6054   57.0375 C   0  0  0  0  0
    2.4232   30.5902   56.3523 C   0  0  0  0  0
    1.1741   29.7817   56.0936 C   0  0  0  0  0
   -0.3582   31.2566   57.2998 C   0  0  0  0  0
   -1.4930   32.0601   57.3692 C   0  0  0  0  0
   -2.2841   32.1881   56.2232 C   0  0  0  0  0
   -0.8069   30.7718   55.0298 C   0  0  0  0  0
   -1.8528   32.7242   58.6561 C   0  0  0  0  0
    2.0786   32.8907   61.0162 C   0  0  0  0  0
    3.1259   32.6978   62.0772 C   0  0  0  0  0
    3.7415   33.8041   62.6688 C   0  0  0  0  0
    4.7686   33.6164   63.5987 C   0  0  0  0  0
    5.1862   32.3235   63.9312 C   0  0  0  0  0
    4.5698   31.2142   63.3439 C   0  0  0  0  0
    3.5327   31.3950   62.4242 C   0  0  0  0  0
    1.0819   28.7442   57.0437 O   0  0  0  0  0
   -3.3274   32.8941   56.2371 O   0  0  0  0  0
   -0.5082   30.1926   53.9505 O   0  0  0  0  0
   -2.5636   31.8354   59.4625 O   0  0  0  0  0
    2.9637   31.0577   55.1518 O   0  0  0  0  0
    4.1352   28.9413   56.1057 O   0  0  0  0  0
    1.6492   30.2256   59.3475 O   0  0  0  0  0
    0.3620   29.5650   61.5593 O   0  0  0  0  0
    0.9382   32.1094   61.2669 O   0  0  0  0  0
    2.8919   30.2841   61.8728 O   0  0  0  0  0
   -0.0211   30.6259   56.1391 N   0  0  0  0  0
   -1.9233   31.5456   55.0828 N   0  0  0  0  0
    2.7906   27.3259   57.5469 F   0  0  0  0  0
    1.4192   30.4984   61.0135 P   0  0  0  0  0
  1  2  1  0  0  0
  1 24  1  0  0  0
  2  3  1  0  0  0
  2 30  1  0  0  0
  2 18  1  0  0  0
  3  4  1  0  0  0
  3 23  1  0  0  0
  4  5  1  0  0  0
  4 22  1  0  0  0
  5 18  1  0  0  0
  5 28  1  0  0  0
  7  8  1  0  0  0
  8 29  1  0  0  0
  9 28  1  0  0  0
 10  7  1  0  0  0
 10 21  1  0  0  0
 11 26  1  0  0  0
 11 12  1  0  0  0
 13 14  1  0  0  0
 15 16  1  0  0  0
 17 27  1  0  0  0
 17 12  1  0  0  0
 28  6  1  0  0  0
 29  9  1  0  0  0
 31 24  1  0  0  0
 31 26  1  0  0  0
 31 27  1  0  0  0
  6  7  2  0  0  0
  8 19  2  0  0  0
  9 20  2  0  0  0
 12 13  2  0  0  0
 14 15  2  0  0  0
 16 17  2  0  0  0
 31 25  2  0  0  0
M  END
> <rmsd>
0.556517482

$$$$
PubChem-118302127


 31 34  0  0  0  0  0  0  0  0999 V2000
    3.1950   29.4587   62.3419 C   0  0  0  0  0
    2.2556   29.3199   63.5088 C   0  0  0  0  0
    2.7437   28.9159   64.7544 C   0  0  0  0  0
    1.8601   28.7127   65.8187 C   0  0  0  0  0
    0.4872   28.9058   65.6369 C   0  0  0  0  0
   -0.0054   29.3141   64.3937 C   0  0  0  0  0
    0.8733   29.5308   63.3280 C   0  0  0  0  0
    2.5635   29.6802   58.8102 C   0  0  0  0  0
    2.5568   28.8474   57.5237 C   0  0  0  0  0
    3.4755   29.5389   56.5110 C   0  0  0  0  0
    2.5444   30.4252   55.7461 C   0  0  0  0  0
    1.2082   29.7075   55.9020 C   0  0  0  0  0
   -0.2052   31.2721   57.1534 C   0  0  0  0  0
   -1.3113   32.1111   57.2603 C   0  0  0  0  0
   -2.1449   32.2475   56.1548 C   0  0  0  0  0
   -0.7881   30.7518   54.9211 C   0  0  0  0  0
    3.0192   27.4124   57.8273 C   0  0  0  0  0
    0.3768   29.9887   62.1054 O   0  0  0  0  0
    1.0237   31.7840   60.2778 O   0  0  0  0  0
    2.9813   30.6561   61.6379 O   0  0  0  0  0
    1.5491   29.2700   59.6803 O   0  0  0  0  0
    1.2469   28.8188   56.9967 O   0  0  0  0  0
   -3.1524   32.9983   56.2148 O   0  0  0  0  0
   -0.5700   30.1342   53.8439 O   0  0  0  0  0
    2.5296   31.6922   56.3355 O   0  0  0  0  0
    4.0471   28.6229   55.6212 O   0  0  0  0  0
    1.4727   30.4695   60.8756 P   0  0  0  0  0
    0.0536   30.6083   55.9897 N   0  0  0  0  0
   -1.8713   31.5682   55.0120 N   0  0  0  0  0
    4.2618   27.4074   58.4386 F   0  0  0  0  0
    2.1042   26.7478   58.6254 F   0  0  0  0  0
  1  2  1  0  0  0
  1 20  1  0  0  0
  3  4  1  0  0  0
  5  6  1  0  0  0
  7 18  1  0  0  0
  7  2  1  0  0  0
  8 21  1  0  0  0
  9  8  1  0  0  0
  9 10  1  0  0  0
  9 17  1  0  0  0
  9 22  1  0  0  0
 10 11  1  0  0  0
 10 26  1  0  0  0
 11 12  1  0  0  0
 11 25  1  0  0  0
 12 22  1  0  0  0
 12 28  1  0  0  0
 14 15  1  0  0  0
 15 29  1  0  0  0
 16 28  1  0  0  0
 17 30  1  0  0  0
 17 31  1  0  0  0
 27 18  1  0  0  0
 27 20  1  0  0  0
 27 21  1  0  0  0
 28 13  1  0  0  0
 29 16  1  0  0  0
  2  3  2  0  0  0
  4  5  2  0  0  0
  6  7  2  0  0  0
 13 14  2  0  0  0
 15 23  2  0  0  0
 16 24  2  0  0  0
 27 19  2  0  0  0
M  END
> <rmsd>
0.646580696

$$$$
PubChem-10624481


 31 33  0  0  0  0  0  0  0  0999 V2000
    2.7897   32.1424   54.9091 C   0  0  0  0  0
    2.3070   30.4354   56.2284 C   0  0  0  0  0
    3.2833   29.5684   56.9718 C   0  0  0  0  0
    2.3794   28.6704   57.7908 C   0  0  0  0  0
    2.3698   29.1075   59.2519 C   0  0  0  0  0
   -0.7245   31.5943   60.6144 C   0  0  0  0  0
   -1.1874   32.7116   59.6989 C   0  0  0  0  0
   -2.2732   32.1738   58.7838 C   0  0  0  0  0
   -1.7164   31.7317   57.4623 C   0  0  0  0  0
   -0.6326   30.8537   57.4036 C   0  0  0  0  0
    1.0586   29.5820   56.1776 C   0  0  0  0  0
   -0.7163   30.8550   55.0429 C   0  0  0  0  0
   -2.2775   32.1623   56.2555 C   0  0  0  0  0
    0.5337   29.3961   62.9923 C   0  0  0  0  0
    1.2038   28.2692   63.7521 C   0  0  0  0  0
   -0.7595   28.5298   66.0871 C   0  0  0  0  0
    1.8001   30.1900   66.0549 C   0  0  0  0  0
    1.9452   27.1852   66.4901 C   0  0  0  0  0
    2.7520   30.7488   54.9405 O   0  0  0  0  0
    1.8217   30.3883   59.3809 O   0  0  0  0  0
    2.7738   30.8064   61.7794 O   0  0  0  0  0
    0.4805   31.9401   61.2276 O   0  0  0  0  0
    1.0688   28.6845   57.2672 O   0  0  0  0  0
   -0.2783   30.4636   53.9276 O   0  0  0  0  0
   -3.2522   32.9598   56.2489 O   0  0  0  0  0
    0.6990   29.1890   61.6222 O   0  0  0  0  0
    4.0269   28.7769   56.0919 O   0  0  0  0  0
    1.4783   30.5804   61.0307 P   0  0  0  0  0
   -0.1387   30.4279   56.2067 N   0  0  0  0  0
   -1.7700   31.7132   55.0792 N   0  0  0  0  0
    1.0401   28.5481   65.5915 Si  0  0  0  0  0
  1 19  1  0  0  0
  2 19  1  0  0  0
  2  3  1  0  0  0
  3  4  1  0  0  0
  3 27  1  0  0  0
  4  5  1  0  0  0
  4 23  1  0  0  0
  5 20  1  0  0  0
  6 22  1  0  0  0
  6  7  1  0  0  0
  7  8  1  0  0  0
  8  9  1  0  0  0
 10 29  1  0  0  0
 11 29  1  0  0  0
 11 23  1  0  0  0
 11  2  1  0  0  0
 12 30  1  0  0  0
 13  9  1  0  0  0
 14 26  1  0  0  0
 14 15  1  0  0  0
 15 31  1  0  0  0
 28 20  1  0  0  0
 28 22  1  0  0  0
 28 26  1  0  0  0
 29 12  1  0  0  0
 30 13  1  0  0  0
 31 16  1  0  0  0
 31 17  1  0  0  0
 31 18  1  0  0  0
  9 10  2  0  0  0
 12 24  2  0  0  0
 13 25  2  0  0  0
 28 21  2  0  0  0
M  END
> <rmsd>
0.580104351

$$$$
PubChem-158117705


 33 36  0  0  0  0  0  0  0  0999 V2000
    2.0224   28.8574   59.2411 C   0  0  0  0  0
    2.1533   28.5791   57.7396 C   0  0  0  0  0
    3.1928   29.5164   57.1177 C   0  0  0  0  0
    2.3435   30.5321   56.4067 C   0  0  0  0  0
    1.0715   29.7680   56.1282 C   0  0  0  0  0
   -0.4503   31.3486   57.2125 C   0  0  0  0  0
   -1.5475   32.2077   57.1951 C   0  0  0  0  0
   -2.2607   32.3503   55.9993 C   0  0  0  0  0
   -0.8085   30.8081   54.9375 C   0  0  0  0  0
   -1.9066   32.9344   58.3858 C   0  0  0  0  0
   -2.2089   33.5450   59.3809 C   0  0  0  0  0
   -0.8275   31.0491   61.3900 C   0  0  0  0  0
   -1.0348   30.0425   62.4876 C   0  0  0  0  0
   -0.0452   29.0710   62.7396 C   0  0  0  0  0
   -0.2736   28.0715   63.6961 C   0  0  0  0  0
   -1.4854   28.0633   64.4087 C   0  0  0  0  0
   -2.4582   29.0379   64.1661 C   0  0  0  0  0
   -2.2349   30.0246   63.2032 C   0  0  0  0  0
    0.5545   26.0518   64.8667 C   0  0  0  0  0
    0.9007   28.7762   57.1142 O   0  0  0  0  0
   -3.2478   33.1323   55.9235 O   0  0  0  0  0
   -0.4881   30.1740   53.8956 O   0  0  0  0  0
    2.9277   30.9669   55.2139 O   0  0  0  0  0
    4.0026   28.8196   56.2105 O   0  0  0  0  0
    1.5251   30.1607   59.4474 O   0  0  0  0  0
    2.9541   30.9853   61.4997 O   0  0  0  0  0
    0.4203   31.6877   61.4969 O   0  0  0  0  0
    1.1705   29.1114   62.0504 O   0  0  0  0  0
    0.7151   27.1078   63.9279 O   0  0  0  0  0
   -0.0875   30.6627   56.0907 N   0  0  0  0  0
   -1.8791   31.6458   54.9033 N   0  0  0  0  0
    2.5323   27.2543   57.5749 F   0  0  0  0  0
    1.5746   30.4984   61.1177 P   0  0  0  0  0
  1  2  1  0  0  0
  1 25  1  0  0  0
  2  3  1  0  0  0
  2 32  1  0  0  0
  2 20  1  0  0  0
  3  4  1  0  0  0
  3 24  1  0  0  0
  4  5  1  0  0  0
  4 23  1  0  0  0
  5 20  1  0  0  0
  5 30  1  0  0  0
  7  8  1  0  0  0
  7 10  1  0  0  0
  8 31  1  0  0  0
  9 30  1  0  0  0
 12 27  1  0  0  0
 12 13  1  0  0  0
 14 28  1  0  0  0
 14 15  1  0  0  0
 15 29  1  0  0  0
 16 17  1  0  0  0
 18 13  1  0  0  0
 19 29  1  0  0  0
 30  6  1  0  0  0
 31  9  1  0  0  0
 33 25  1  0  0  0
 33 27  1  0  0  0
 33 28  1  0  0  0
  6  7  2  0  0  0
  8 21  2  0  0  0
  9 22  2  0  0  0
 13 14  2  0  0  0
 15 16  2  0  0  0
 17 18  2  0  0  0
 33 26  2  0  0  0
 10 11  3  0  0  0
M  END
> <rmsd>
0.555018902

$$$$
PubChem-156804398


 30 33  0  0  0  0  0  0  0  0999 V2000
    1.1049   32.5928   59.8735 C   0  0  0  0  0
    2.5716   32.9114   59.7568 C   0  0  0  0  0
    2.9746   34.1786   59.3270 C   0  0  0  0  0
    4.3321   34.4547   59.1396 C   0  0  0  0  0
    5.2885   33.4621   59.3742 C   0  0  0  0  0
    4.8912   32.1934   59.8068 C   0  0  0  0  0
    3.5365   31.9127   60.0062 C   0  0  0  0  0
    1.5308   28.4266   59.3213 C   0  0  0  0  0
    1.9314   28.3912   57.8466 C   0  0  0  0  0
    2.9868   29.4600   57.5713 C   0  0  0  0  0
    2.1917   30.5453   56.9049 C   0  0  0  0  0
    1.0483   29.7840   56.2793 C   0  0  0  0  0
   -0.7441   31.0699   57.3346 C   0  0  0  0  0
   -1.8864   31.8622   57.2751 C   0  0  0  0  0
   -2.4127   32.1734   56.0197 C   0  0  0  0  0
   -0.6895   30.9291   54.9749 C   0  0  0  0  0
    3.1559   30.6553   60.4805 O   0  0  0  0  0
    1.4021   29.5766   62.1511 O   0  0  0  0  0
    0.8078   31.8977   61.0588 O   0  0  0  0  0
    0.7328   29.5411   59.5999 O   0  0  0  0  0
    0.7968   28.6212   57.0358 O   0  0  0  0  0
   -3.4447   32.8872   55.9163 O   0  0  0  0  0
   -0.1564   30.5115   53.9115 O   0  0  0  0  0
    2.9302   31.2182   55.9285 O   0  0  0  0  0
    3.9730   28.9654   56.7085 O   0  0  0  0  0
    1.5088   30.3633   60.8644 P   0  0  0  0  0
   -0.1545   30.6135   56.1931 N   0  0  0  0  0
   -1.8059   31.7013   54.9006 N   0  0  0  0  0
   -2.6219   32.4420   58.7593 Cl  0  0  0  0  0
    2.4323   27.1289   57.5743 F   0  0  0  0  0
  1  2  1  0  0  0
  1 19  1  0  0  0
  3  4  1  0  0  0
  5  6  1  0  0  0
  7 17  1  0  0  0
  7  2  1  0  0  0
  8 20  1  0  0  0
  8  9  1  0  0  0
  9 10  1  0  0  0
  9 30  1  0  0  0
  9 21  1  0  0  0
 10 11  1  0  0  0
 10 25  1  0  0  0
 11 12  1  0  0  0
 11 24  1  0  0  0
 12 21  1  0  0  0
 12 27  1  0  0  0
 14 15  1  0  0  0
 14 29  1  0  0  0
 15 28  1  0  0  0
 16 27  1  0  0  0
 26 17  1  0  0  0
 26 19  1  0  0  0
 26 20  1  0  0  0
 27 13  1  0  0  0
 28 16  1  0  0  0
  2  3  2  0  0  0
  4  5  2  0  0  0
  6  7  2  0  0  0
 13 14  2  0  0  0
 15 22  2  0  0  0
 16 23  2  0  0  0
 26 18  2  0  0  0
M  END
> <rmsd>
0.356452733

$$$$
PubChem-157998407


 30 33  0  0  0  0  0  0  0  0999 V2000
    1.0012   29.7676   56.1828 C   0  0  0  0  0
    2.1520   30.5756   56.7501 C   0  0  0  0  0
    2.9392   29.5570   57.5245 C   0  0  0  0  0
    1.8800   28.5135   57.8747 C   0  0  0  0  0
    1.4791   28.6515   59.3400 C   0  0  0  0  0
    3.8158   30.7921   62.0605 C   0  0  0  0  0
    3.7144   29.5242   62.8623 C   0  0  0  0  0
    4.8331   29.0222   63.5329 C   0  0  0  0  0
    4.7122   27.8838   64.3359 C   0  0  0  0  0
    3.4724   27.2516   64.4744 C   0  0  0  0  0
    2.3523   27.7493   63.8011 C   0  0  0  0  0
    2.4700   28.8792   62.9867 C   0  0  0  0  0
   -0.7691   31.1090   57.1899 C   0  0  0  0  0
   -1.9074   31.9063   57.1305 C   0  0  0  0  0
   -2.4565   32.1846   55.8787 C   0  0  0  0  0
   -0.7611   30.9003   54.8346 C   0  0  0  0  0
    0.7417   28.6899   57.0556 O   0  0  0  0  0
    0.8688   29.8864   59.5807 O   0  0  0  0  0
    0.9761   31.8020   61.3684 O   0  0  0  0  0
    3.2668   30.6403   60.7759 O   0  0  0  0  0
    1.3606   29.3456   62.2798 O   0  0  0  0  0
    3.9398   28.9910   56.7256 O   0  0  0  0  0
    2.9071   31.1751   55.7362 O   0  0  0  0  0
   -3.4867   32.9012   55.7747 O   0  0  0  0  0
   -0.2576   30.4575   53.7673 O   0  0  0  0  0
    1.5873   30.4690   60.9992 P   0  0  0  0  0
    2.3734   27.2326   57.6893 F   0  0  0  0  0
   -0.2001   30.6100   56.0537 N   0  0  0  0  0
   -1.8740   31.6780   54.7631 N   0  0  0  0  0
   -2.6118   32.5305   58.6118 Cl  0  0  0  0  0
  1  2  1  0  0  0
  1 28  1  0  0  0
  1 17  1  0  0  0
  2  3  1  0  0  0
  2 23  1  0  0  0
  3  4  1  0  0  0
  3 22  1  0  0  0
  4 17  1  0  0  0
  4  5  1  0  0  0
  4 27  1  0  0  0
  5 18  1  0  0  0
  6 20  1  0  0  0
  6  7  1  0  0  0
  8  9  1  0  0  0
 10 11  1  0  0  0
 12 21  1  0  0  0
 12  7  1  0  0  0
 14 15  1  0  0  0
 14 30  1  0  0  0
 15 29  1  0  0  0
 16 28  1  0  0  0
 26 18  1  0  0  0
 26 20  1  0  0  0
 26 21  1  0  0  0
 28 13  1  0  0  0
 29 16  1  0  0  0
  7  8  2  0  0  0
  9 10  2  0  0  0
 11 12  2  0  0  0
 13 14  2  0  0  0
 15 24  2  0  0  0
 16 25  2  0  0  0
 26 19  2  0  0  0
M  END
> <rmsd>
0.378318638

$$$$
PubChem-158986984


 32 35  0  0  0  0  0  0  0  0999 V2000
    2.1436   28.8991   59.1873 C   0  0  0  0  0
    2.2943   28.6129   57.6886 C   0  0  0  0  0
    3.2889   29.5903   57.0593 C   0  0  0  0  0
    2.3910   30.5844   56.3794 C   0  0  0  0  0
    1.1442   29.7787   56.1044 C   0  0  0  0  0
   -0.4115   31.2535   57.2837 C   0  0  0  0  0
   -1.5464   32.0580   57.3260 C   0  0  0  0  0
   -2.3015   32.2026   56.1633 C   0  0  0  0  0
   -0.8080   30.7802   55.0003 C   0  0  0  0  0
    3.6820   31.5049   61.4162 C   0  0  0  0  0
    3.1069   32.7635   62.0027 C   0  0  0  0  0
    3.9454   33.6964   62.6176 C   0  0  0  0  0
    3.4194   34.8994   63.0957 C   0  0  0  0  0
    2.0577   35.1776   62.9452 C   0  0  0  0  0
    1.2116   34.2495   62.3298 C   0  0  0  0  0
    1.7295   33.0290   61.8693 C   0  0  0  0  0
   -0.2373   34.5653   62.1925 C   0  0  0  0  0
    4.3112   35.8905   63.7513 C   0  0  0  0  0
    1.0369   28.7446   57.0562 O   0  0  0  0  0
   -3.3348   32.9217   56.1603 O   0  0  0  0  0
   -0.4873   30.2027   53.9265 O   0  0  0  0  0
    2.9400   31.0636   55.1874 O   0  0  0  0  0
    4.0984   28.9319   56.1249 O   0  0  0  0  0
    1.6111   30.1897   59.3757 O   0  0  0  0  0
    0.4863   29.4900   61.6654 O   0  0  0  0  0
    2.9654   30.3683   61.8259 O   0  0  0  0  0
    0.8834   32.0722   61.2995 O   0  0  0  0  0
   -0.0499   30.6254   56.1281 N   0  0  0  0  0
   -1.9193   31.5632   55.0283 N   0  0  0  0  0
   -1.9004   32.6817   58.4770 F   0  0  0  0  0
    2.7362   27.3071   57.5384 F   0  0  0  0  0
    1.4558   30.4730   61.0486 P   0  0  0  0  0
  1  2  1  0  0  0
  1 24  1  0  0  0
  2  3  1  0  0  0
  2 31  1  0  0  0
  2 19  1  0  0  0
  3  4  1  0  0  0
  3 23  1  0  0  0
  4  5  1  0  0  0
  4 22  1  0  0  0
  5 19  1  0  0  0
  5 28  1  0  0  0
  7  8  1  0  0  0
  7 30  1  0  0  0
  8 29  1  0  0  0
  9 28  1  0  0  0
 10 26  1  0  0  0
 10 11  1  0  0  0
 12 13  1  0  0  0
 14 15  1  0  0  0
 16 27  1  0  0  0
 16 11  1  0  0  0
 17 15  1  0  0  0
 18 13  1  0  0  0
 28  6  1  0  0  0
 29  9  1  0  0  0
 32 24  1  0  0  0
 32 26  1  0  0  0
 32 27  1  0  0  0
  6  7  2  0  0  0
  8 20  2  0  0  0
  9 21  2  0  0  0
 11 12  2  0  0  0
 13 14  2  0  0  0
 15 16  2  0  0  0
 32 25  2  0  0  0
M  END
> <rmsd>
0.512251556

$$$$
PubChem-161467896 PubChem-161467899


 32 35  0  0  0  0  0  0  0  0999 V2000
    1.1908   29.7187   56.0836 C   0  0  0  0  0
    2.4324   30.5537   56.3260 C   0  0  0  0  0
    3.3621   29.5944   57.0124 C   0  0  0  0  0
    2.3926   28.6254   57.6911 C   0  0  0  0  0
    2.2664   28.9517   59.1842 C   0  0  0  0  0
   -0.2592   30.1288   62.7105 C   0  0  0  0  0
   -0.8674   31.4927   62.5472 C   0  0  0  0  0
   -2.1048   31.7835   63.1268 C   0  0  0  0  0
   -2.6310   33.0749   63.0372 C   0  0  0  0  0
   -1.9156   34.0791   62.3782 C   0  0  0  0  0
   -0.6752   33.7961   61.7974 C   0  0  0  0  0
   -0.1527   32.4951   61.8633 C   0  0  0  0  0
    0.0591   34.8792   61.0864 C   0  0  0  0  0
   -0.3556   31.1424   57.3208 C   0  0  0  0  0
   -1.4892   31.9430   57.4305 C   0  0  0  0  0
   -2.2789   32.1303   56.2937 C   0  0  0  0  0
   -0.8041   30.7732   55.0291 C   0  0  0  0  0
   -1.8534   32.5364   58.7495 C   0  0  0  0  0
    1.1203   28.7231   57.0810 O   0  0  0  0  0
    1.8340   30.2828   59.3510 O   0  0  0  0  0
    2.7078   30.2171   61.8524 O   0  0  0  0  0
    0.1657   29.6002   61.4802 O   0  0  0  0  0
    1.0565   32.1856   61.2335 O   0  0  0  0  0
    4.1548   28.9191   56.0758 O   0  0  0  0  0
    2.9636   31.0446   55.1288 O   0  0  0  0  0
   -3.3215   32.8358   56.3428 O   0  0  0  0  0
   -0.5123   30.2581   53.9163 O   0  0  0  0  0
   -2.6057   31.6220   59.4863 O   0  0  0  0  0
    1.4998   30.5427   61.0012 P   0  0  0  0  0
    2.8462   27.3206   57.5699 F   0  0  0  0  0
   -0.0144   30.5642   56.1324 N   0  0  0  0  0
   -1.9179   31.5466   55.1235 N   0  0  0  0  0
  1  2  1  0  0  0
  1 31  1  0  0  0
  1 19  1  0  0  0
  2  3  1  0  0  0
  2 25  1  0  0  0
  3  4  1  0  0  0
  3 24  1  0  0  0
  4 19  1  0  0  0
  4  5  1  0  0  0
  4 30  1  0  0  0
  5 20  1  0  0  0
  6 22  1  0  0  0
  6  7  1  0  0  0
  8  9  1  0  0  0
 10 11  1  0  0  0
 12 23  1  0  0  0
 12  7  1  0  0  0
 13 11  1  0  0  0
 15 16  1  0  0  0
 16 32  1  0  0  0
 17 31  1  0  0  0
 18 15  1  0  0  0
 18 28  1  0  0  0
 29 20  1  0  0  0
 29 22  1  0  0  0
 29 23  1  0  0  0
 31 14  1  0  0  0
 32 17  1  0  0  0
  7  8  2  0  0  0
  9 10  2  0  0  0
 11 12  2  0  0  0
 14 15  2  0  0  0
 16 26  2  0  0  0
 17 27  2  0  0  0
 29 21  2  0  0  0
M  END
> <rmsd>
0.611146212

$$$$
PubChem-161467896 PubChem-161467899


 32 35  0  0  0  0  0  0  0  0999 V2000
    1.0819   29.7154   56.0978 C   0  0  0  0  0
    2.3410   30.5072   56.3884 C   0  0  0  0  0
    3.2057   29.5164   57.1121 C   0  0  0  0  0
    2.1775   28.5740   57.7423 C   0  0  0  0  0
    2.0454   28.8635   59.2409 C   0  0  0  0  0
   -0.7952   31.2320   61.3097 C   0  0  0  0  0
   -1.1008   30.2553   62.4103 C   0  0  0  0  0
   -2.3076   30.3417   63.1095 C   0  0  0  0  0
   -2.6237   29.3838   64.0775 C   0  0  0  0  0
   -1.7389   28.3336   64.3407 C   0  0  0  0  0
   -0.5309   28.2383   63.6420 C   0  0  0  0  0
   -0.1986   29.2084   62.6832 C   0  0  0  0  0
    0.3981   27.1138   63.9449 C   0  0  0  0  0
   -0.4476   31.2618   57.2027 C   0  0  0  0  0
   -1.5439   32.1210   57.2243 C   0  0  0  0  0
   -2.2608   32.3077   56.0408 C   0  0  0  0  0
   -0.8161   30.8068   54.9122 C   0  0  0  0  0
   -1.8986   32.8454   58.4798 C   0  0  0  0  0
    0.9209   28.7541   57.1175 O   0  0  0  0  0
    1.5663   30.1739   59.4358 O   0  0  0  0  0
    2.9620   30.8938   61.5503 O   0  0  0  0  0
    0.4926   31.7790   61.4424 O   0  0  0  0  0
    1.0293   29.1518   62.0171 O   0  0  0  0  0
    4.0241   28.8220   56.2119 O   0  0  0  0  0
    2.9368   30.9750   55.2126 O   0  0  0  0  0
   -3.2527   33.0843   56.0021 O   0  0  0  0  0
   -0.5072   30.2219   53.8396 O   0  0  0  0  0
   -1.1088   33.9893   58.6017 O   0  0  0  0  0
    1.5698   30.5070   61.1071 P   0  0  0  0  0
    2.5682   27.2529   57.5872 F   0  0  0  0  0
   -0.0881   30.6092   56.0589 N   0  0  0  0  0
   -1.8839   31.6473   54.9180 N   0  0  0  0  0
  1  2  1  0  0  0
  1 31  1  0  0  0
  1 19  1  0  0  0
  2  3  1  0  0  0
  2 25  1  0  0  0
  3  4  1  0  0  0
  3 24  1  0  0  0
  4 19  1  0  0  0
  4  5  1  0  0  0
  4 30  1  0  0  0
  5 20  1  0  0  0
  6 22  1  0  0  0
  6  7  1  0  0  0
  8  9  1  0  0  0
 10 11  1  0  0  0
 12 23  1  0  0  0
 12  7  1  0  0  0
 13 11  1  0  0  0
 15 16  1  0  0  0
 16 32  1  0  0  0
 17 31  1  0  0  0
 18 15  1  0  0  0
 18 28  1  0  0  0
 29 20  1  0  0  0
 29 22  1  0  0  0
 29 23  1  0  0  0
 31 14  1  0  0  0
 32 17  1  0  0  0
  7  8  2  0  0  0
  9 10  2  0  0  0
 11 12  2  0  0  0
 14 15  2  0  0  0
 16 26  2  0  0  0
 17 27  2  0  0  0
 29 21  2  0  0  0
M  END
> <rmsd>
0.520644546

$$$$
PubChem-158064188


 32 35  0  0  0  0  0  0  0  0999 V2000
    2.1662   28.9200   59.1790 C   0  0  0  0  0
    2.3255   28.6166   57.6840 C   0  0  0  0  0
    3.3161   29.5916   57.0456 C   0  0  0  0  0
    2.4141   30.5785   56.3608 C   0  0  0  0  0
    1.1658   29.7709   56.0964 C   0  0  0  0  0
   -0.3741   31.2363   57.3041 C   0  0  0  0  0
   -1.5080   32.0400   57.3724 C   0  0  0  0  0
   -2.2833   32.1916   56.2177 C   0  0  0  0  0
   -0.8036   30.7767   55.0252 C   0  0  0  0  0
   -1.8490   32.6857   58.6135 C   0  0  0  0  0
   -2.1323   33.2252   59.6537 C   0  0  0  0  0
    1.9962   32.9079   60.9736 C   0  0  0  0  0
    3.0743   32.7660   62.0113 C   0  0  0  0  0
    3.5346   31.4830   62.3654 C   0  0  0  0  0
    4.5996   31.3509   63.2610 C   0  0  0  0  0
    5.1908   32.4890   63.8184 C   0  0  0  0  0
    4.7182   33.7617   63.4818 C   0  0  0  0  0
    3.6649   33.9009   62.5730 C   0  0  0  0  0
    1.0705   28.7312   57.0440 O   0  0  0  0  0
   -3.3197   32.9084   56.2257 O   0  0  0  0  0
   -0.4981   30.2062   53.9433 O   0  0  0  0  0
    2.9581   31.0494   55.1632 O   0  0  0  0  0
    4.1245   28.9283   56.1138 O   0  0  0  0  0
    1.6245   30.2089   59.3503 O   0  0  0  0  0
    0.4098   29.5324   61.5994 O   0  0  0  0  0
    0.8902   32.0911   61.2621 O   0  0  0  0  0
    2.9197   30.3429   61.8445 O   0  0  0  0  0
   -0.0290   30.6159   56.1403 N   0  0  0  0  0
   -1.9149   31.5583   55.0746 N   0  0  0  0  0
    2.7773   27.3121   57.5524 F   0  0  0  0  0
    1.4210   30.4945   61.0175 P   0  0  0  0  0
    5.4586   35.1829   64.1849 Cl  0  0  0  0  0
  1  2  1  0  0  0
  1 24  1  0  0  0
  2  3  1  0  0  0
  2 30  1  0  0  0
  2 19  1  0  0  0
  3  4  1  0  0  0
  3 23  1  0  0  0
  4  5  1  0  0  0
  4 22  1  0  0  0
  5 19  1  0  0  0
  5 28  1  0  0  0
  7  8  1  0  0  0
  7 10  1  0  0  0
  8 29  1  0  0  0
  9 28  1  0  0  0
 12 26  1  0  0  0
 12 13  1  0  0  0
 14 27  1  0  0  0
 14 15  1  0  0  0
 16 17  1  0  0  0
 17 32  1  0  0  0
 18 13  1  0  0  0
 28  6  1  0  0  0
 29  9  1  0  0  0
 31 24  1  0  0  0
 31 26  1  0  0  0
 31 27  1  0  0  0
  6  7  2  0  0  0
  8 20  2  0  0  0
  9 21  2  0  0  0
 13 14  2  0  0  0
 15 16  2  0  0  0
 17 18  2  0  0  0
 31 25  2  0  0  0
 10 11  3  0  0  0
M  END
> <rmsd>
0.534404457

$$$$
PubChem-156803919


 33 36  0  0  0  0  0  0  0  0999 V2000
    3.7626   36.5365   61.3428 C   0  0  0  0  0
    3.5517   35.0690   61.4410 C   0  0  0  0  0
    4.4811   34.2739   62.1171 C   0  0  0  0  0
    4.2925   32.8913   62.2079 C   0  0  0  0  0
    3.1602   32.2993   61.6263 C   0  0  0  0  0
    2.2278   33.1049   60.9424 C   0  0  0  0  0
    2.4329   34.4834   60.8437 C   0  0  0  0  0
    1.0800   32.4698   60.2088 C   0  0  0  0  0
    2.4471   29.8745   59.0794 C   0  0  0  0  0
    2.4734   29.1684   57.7310 C   0  0  0  0  0
    3.4208   29.9199   56.8054 C   0  0  0  0  0
    2.4809   30.7942   56.0258 C   0  0  0  0  0
    1.1993   29.9959   56.0360 C   0  0  0  0  0
   -0.2117   31.7136   57.0559 C   0  0  0  0  0
   -1.3256   32.5509   57.0601 C   0  0  0  0  0
   -2.1937   32.4963   55.9567 C   0  0  0  0  0
   -0.8357   30.8353   54.9516 C   0  0  0  0  0
   -1.5272   33.4398   58.2154 C   0  0  0  0  0
    5.2974   32.0673   62.9351 C   0  0  0  0  0
    0.3752   31.5531   61.0085 O   0  0  0  0  0
    0.9039   29.4453   62.4704 O   0  0  0  0  0
    2.9548   30.9205   61.7305 O   0  0  0  0  0
    1.5513   29.2422   59.9455 O   0  0  0  0  0
    1.1748   29.1656   57.1750 O   0  0  0  0  0
   -3.2182   33.2266   55.8975 O   0  0  0  0  0
   -0.6291   30.0576   53.9810 O   0  0  0  0  0
   -2.5092   34.2245   58.2934 O   0  0  0  0  0
    2.9204   31.0030   54.7162 O   0  0  0  0  0
    4.0819   29.0236   55.9561 O   0  0  0  0  0
    1.4303   30.2513   61.3056 P   0  0  0  0  0
    0.0263   30.8707   56.0112 N   0  0  0  0  0
   -1.9276   31.6429   54.9352 N   0  0  0  0  0
    2.8983   27.8626   57.9189 F   0  0  0  0  0
  1  2  1  0  0  0
  3  4  1  0  0  0
  5  6  1  0  0  0
  5 22  1  0  0  0
  7  2  1  0  0  0
  8  6  1  0  0  0
  8 20  1  0  0  0
  9 23  1  0  0  0
  9 10  1  0  0  0
 10 11  1  0  0  0
 10 33  1  0  0  0
 10 24  1  0  0  0
 11 12  1  0  0  0
 11 29  1  0  0  0
 12 13  1  0  0  0
 12 28  1  0  0  0
 13 24  1  0  0  0
 13 31  1  0  0  0
 15 16  1  0  0  0
 15 18  1  0  0  0
 16 32  1  0  0  0
 17 31  1  0  0  0
 19  4  1  0  0  0
 30 20  1  0  0  0
 30 22  1  0  0  0
 30 23  1  0  0  0
 31 14  1  0  0  0
 32 17  1  0  0  0
  2  3  2  0  0  0
  4  5  2  0  0  0
  6  7  2  0  0  0
 14 15  2  0  0  0
 16 25  2  0  0  0
 17 26  2  0  0  0
 18 27  2  0  0  0
 30 21  2  0  0  0
M  END
> <rmsd>
0.714927197

$$$$
PubChem-156574190


 32 35  0  0  0  0  0  0  0  0999 V2000
    1.6556   26.2655   65.1057 C   0  0  0  0  0
    2.8017   28.1262   63.9424 C   0  0  0  0  0
    3.9932   27.9182   64.6568 C   0  0  0  0  0
    5.1078   28.7280   64.4272 C   0  0  0  0  0
    5.0432   29.7554   63.4839 C   0  0  0  0  0
    3.8698   29.9656   62.7562 C   0  0  0  0  0
    2.7403   29.1516   62.9875 C   0  0  0  0  0
    3.7826   31.1362   61.8137 C   0  0  0  0  0
    1.4584   28.5781   59.3494 C   0  0  0  0  0
    1.8583   28.4713   57.8798 C   0  0  0  0  0
    2.9310   29.5099   57.5575 C   0  0  0  0  0
    2.1555   30.5726   56.8323 C   0  0  0  0  0
    0.9957   29.8020   56.2491 C   0  0  0  0  0
   -0.7729   31.1664   57.2451 C   0  0  0  0  0
   -1.9060   31.9686   57.1495 C   0  0  0  0  0
   -2.4322   32.2246   55.8816 C   0  0  0  0  0
   -0.7277   30.9098   54.8946 C   0  0  0  0  0
    1.6749   27.3259   64.1599 O   0  0  0  0  0
    1.5654   29.3462   62.2558 O   0  0  0  0  0
    0.8391   31.7242   61.3543 O   0  0  0  0  0
    3.1812   30.7924   60.5900 O   0  0  0  0  0
    0.7818   29.7761   59.6009 O   0  0  0  0  0
    0.7254   28.6836   57.0629 O   0  0  0  0  0
   -3.4561   32.9451   55.7460 O   0  0  0  0  0
   -0.2034   30.4337   53.8516 O   0  0  0  0  0
    2.9052   31.1753   55.8189 O   0  0  0  0  0
    3.9146   28.9578   56.7271 O   0  0  0  0  0
    1.5539   30.4556   60.9469 P   0  0  0  0  0
   -0.1928   30.6472   56.1254 N   0  0  0  0  0
   -1.8345   31.6915   54.7855 N   0  0  0  0  0
   -2.6324   32.6271   58.6052 Cl  0  0  0  0  0
    2.3366   27.1896   57.6631 F   0  0  0  0  0
  1 18  1  0  0  0
  2 18  1  0  0  0
  3  4  1  0  0  0
  5  6  1  0  0  0
  7 19  1  0  0  0
  7  2  1  0  0  0
  8 21  1  0  0  0
  8  6  1  0  0  0
  9 22  1  0  0  0
  9 10  1  0  0  0
 10 11  1  0  0  0
 10 32  1  0  0  0
 10 23  1  0  0  0
 11 12  1  0  0  0
 11 27  1  0  0  0
 12 13  1  0  0  0
 12 26  1  0  0  0
 13 23  1  0  0  0
 13 29  1  0  0  0
 15 16  1  0  0  0
 15 31  1  0  0  0
 16 30  1  0  0  0
 17 29  1  0  0  0
 28 19  1  0  0  0
 28 21  1  0  0  0
 28 22  1  0  0  0
 29 14  1  0  0  0
 30 17  1  0  0  0
  2  3  2  0  0  0
  4  5  2  0  0  0
  6  7  2  0  0  0
 14 15  2  0  0  0
 16 24  2  0  0  0
 17 25  2  0  0  0
 28 20  2  0  0  0
M  END
> <rmsd>
0.433604032

$$$$
PubChem-11798863


 31 33  0  0  0  0  0  0  0  0999 V2000
    2.8420   32.1428   55.0297 C   0  0  0  0  0
    2.2894   30.3982   56.2742 C   0  0  0  0  0
    3.2374   29.5017   57.0195 C   0  0  0  0  0
    2.3017   28.5886   57.7828 C   0  0  0  0  0
    2.2169   29.0057   59.2477 C   0  0  0  0  0
   -0.8286   31.4590   60.6148 C   0  0  0  0  0
   -1.3425   32.5767   59.7276 C   0  0  0  0  0
   -2.3838   32.0129   58.7734 C   0  0  0  0  0
   -1.7780   31.6411   57.4520 C   0  0  0  0  0
   -0.6949   30.7633   57.3857 C   0  0  0  0  0
    1.0400   29.5551   56.1513 C   0  0  0  0  0
   -0.6838   30.9029   55.0273 C   0  0  0  0  0
   -2.2932   32.1387   56.2510 C   0  0  0  0  0
    2.7088   31.2128   63.0227 C   0  0  0  0  0
    3.8920   30.7557   63.8576 C   0  0  0  0  0
    5.3085   28.4026   65.1770 C   0  0  0  0  0
    4.1907   28.0869   62.3665 C   0  0  0  0  0
    2.2974   28.2978   64.7488 C   0  0  0  0  0
    2.7784   30.7489   55.0118 O   0  0  0  0  0
    1.5898   30.2503   59.3643 O   0  0  0  0  0
    0.8609   29.3160   61.7239 O   0  0  0  0  0
    0.3553   31.8492   61.2432 O   0  0  0  0  0
    1.0184   28.6010   57.1919 O   0  0  0  0  0
   -0.1982   30.5809   53.9094 O   0  0  0  0  0
   -3.2708   32.9335   56.2510 O   0  0  0  0  0
    2.9370   30.9318   61.6735 O   0  0  0  0  0
    3.9980   28.7297   56.1365 O   0  0  0  0  0
    1.4177   30.5422   61.0273 P   0  0  0  0  0
   -0.1551   30.4046   56.1865 N   0  0  0  0  0
   -1.7394   31.7579   55.0716 N   0  0  0  0  0
    3.9173   28.8890   64.0315 Si  0  0  0  0  0
  1 19  1  0  0  0
  2 19  1  0  0  0
  2  3  1  0  0  0
  3  4  1  0  0  0
  3 27  1  0  0  0
  4  5  1  0  0  0
  4 23  1  0  0  0
  5 20  1  0  0  0
  6 22  1  0  0  0
  6  7  1  0  0  0
  7  8  1  0  0  0
  8  9  1  0  0  0
 10 29  1  0  0  0
 11 29  1  0  0  0
 11 23  1  0  0  0
 11  2  1  0  0  0
 12 30  1  0  0  0
 13  9  1  0  0  0
 14 26  1  0  0  0
 14 15  1  0  0  0
 15 31  1  0  0  0
 28 20  1  0  0  0
 28 22  1  0  0  0
 28 26  1  0  0  0
 29 12  1  0  0  0
 30 13  1  0  0  0
 31 16  1  0  0  0
 31 17  1  0  0  0
 31 18  1  0  0  0
  9 10  2  0  0  0
 12 24  2  0  0  0
 13 25  2  0  0  0
 28 21  2  0  0  0
M  END
> <rmsd>
0.505829751

$$$$
PubChem-139479318


 32 35  0  0  0  0  0  0  0  0999 V2000
    2.5619   29.9648   63.1207 C   0  0  0  0  0
    3.9615   29.9910   62.5714 C   0  0  0  0  0
    4.1967   30.5033   61.2804 C   0  0  0  0  0
    5.5071   30.6154   60.8068 C   0  0  0  0  0
    6.5781   30.2024   61.6051 C   0  0  0  0  0
    6.3417   29.6748   62.8787 C   0  0  0  0  0
    5.0345   29.5757   63.3647 C   0  0  0  0  0
    1.4331   28.5334   59.3599 C   0  0  0  0  0
    1.8459   28.4421   57.8924 C   0  0  0  0  0
    2.9239   29.4813   57.5908 C   0  0  0  0  0
    2.1576   30.5539   56.8709 C   0  0  0  0  0
    1.0009   29.7930   56.2688 C   0  0  0  0  0
   -0.7715   31.1491   57.2673 C   0  0  0  0  0
   -1.9052   31.9579   57.1772 C   0  0  0  0  0
   -2.4195   32.2294   55.9044 C   0  0  0  0  0
   -0.7094   30.9216   54.9152 C   0  0  0  0  0
   -2.5349   32.5044   58.3875 C   0  0  0  0  0
    7.3814   29.2727   63.6479 F   0  0  0  0  0
    2.3240   27.1619   57.6662 F   0  0  0  0  0
    3.1302   30.8680   60.4573 O   0  0  0  0  0
    0.7751   31.6896   61.3370 O   0  0  0  0  0
    1.6583   29.3696   62.2233 O   0  0  0  0  0
    0.7269   29.7138   59.6143 O   0  0  0  0  0
    0.7214   28.6653   57.0668 O   0  0  0  0  0
   -3.4409   32.9537   55.7636 O   0  0  0  0  0
   -0.1785   30.4571   53.8704 O   0  0  0  0  0
   -2.0712   32.2593   59.5330 O   0  0  0  0  0
    2.9177   31.1660   55.8710 O   0  0  0  0  0
    3.9138   28.9362   56.7635 O   0  0  0  0  0
    1.5284   30.4490   60.9135 P   0  0  0  0  0
   -0.1847   30.6425   56.1461 N   0  0  0  0  0
   -1.8130   31.7072   54.8076 N   0  0  0  0  0
  1  2  1  0  0  0
  1 22  1  0  0  0
  3  4  1  0  0  0
  3 20  1  0  0  0
  5  6  1  0  0  0
  6 18  1  0  0  0
  7  2  1  0  0  0
  8 23  1  0  0  0
  8  9  1  0  0  0
  9 10  1  0  0  0
  9 19  1  0  0  0
  9 24  1  0  0  0
 10 11  1  0  0  0
 10 29  1  0  0  0
 11 12  1  0  0  0
 11 28  1  0  0  0
 12 24  1  0  0  0
 12 31  1  0  0  0
 14 15  1  0  0  0
 14 17  1  0  0  0
 15 32  1  0  0  0
 16 31  1  0  0  0
 30 20  1  0  0  0
 30 22  1  0  0  0
 30 23  1  0  0  0
 31 13  1  0  0  0
 32 16  1  0  0  0
  2  3  2  0  0  0
  4  5  2  0  0  0
  6  7  2  0  0  0
 13 14  2  0  0  0
 15 25  2  0  0  0
 16 26  2  0  0  0
 17 27  2  0  0  0
 30 21  2  0  0  0
M  END
> <rmsd>
0.467549413

$$$$
PubChem-15451390


 31 33  0  0  0  0  0  0  0  0999 V2000
    2.8495   32.1044   54.9186 C   0  0  0  0  0
    2.2831   30.4069   56.2187 C   0  0  0  0  0
    3.2597   29.5412   56.9627 C   0  0  0  0  0
    2.3563   28.6470   57.7871 C   0  0  0  0  0
    2.3450   29.0918   59.2453 C   0  0  0  0  0
   -0.8149   31.4541   60.5850 C   0  0  0  0  0
   -1.3186   32.6026   59.7311 C   0  0  0  0  0
   -2.3696   32.0779   58.7644 C   0  0  0  0  0
   -1.7688   31.6782   57.4480 C   0  0  0  0  0
   -0.6898   30.7936   57.3925 C   0  0  0  0  0
    1.0341   29.5561   56.1718 C   0  0  0  0  0
   -0.6923   30.8868   55.0319 C   0  0  0  0  0
   -2.2871   32.1558   56.2402 C   0  0  0  0  0
    3.2805   32.1391   61.3293 C   0  0  0  0  0
    3.4847   33.0857   62.4940 C   0  0  0  0  0
    3.9420   35.9726   63.3235 C   0  0  0  0  0
    5.3371   34.8808   60.8416 C   0  0  0  0  0
    2.3190   35.3638   60.8210 C   0  0  0  0  0
    2.7250   30.7139   54.9278 O   0  0  0  0  0
    1.6983   30.3250   59.3759 O   0  0  0  0  0
    0.8389   29.2834   61.6468 O   0  0  0  0  0
    0.3467   31.8315   61.2610 O   0  0  0  0  0
    1.0451   28.6572   57.2607 O   0  0  0  0  0
   -0.2154   30.5405   53.9172 O   0  0  0  0  0
   -3.2625   32.9527   56.2293 O   0  0  0  0  0
    2.8969   30.8872   61.8132 O   0  0  0  0  0
    3.9989   28.7464   56.0822 O   0  0  0  0  0
    1.4278   30.5401   61.0385 P   0  0  0  0  0
   -0.1606   30.4067   56.1971 N   0  0  0  0  0
   -1.7409   31.7505   55.0660 N   0  0  0  0  0
    3.7730   34.8215   61.8619 Si  0  0  0  0  0
  1 19  1  0  0  0
  2 19  1  0  0  0
  2  3  1  0  0  0
  3  4  1  0  0  0
  3 27  1  0  0  0
  4  5  1  0  0  0
  4 23  1  0  0  0
  5 20  1  0  0  0
  6 22  1  0  0  0
  6  7  1  0  0  0
  7  8  1  0  0  0
  8  9  1  0  0  0
 10 29  1  0  0  0
 11 29  1  0  0  0
 11 23  1  0  0  0
 11  2  1  0  0  0
 12 30  1  0  0  0
 13  9  1  0  0  0
 14 26  1  0  0  0
 14 15  1  0  0  0
 15 31  1  0  0  0
 28 20  1  0  0  0
 28 22  1  0  0  0
 28 26  1  0  0  0
 29 12  1  0  0  0
 30 13  1  0  0  0
 31 16  1  0  0  0
 31 17  1  0  0  0
 31 18  1  0  0  0
  9 10  2  0  0  0
 12 24  2  0  0  0
 13 25  2  0  0  0
 28 21  2  0  0  0
M  END
> <rmsd>
0.566087961

$$$$
PubChem-139478491


 33 36  0  0  0  0  0  0  0  0999 V2000
    6.5891   27.6108   64.2713 C   0  0  0  0  0
    5.7152   28.3392   63.3155 C   0  0  0  0  0
    6.2774   29.2184   62.3861 C   0  0  0  0  0
    5.4616   29.9021   61.4795 C   0  0  0  0  0
    4.0710   29.7135   61.5086 C   0  0  0  0  0
    3.5086   28.8215   62.4440 C   0  0  0  0  0
    4.3338   28.1313   63.3355 C   0  0  0  0  0
    2.0377   28.5105   62.3997 C   0  0  0  0  0
    1.5116   28.4728   59.3046 C   0  0  0  0  0
    1.9299   28.4497   57.8358 C   0  0  0  0  0
    2.9648   29.5420   57.5738 C   0  0  0  0  0
    2.1564   30.6071   56.8901 C   0  0  0  0  0
    1.0328   29.8214   56.2582 C   0  0  0  0  0
   -0.7959   31.0679   57.2985 C   0  0  0  0  0
   -1.9595   31.8298   57.2301 C   0  0  0  0  0
   -2.4759   32.1381   55.9676 C   0  0  0  0  0
   -0.7165   30.9310   54.9391 C   0  0  0  0  0
   -2.5952   32.3257   58.4855 C   0  0  0  0  0
    6.0858   30.8329   60.4987 C   0  0  0  0  0
    1.2454   29.6713   62.3557 O   0  0  0  0  0
    1.0619   31.8456   60.9063 O   0  0  0  0  0
    3.2489   30.4109   60.6198 O   0  0  0  0  0
    0.7454   29.6069   59.5953 O   0  0  0  0  0
    0.7985   28.6556   57.0149 O   0  0  0  0  0
   -3.5193   32.8346   55.8517 O   0  0  0  0  0
   -0.1649   30.5253   53.8804 O   0  0  0  0  0
   -2.0164   33.5385   58.8594 O   0  0  0  0  0
    2.8923   31.2847   55.9147 O   0  0  0  0  0
    3.9773   29.0671   56.7304 O   0  0  0  0  0
    1.5478   30.4156   60.8552 P   0  0  0  0  0
   -0.1861   30.6259   56.1618 N   0  0  0  0  0
   -1.8472   31.6807   54.8547 N   0  0  0  0  0
    2.4605   27.1989   57.5669 F   0  0  0  0  0
  1  2  1  0  0  0
  3  4  1  0  0  0
  5  6  1  0  0  0
  5 22  1  0  0  0
  7  2  1  0  0  0
  8  6  1  0  0  0
  8 20  1  0  0  0
  9 23  1  0  0  0
  9 10  1  0  0  0
 10 11  1  0  0  0
 10 33  1  0  0  0
 10 24  1  0  0  0
 11 12  1  0  0  0
 11 29  1  0  0  0
 12 13  1  0  0  0
 12 28  1  0  0  0
 13 24  1  0  0  0
 13 31  1  0  0  0
 15 16  1  0  0  0
 16 32  1  0  0  0
 17 31  1  0  0  0
 18 15  1  0  0  0
 18 27  1  0  0  0
 19  4  1  0  0  0
 30 20  1  0  0  0
 30 22  1  0  0  0
 30 23  1  0  0  0
 31 14  1  0  0  0
 32 17  1  0  0  0
  2  3  2  0  0  0
  4  5  2  0  0  0
  6  7  2  0  0  0
 14 15  2  0  0  0
 16 25  2  0  0  0
 17 26  2  0  0  0
 30 21  2  0  0  0
M  END
> <rmsd>
0.33263272

$$$$
PubChem-161154176


 31 34  0  0  0  0  0  0  0  0999 V2000
    1.0109   29.7517   56.2153 C   0  0  0  0  0
    2.1619   30.5379   56.8110 C   0  0  0  0  0
    2.9343   29.4955   57.5671 C   0  0  0  0  0
    1.8620   28.4570   57.8904 C   0  0  0  0  0
    1.4542   28.5736   59.3567 C   0  0  0  0  0
    3.7980   31.0761   61.7860 C   0  0  0  0  0
    3.9278   29.8224   62.6040 C   0  0  0  0  0
    5.1587   29.4765   63.1670 C   0  0  0  0  0
    5.2579   28.3524   63.9911 C   0  0  0  0  0
    4.1248   27.5794   64.2615 C   0  0  0  0  0
    2.8886   27.9203   63.7031 C   0  0  0  0  0
    2.7871   29.0358   62.8574 C   0  0  0  0  0
    1.6995   27.0727   63.9960 C   0  0  0  0  0
   -0.7523   31.1015   57.2237 C   0  0  0  0  0
   -1.8805   31.9132   57.1647 C   0  0  0  0  0
   -2.4174   32.2105   55.9121 C   0  0  0  0  0
   -0.7302   30.9163   54.8668 C   0  0  0  0  0
    0.7320   28.6605   57.0653 O   0  0  0  0  0
    0.7739   29.7718   59.5964 O   0  0  0  0  0
    0.8082   31.7231   61.3466 O   0  0  0  0  0
    3.1593   30.8319   60.5586 O   0  0  0  0  0
    1.5690   29.3546   62.2493 O   0  0  0  0  0
    3.9326   28.9361   56.7598 O   0  0  0  0  0
    2.9304   31.1551   55.8187 O   0  0  0  0  0
   -3.4380   32.9405   55.8084 O   0  0  0  0  0
   -0.2243   30.4785   53.7987 O   0  0  0  0  0
    1.5409   30.4654   60.9380 P   0  0  0  0  0
    2.3441   27.1748   57.6856 F   0  0  0  0  0
   -0.1812   30.6072   56.0867 N   0  0  0  0  0
   -1.8332   31.7080   54.7957 N   0  0  0  0  0
   -2.5868   32.5321   58.6474 Cl  0  0  0  0  0
  1  2  1  0  0  0
  1 29  1  0  0  0
  1 18  1  0  0  0
  2  3  1  0  0  0
  2 24  1  0  0  0
  3  4  1  0  0  0
  3 23  1  0  0  0
  4 18  1  0  0  0
  4  5  1  0  0  0
  4 28  1  0  0  0
  5 19  1  0  0  0
  6 21  1  0  0  0
  6  7  1  0  0  0
  8  9  1  0  0  0
 10 11  1  0  0  0
 12 22  1  0  0  0
 12  7  1  0  0  0
 13 11  1  0  0  0
 15 16  1  0  0  0
 15 31  1  0  0  0
 16 30  1  0  0  0
 17 29  1  0  0  0
 27 19  1  0  0  0
 27 21  1  0  0  0
 27 22  1  0  0  0
 29 14  1  0  0  0
 30 17  1  0  0  0
  7  8  2  0  0  0
  9 10  2  0  0  0
 11 12  2  0  0  0
 14 15  2  0  0  0
 16 25  2  0  0  0
 17 26  2  0  0  0
 27 20  2  0  0  0
M  END
> <rmsd>
0.433259726

$$$$
