PubChem-160275573 PubChem-160275576


 32 35  0  0  0  0  0  0  0  0999 V2000
    1.1311   29.7400   56.1399 C   0  0  0  0  0
    2.3683   30.5697   56.4160 C   0  0  0  0  0
    3.2782   29.6020   57.1166 C   0  0  0  0  0
    2.2915   28.6255   57.7602 C   0  0  0  0  0
    2.1600   28.9160   59.2592 C   0  0  0  0  0
   -0.8085   29.6193   61.3695 C   0  0  0  0  0
   -1.3316   30.9006   61.9548 C   0  0  0  0  0
   -0.5491   32.0690   61.8823 C   0  0  0  0  0
   -1.0731   33.2837   62.3336 C   0  0  0  0  0
   -2.3622   33.3327   62.8731 C   0  0  0  0  0
   -3.1300   32.1671   62.9634 C   0  0  0  0  0
   -2.6178   30.9523   62.4981 C   0  0  0  0  0
   -0.4494   31.1844   57.3112 C   0  0  0  0  0
   -1.5721   32.0060   57.3688 C   0  0  0  0  0
   -2.3083   32.2032   56.1979 C   0  0  0  0  0
   -0.8086   30.8104   55.0040 C   0  0  0  0  0
   -1.9767   32.6189   58.6675 C   0  0  0  0  0
    1.0245   28.7551   57.1442 O   0  0  0  0  0
    1.6732   30.2240   59.4522 O   0  0  0  0  0
    2.8546   30.4803   61.8023 O   0  0  0  0  0
    0.4850   29.3287   61.8341 O   0  0  0  0  0
    0.7522   32.0184   61.3792 O   0  0  0  0  0
    4.0974   28.9371   56.1955 O   0  0  0  0  0
    2.9279   31.0661   55.2341 O   0  0  0  0  0
   -3.3369   32.9306   56.1983 O   0  0  0  0  0
   -0.4802   30.2839   53.9070 O   0  0  0  0  0
   -2.9906   31.8592   59.2508 O   0  0  0  0  0
    1.5023   30.4948   61.1260 P   0  0  0  0  0
   -4.7421   32.2330   63.6406 Cl  0  0  0  0  0
    2.7307   27.3189   57.6079 F   0  0  0  0  0
   -0.0691   30.5941   56.1403 N   0  0  0  0  0
   -1.9105   31.6050   55.0475 N   0  0  0  0  0
  1  2  1  0  0  0
  1 31  1  0  0  0
  1 18  1  0  0  0
  2  3  1  0  0  0
  2 24  1  0  0  0
  3  4  1  0  0  0
  3 23  1  0  0  0
  4 18  1  0  0  0
  4  5  1  0  0  0
  4 30  1  0  0  0
  5 19  1  0  0  0
  6 21  1  0  0  0
  6  7  1  0  0  0
  8 22  1  0  0  0
  8  9  1  0  0  0
 10 11  1  0  0  0
 11 29  1  0  0  0
 12  7  1  0  0  0
 14 15  1  0  0  0
 15 32  1  0  0  0
 16 31  1  0  0  0
 17 14  1  0  0  0
 17 27  1  0  0  0
 28 19  1  0  0  0
 28 21  1  0  0  0
 28 22  1  0  0  0
 31 13  1  0  0  0
 32 16  1  0  0  0
  7  8  2  0  0  0
  9 10  2  0  0  0
 11 12  2  0  0  0
 13 14  2  0  0  0
 15 25  2  0  0  0
 16 26  2  0  0  0
 28 20  2  0  0  0
M  END
> <rmsd>
0.499400765

$$$$
PubChem-156470181


 32 35  0  0  0  0  0  0  0  0999 V2000
    2.5819   31.6221   62.7847 C   0  0  0  0  0
    2.5319   32.9126   62.0128 C   0  0  0  0  0
    3.2641   34.0201   62.4504 C   0  0  0  0  0
    3.1532   35.2409   61.7781 C   0  0  0  0  0
    2.3038   35.3585   60.6733 C   0  0  0  0  0
    1.5718   34.2526   60.2301 C   0  0  0  0  0
    1.6888   33.0248   60.8891 C   0  0  0  0  0
    2.5563   29.7835   58.9857 C   0  0  0  0  0
    2.6377   29.0577   57.6386 C   0  0  0  0  0
    3.5400   29.8832   56.7176 C   0  0  0  0  0
    2.5480   30.7852   56.0405 C   0  0  0  0  0
    1.3004   29.9339   56.0108 C   0  0  0  0  0
   -0.1636   31.4660   57.2353 C   0  0  0  0  0
   -1.3108   32.2497   57.3366 C   0  0  0  0  0
   -2.1859   32.2881   56.2492 C   0  0  0  0  0
   -0.7848   30.8024   55.0511 C   0  0  0  0  0
    3.1803   27.6324   57.8429 C   0  0  0  0  0
    0.9946   31.9120   60.4093 O   0  0  0  0  0
    2.7840   30.5164   61.9411 O   0  0  0  0  0
    0.0880   29.8525   62.0594 O   0  0  0  0  0
    1.5539   29.2387   59.7927 O   0  0  0  0  0
    1.3458   28.9953   57.0643 O   0  0  0  0  0
   -3.2326   32.9865   56.2940 O   0  0  0  0  0
   -0.5638   30.1430   53.9991 O   0  0  0  0  0
    2.9445   31.1228   54.7440 O   0  0  0  0  0
    4.1800   29.0700   55.7714 O   0  0  0  0  0
    1.3461   30.3568   61.0469 P   0  0  0  0  0
    0.0920   30.7554   56.0996 N   0  0  0  0  0
   -1.9057   31.5661   55.1346 N   0  0  0  0  0
   -1.6306   33.1495   58.8087 Cl  0  0  0  0  0
    4.4017   27.6532   58.4955 F   0  0  0  0  0
    2.2842   26.8503   58.5512 F   0  0  0  0  0
  1  2  1  0  0  0
  1 19  1  0  0  0
  3  4  1  0  0  0
  5  6  1  0  0  0
  7 18  1  0  0  0
  7  2  1  0  0  0
  8 21  1  0  0  0
  9  8  1  0  0  0
  9 10  1  0  0  0
  9 17  1  0  0  0
  9 22  1  0  0  0
 10 11  1  0  0  0
 10 26  1  0  0  0
 11 12  1  0  0  0
 11 25  1  0  0  0
 12 22  1  0  0  0
 12 28  1  0  0  0
 14 15  1  0  0  0
 14 30  1  0  0  0
 15 29  1  0  0  0
 16 28  1  0  0  0
 17 31  1  0  0  0
 17 32  1  0  0  0
 27 18  1  0  0  0
 27 19  1  0  0  0
 27 20  1  0  0  0
 27 21  1  0  0  0
 28 13  1  0  0  0
 29 16  1  0  0  0
  2  3  2  0  0  0
  4  5  2  0  0  0
  6  7  2  0  0  0
 13 14  2  0  0  0
 15 23  2  0  0  0
 16 24  2  0  0  0
M  CHG  1  27   1
M  END
> <rmsd>
0.731890738

$$$$
PubChem-158232076


 29 32  0  0  0  0  0  0  0  0999 V2000
    1.2443   32.5860   59.8988 C   0  0  0  0  0
    2.7272   32.8338   59.8210 C   0  0  0  0  0
    3.2022   34.0803   59.4042 C   0  0  0  0  0
    4.5759   34.2906   59.2532 C   0  0  0  0  0
    5.4768   33.2528   59.5110 C   0  0  0  0  0
    5.0075   32.0046   59.9308 C   0  0  0  0  0
    3.6360   31.7895   60.0940 C   0  0  0  0  0
    1.4953   28.4192   59.3369 C   0  0  0  0  0
    1.9114   28.3761   57.8661 C   0  0  0  0  0
    2.9698   29.4530   57.6016 C   0  0  0  0  0
    2.1598   30.5518   56.9760 C   0  0  0  0  0
    1.0358   29.7913   56.3156 C   0  0  0  0  0
   -0.7990   31.0387   57.3494 C   0  0  0  0  0
   -1.9517   31.8162   57.2722 C   0  0  0  0  0
   -2.4465   32.1387   56.0124 C   0  0  0  0  0
   -0.6832   30.9374   54.9892 C   0  0  0  0  0
    3.1827   30.5518   60.5559 O   0  0  0  0  0
    1.3367   29.5597   62.1804 O   0  0  0  0  0
    0.8838   31.9069   61.0758 O   0  0  0  0  0
    0.7301   29.5567   59.6136 O   0  0  0  0  0
    0.7837   28.6125   57.0469 O   0  0  0  0  0
   -3.4855   32.8397   55.9047 O   0  0  0  0  0
   -0.1181   30.5446   53.9329 O   0  0  0  0  0
    2.8908   31.2749   56.0301 O   0  0  0  0  0
    3.9501   28.9994   56.7093 O   0  0  0  0  0
    1.5140   30.3402   60.8977 P   0  0  0  0  0
   -0.1745   30.6087   56.2155 N   0  0  0  0  0
   -1.8078   31.6957   54.8996 N   0  0  0  0  0
    2.5219   26.7249   57.5475 Cl  0  0  0  0  0
  1  2  1  0  0  0
  1 19  1  0  0  0
  3  4  1  0  0  0
  5  6  1  0  0  0
  7 17  1  0  0  0
  7  2  1  0  0  0
  8 20  1  0  0  0
  9  8  1  0  0  0
  9 10  1  0  0  0
  9 29  1  0  0  0
  9 21  1  0  0  0
 10 11  1  0  0  0
 10 25  1  0  0  0
 11 12  1  0  0  0
 11 24  1  0  0  0
 12 21  1  0  0  0
 12 27  1  0  0  0
 14 15  1  0  0  0
 15 28  1  0  0  0
 16 27  1  0  0  0
 26 17  1  0  0  0
 26 19  1  0  0  0
 26 20  1  0  0  0
 27 13  1  0  0  0
 28 16  1  0  0  0
  2  3  2  0  0  0
  4  5  2  0  0  0
  6  7  2  0  0  0
 13 14  2  0  0  0
 15 22  2  0  0  0
 16 23  2  0  0  0
 26 18  2  0  0  0
M  END
> <rmsd>
0.344627231

$$$$
PubChem-158232075 PubChem-158232079


 29 32  0  0  0  0  0  0  0  0999 V2000
    1.1332   29.7508   56.1344 C   0  0  0  0  0
    2.3657   30.5741   56.4484 C   0  0  0  0  0
    3.2665   29.5851   57.1312 C   0  0  0  0  0
    2.2613   28.6094   57.7611 C   0  0  0  0  0
    2.0984   28.9224   59.2556 C   0  0  0  0  0
    2.7317   30.3707   63.2296 C   0  0  0  0  0
    2.0909   29.0651   63.6078 C   0  0  0  0  0
    2.5941   28.3144   64.6737 C   0  0  0  0  0
    1.9441   27.1406   65.0677 C   0  0  0  0  0
    0.7870   26.7223   64.4022 C   0  0  0  0  0
    0.2830   27.4697   63.3329 C   0  0  0  0  0
    0.9370   28.6361   62.9256 C   0  0  0  0  0
   -0.4475   31.2056   57.2929 C   0  0  0  0  0
   -1.5772   32.0172   57.3452 C   0  0  0  0  0
   -2.3121   32.1990   56.1799 C   0  0  0  0  0
   -0.8156   30.8008   54.9926 C   0  0  0  0  0
    1.0078   28.7476   57.1186 O   0  0  0  0  0
    1.6187   30.2366   59.4244 O   0  0  0  0  0
    0.8706   31.9139   61.3039 O   0  0  0  0  0
    2.9869   30.4439   61.8494 O   0  0  0  0  0
    0.4588   29.3547   61.8289 O   0  0  0  0  0
    4.0865   28.9446   56.1932 O   0  0  0  0  0
    2.9388   31.1059   55.2883 O   0  0  0  0  0
   -3.3394   32.9251   56.1896 O   0  0  0  0  0
   -0.4929   30.2595   53.9017 O   0  0  0  0  0
    1.4640   30.5394   61.0936 P   0  0  0  0  0
    2.7893   26.9008   57.6125 Cl  0  0  0  0  0
   -0.0681   30.6033   56.1275 N   0  0  0  0  0
   -1.9208   31.5915   55.0323 N   0  0  0  0  0
  1  2  1  0  0  0
  1 28  1  0  0  0
  1 17  1  0  0  0
  2  3  1  0  0  0
  2 23  1  0  0  0
  3  4  1  0  0  0
  3 22  1  0  0  0
  4 17  1  0  0  0
  4  5  1  0  0  0
  4 27  1  0  0  0
  5 18  1  0  0  0
  6 20  1  0  0  0
  6  7  1  0  0  0
  8  9  1  0  0  0
 10 11  1  0  0  0
 12 21  1  0  0  0
 12  7  1  0  0  0
 14 15  1  0  0  0
 15 29  1  0  0  0
 16 28  1  0  0  0
 26 18  1  0  0  0
 26 20  1  0  0  0
 26 21  1  0  0  0
 28 13  1  0  0  0
 29 16  1  0  0  0
  7  8  2  0  0  0
  9 10  2  0  0  0
 11 12  2  0  0  0
 13 14  2  0  0  0
 15 24  2  0  0  0
 16 25  2  0  0  0
 26 19  2  0  0  0
M  END
> <rmsd>
0.496906757

$$$$
PubChem-158101680


 31 34  0  0  0  0  0  0  0  0999 V2000
    2.1802   28.9480   59.2199 C   0  0  0  0  0
    2.3405   28.6491   57.7242 C   0  0  0  0  0
    3.3279   29.6285   57.0877 C   0  0  0  0  0
    2.4231   30.6128   56.4027 C   0  0  0  0  0
    1.1769   29.8018   56.1383 C   0  0  0  0  0
   -0.3627   31.2693   57.3444 C   0  0  0  0  0
   -1.4998   32.0695   57.4128 C   0  0  0  0  0
   -2.2880   32.1987   56.2650 C   0  0  0  0  0
   -0.8038   30.7896   55.0718 C   0  0  0  0  0
   -1.8649   32.7290   58.7005 C   0  0  0  0  0
    2.0595   32.8994   61.0721 C   0  0  0  0  0
    3.1043   32.7063   62.1354 C   0  0  0  0  0
    3.7153   33.8126   62.7318 C   0  0  0  0  0
    4.7404   33.6250   63.6641 C   0  0  0  0  0
    5.1605   32.3323   63.9941 C   0  0  0  0  0
    4.5486   31.2229   63.4020 C   0  0  0  0  0
    3.5136   31.4036   62.4799 C   0  0  0  0  0
    1.0847   28.7613   57.0853 O   0  0  0  0  0
   -3.3333   32.9018   56.2780 O   0  0  0  0  0
   -0.5006   30.2142   53.9917 O   0  0  0  0  0
   -2.5756   31.8362   59.5025 O   0  0  0  0  0
    2.9657   31.0852   55.2050 O   0  0  0  0  0
    4.1401   28.9691   56.1563 O   0  0  0  0  0
    1.6417   30.2378   59.3948 O   0  0  0  0  0
    0.3501   29.5676   61.6011 O   0  0  0  0  0
    0.9204   32.1144   61.3174 O   0  0  0  0  0
    2.8773   30.2925   61.9236 O   0  0  0  0  0
   -0.0207   30.6427   56.1829 N   0  0  0  0  0
   -1.9224   31.5603   55.1238 N   0  0  0  0  0
    2.7958   27.3461   57.5893 F   0  0  0  0  0
    1.4064   30.5053   61.0609 P   0  0  0  0  0
  1  2  1  0  0  0
  1 24  1  0  0  0
  2  3  1  0  0  0
  2 30  1  0  0  0
  2 18  1  0  0  0
  3  4  1  0  0  0
  3 23  1  0  0  0
  4  5  1  0  0  0
  4 22  1  0  0  0
  5 18  1  0  0  0
  5 28  1  0  0  0
  7  8  1  0  0  0
  8 29  1  0  0  0
  9 28  1  0  0  0
 10  7  1  0  0  0
 10 21  1  0  0  0
 11 26  1  0  0  0
 11 12  1  0  0  0
 13 14  1  0  0  0
 15 16  1  0  0  0
 17 27  1  0  0  0
 17 12  1  0  0  0
 28  6  1  0  0  0
 29  9  1  0  0  0
 31 24  1  0  0  0
 31 26  1  0  0  0
 31 27  1  0  0  0
  6  7  2  0  0  0
  8 19  2  0  0  0
  9 20  2  0  0  0
 12 13  2  0  0  0
 14 15  2  0  0  0
 16 17  2  0  0  0
 31 25  2  0  0  0
M  END
> <rmsd>
0.561721444

$$$$
PubChem-118302127


 31 34  0  0  0  0  0  0  0  0999 V2000
    3.2197   29.4517   62.2808 C   0  0  0  0  0
    2.2851   29.3222   63.4525 C   0  0  0  0  0
    2.7772   28.9215   64.6977 C   0  0  0  0  0
    1.8977   28.7269   65.7669 C   0  0  0  0  0
    0.5248   28.9253   65.5907 C   0  0  0  0  0
    0.0282   29.3304   64.3479 C   0  0  0  0  0
    0.9029   29.5385   63.2772 C   0  0  0  0  0
    2.5728   29.6607   58.7511 C   0  0  0  0  0
    2.5563   28.8224   57.4682 C   0  0  0  0  0
    3.4734   29.5053   56.4482 C   0  0  0  0  0
    2.5427   30.3924   55.6838 C   0  0  0  0  0
    1.2040   29.6814   55.8491 C   0  0  0  0  0
   -0.1965   31.2578   57.1001 C   0  0  0  0  0
   -1.2984   32.1022   57.2085 C   0  0  0  0  0
   -2.1365   32.2375   56.1063 C   0  0  0  0  0
   -0.7922   30.7304   54.8729 C   0  0  0  0  0
    3.0137   27.3866   57.7760 C   0  0  0  0  0
    0.4028   29.9933   62.0550 O   0  0  0  0  0
    1.0492   31.7777   60.2165 O   0  0  0  0  0
    3.0080   30.6470   61.5725 O   0  0  0  0  0
    1.5605   29.2588   59.6277 O   0  0  0  0  0
    1.2438   28.7973   56.9475 O   0  0  0  0  0
   -3.1404   32.9931   56.1677 O   0  0  0  0  0
   -0.5818   30.1071   53.7974 O   0  0  0  0  0
    2.5362   31.6621   56.2678 O   0  0  0  0  0
    4.0368   28.5829   55.5598 O   0  0  0  0  0
    1.4951   30.4638   60.8180 P   0  0  0  0  0
    0.0539   30.5877   55.9381 N   0  0  0  0  0
   -1.8713   31.5520   54.9652 N   0  0  0  0  0
    4.2591   27.3787   58.3815 F   0  0  0  0  0
    2.0995   26.7296   58.5811 F   0  0  0  0  0
  1  2  1  0  0  0
  1 20  1  0  0  0
  3  4  1  0  0  0
  5  6  1  0  0  0
  7 18  1  0  0  0
  7  2  1  0  0  0
  8 21  1  0  0  0
  9  8  1  0  0  0
  9 10  1  0  0  0
  9 17  1  0  0  0
  9 22  1  0  0  0
 10 11  1  0  0  0
 10 26  1  0  0  0
 11 12  1  0  0  0
 11 25  1  0  0  0
 12 22  1  0  0  0
 12 28  1  0  0  0
 14 15  1  0  0  0
 15 29  1  0  0  0
 16 28  1  0  0  0
 17 30  1  0  0  0
 17 31  1  0  0  0
 27 18  1  0  0  0
 27 20  1  0  0  0
 27 21  1  0  0  0
 28 13  1  0  0  0
 29 16  1  0  0  0
  2  3  2  0  0  0
  4  5  2  0  0  0
  6  7  2  0  0  0
 13 14  2  0  0  0
 15 23  2  0  0  0
 16 24  2  0  0  0
 27 19  2  0  0  0
M  END
> <rmsd>
0.651261687

$$$$
PubChem-10624481


 31 33  0  0  0  0  0  0  0  0999 V2000
    2.7568   32.2253   55.0257 C   0  0  0  0  0
    2.2811   30.4853   56.3038 C   0  0  0  0  0
    3.2590   29.6244   57.0523 C   0  0  0  0  0
    2.3565   28.6938   57.8357 C   0  0  0  0  0
    2.3075   29.1039   59.3038 C   0  0  0  0  0
   -0.8642   31.5037   60.6442 C   0  0  0  0  0
   -1.3304   32.6280   59.7392 C   0  0  0  0  0
   -2.3857   32.0856   58.7917 C   0  0  0  0  0
   -1.7925   31.6788   57.4747 C   0  0  0  0  0
   -0.6902   30.8237   57.4235 C   0  0  0  0  0
    1.0516   29.6084   56.2113 C   0  0  0  0  0
   -0.7245   30.8664   55.0619 C   0  0  0  0  0
   -2.3369   32.1201   56.2640 C   0  0  0  0  0
    0.3881   29.2878   63.0089 C   0  0  0  0  0
    1.0648   28.1608   63.7626 C   0  0  0  0  0
   -0.9519   28.3398   66.0595 C   0  0  0  0  0
    1.5738   30.0507   66.1114 C   0  0  0  0  0
    1.7705   27.0419   66.4960 C   0  0  0  0  0
    2.7466   30.8309   55.0315 O   0  0  0  0  0
    1.7310   30.3711   59.4439 O   0  0  0  0  0
    2.6241   30.7641   61.8693 O   0  0  0  0  0
    0.3204   31.8620   61.2891 O   0  0  0  0  0
    1.0572   28.6915   57.2846 O   0  0  0  0  0
   -0.2555   30.5042   53.9494 O   0  0  0  0  0
   -3.3272   32.8981   56.2509 O   0  0  0  0  0
    0.5862   29.1090   61.6391 O   0  0  0  0  0
    4.0368   28.8639   56.1744 O   0  0  0  0  0
    1.3493   30.5262   61.0892 P   0  0  0  0  0
   -0.1629   30.4297   56.2299 N   0  0  0  0  0
   -1.7959   31.7027   55.0910 N   0  0  0  0  0
    0.8570   28.4028   65.6027 Si  0  0  0  0  0
  1 19  1  0  0  0
  2 19  1  0  0  0
  2  3  1  0  0  0
  3  4  1  0  0  0
  3 27  1  0  0  0
  4  5  1  0  0  0
  4 23  1  0  0  0
  5 20  1  0  0  0
  6 22  1  0  0  0
  6  7  1  0  0  0
  7  8  1  0  0  0
  8  9  1  0  0  0
 10 29  1  0  0  0
 11 29  1  0  0  0
 11 23  1  0  0  0
 11  2  1  0  0  0
 12 30  1  0  0  0
 13  9  1  0  0  0
 14 26  1  0  0  0
 14 15  1  0  0  0
 15 31  1  0  0  0
 28 20  1  0  0  0
 28 22  1  0  0  0
 28 26  1  0  0  0
 29 12  1  0  0  0
 30 13  1  0  0  0
 31 16  1  0  0  0
 31 17  1  0  0  0
 31 18  1  0  0  0
  9 10  2  0  0  0
 12 24  2  0  0  0
 13 25  2  0  0  0
 28 21  2  0  0  0
M  END
> <rmsd>
0.565365493

$$$$
PubChem-102238468


 28 31  0  0  0  0  0  0  0  0999 V2000
    2.7143   24.5581   64.5970 C   0  0  0  0  0
    2.4878   25.7601   63.7533 C   0  0  0  0  0
    1.1845   26.1793   63.4693 C   0  0  0  0  0
    0.9713   27.3102   62.6753 C   0  0  0  0  0
    2.0608   28.0249   62.1653 C   0  0  0  0  0
    3.3647   27.6022   62.4487 C   0  0  0  0  0
    3.5780   26.4713   63.2426 C   0  0  0  0  0
    1.9339   28.1345   59.0647 C   0  0  0  0  0
    2.1819   28.6125   57.6441 C   0  0  0  0  0
    3.2931   27.8927   56.9361 C   0  0  0  0  0
    3.0714   29.8070   57.5321 C   0  0  0  0  0
    2.2990   30.7534   56.6462 C   0  0  0  0  0
    1.1477   29.9250   56.1097 C   0  0  0  0  0
   -0.6280   31.0752   57.3361 C   0  0  0  0  0
   -1.8213   31.7916   57.3849 C   0  0  0  0  0
   -2.4598   32.0930   56.1858 C   0  0  0  0  0
   -0.7519   30.9901   54.9749 C   0  0  0  0  0
    1.7847   29.4378   61.1583 S   0  0  0  0  0
    3.0888   30.1312   60.8710 O   0  0  0  0  0
    0.8904   30.3920   61.8978 O   0  0  0  0  0
    1.0404   28.9948   59.7110 O   0  0  0  0  0
    4.0491   29.0755   56.8217 O   0  0  0  0  0
    1.0190   28.7365   56.8586 O   0  0  0  0  0
   -3.5392   32.7390   56.1924 O   0  0  0  0  0
   -0.2797   30.6311   53.8625 O   0  0  0  0  0
    3.0857   31.2302   55.5957 O   0  0  0  0  0
   -0.1030   30.6839   56.1392 N   0  0  0  0  0
   -1.9174   31.6889   55.0088 N   0  0  0  0  0
  1  2  1  0  0  0
  3  4  1  0  0  0
  5  6  1  0  0  0
  7  2  1  0  0  0
  8 21  1  0  0  0
  9  8  1  0  0  0
  9 10  1  0  0  0
  9 23  1  0  0  0
 10 22  1  0  0  0
 11 22  1  0  0  0
 11 12  1  0  0  0
 11  9  1  0  0  0
 12 13  1  0  0  0
 12 26  1  0  0  0
 13 23  1  0  0  0
 13 27  1  0  0  0
 15 16  1  0  0  0
 16 28  1  0  0  0
 17 27  1  0  0  0
 18  5  1  0  0  0
 18 21  1  0  0  0
 27 14  1  0  0  0
 28 17  1  0  0  0
  2  3  2  0  0  0
  4  5  2  0  0  0
  6  7  2  0  0  0
 14 15  2  0  0  0
 16 24  2  0  0  0
 17 25  2  0  0  0
 18 19  2  0  0  0
 18 20  2  0  0  0
M  END
> <rmsd>
0.442223936

$$$$
PubChem-121313239


 27 30  0  0  0  0  0  0  0  0999 V2000
    1.7727   32.2376   57.2321 C   0  0  0  0  0
    2.0919   30.7518   57.0604 C   0  0  0  0  0
    2.2219   30.0271   58.3812 C   0  0  0  0  0
    1.7308   28.6202   58.0232 C   0  0  0  0  0
    1.0575   27.9329   59.2156 C   0  0  0  0  0
    3.0608   31.6155   61.6340 C   0  0  0  0  0
    3.7018   32.0574   62.9338 C   0  0  0  0  0
    4.8266   32.7137   62.1602 C   0  0  0  0  0
    4.1841   32.2772   60.8600 C   0  0  0  0  0
    0.9910   29.9573   56.3372 C   0  0  0  0  0
   -1.0470   30.7866   57.4230 C   0  0  0  0  0
   -2.2879   31.4175   57.3861 C   0  0  0  0  0
   -2.7534   31.8863   56.1615 C   0  0  0  0  0
   -0.7936   31.1019   55.0924 C   0  0  0  0  0
    1.8255   28.0811   60.3808 O   0  0  0  0  0
    0.5611   29.9199   61.7648 O   0  0  0  0  0
    1.4128   30.6148   59.3755 O   0  0  0  0  0
    3.1617   30.2268   61.5120 O   0  0  0  0  0
    0.8438   28.6844   56.9313 O   0  0  0  0  0
   -3.8696   32.4623   56.0911 O   0  0  0  0  0
   -0.1272   30.9639   54.0312 O   0  0  0  0  0
    1.7069   29.7260   60.7968 P   0  0  0  0  0
   -0.3086   30.6396   56.2849 N   0  0  0  0  0
   -2.0034   31.7197   55.0426 N   0  0  0  0  0
    3.3454   30.6587   56.3106 N   0  0  0  0  0
    3.8538   29.5782   56.0035 N   0  0  0  0  0
    4.3615   28.5007   55.6967 N   0  0  0  0  0
  2  1  1  0  0  0
  2  3  1  0  0  0
  2 25  1  0  0  0
  3  4  1  0  0  0
  3 17  1  0  0  0
  4  5  1  0  0  0
  4 19  1  0  0  0
  5 15  1  0  0  0
  6 18  1  0  0  0
  6  7  1  0  0  0
  7  8  1  0  0  0
  8  9  1  0  0  0
  9  6  1  0  0  0
 10 19  1  0  0  0
 10 23  1  0  0  0
 10  2  1  0  0  0
 12 13  1  0  0  0
 13 24  1  0  0  0
 14 23  1  0  0  0
 22 15  1  0  0  0
 22 17  1  0  0  0
 22 18  1  0  0  0
 23 11  1  0  0  0
 24 14  1  0  0  0
 11 12  2  0  0  0
 13 20  2  0  0  0
 14 21  2  0  0  0
 22 16  2  0  0  0
 25 26  2  0  0  0
 26 27  2  0  0  0
M  CHG  2  26   1  27  -1
M  END
> <rmsd>
0.588746011

$$$$
PubChem-146242195


 22 23  0  0  0  0  0  0  0  0999 V2000
    3.0694   32.4729   56.2858 C   0  0  0  0  0
    2.3691   30.4307   56.7749 C   0  0  0  0  0
    3.2049   29.3076   57.3234 C   0  0  0  0  0
    2.1926   28.1985   57.5328 C   0  0  0  0  0
    1.1837   29.7114   56.1730 C   0  0  0  0  0
   -0.5271   30.8664   57.4831 C   0  0  0  0  0
   -1.6786   31.6411   57.5893 C   0  0  0  0  0
   -2.3061   32.0589   56.4136 C   0  0  0  0  0
   -0.6599   30.9491   55.1231 C   0  0  0  0  0
    1.9047   27.9985   59.0167 C   0  0  0  0  0
    3.0458   31.1658   55.7967 O   0  0  0  0  0
    0.9979   28.4830   56.8372 O   0  0  0  0  0
   -3.3505   32.7605   56.4599 O   0  0  0  0  0
   -0.2086   30.6427   53.9862 O   0  0  0  0  0
    1.2106   29.0944   59.5348 O   0  0  0  0  0
    2.7974   30.7314   60.6950 O   0  0  0  0  0
    4.1514   28.8806   56.3877 O   0  0  0  0  0
   -0.0270   30.5291   56.2602 N   0  0  0  0  0
   -1.7861   31.7053   55.2103 N   0  0  0  0  0
    0.4631   30.2556   61.7357 N   0  0  0  0  0
   -2.4185   32.1423   59.5021 I   0  0  0  0  0
    1.8708   29.3263   61.1223 P   0  0  0  0  0
  1 11  1  0  0  0
  2 11  1  0  0  0
  2  3  1  0  0  0
  3  4  1  0  0  0
  3 17  1  0  0  0
  4 12  1  0  0  0
  4 10  1  0  0  0
  5 12  1  0  0  0
  5 18  1  0  0  0
  5  2  1  0  0  0
  7  8  1  0  0  0
  7 21  1  0  0  0
  8 19  1  0  0  0
  9 18  1  0  0  0
 10 15  1  0  0  0
 18  6  1  0  0  0
 19  9  1  0  0  0
 22 15  1  0  0  0
 22 20  1  0  0  0
 22 16  1  0  0  0
  6  7  2  0  0  0
  8 13  2  0  0  0
  9 14  2  0  0  0
M  END
> <rmsd>
0.438506603

$$$$
PubChem-158117705


 33 36  0  0  0  0  0  0  0  0999 V2000
    1.9613   28.7941   59.2832 C   0  0  0  0  0
    2.1403   28.5763   57.7767 C   0  0  0  0  0
    3.1687   29.5647   57.2189 C   0  0  0  0  0
    2.3101   30.5826   56.5225 C   0  0  0  0  0
    1.0684   29.7946   56.1807 C   0  0  0  0  0
   -0.5265   31.2906   57.2798 C   0  0  0  0  0
   -1.6471   32.1191   57.2635 C   0  0  0  0  0
   -2.3318   32.2868   56.0544 C   0  0  0  0  0
   -0.8081   30.8264   54.9774 C   0  0  0  0  0
   -2.0586   32.7903   58.4697 C   0  0  0  0  0
   -2.4048   33.3544   59.4779 C   0  0  0  0  0
   -1.0068   30.8238   61.4313 C   0  0  0  0  0
   -1.2145   29.7713   62.4849 C   0  0  0  0  0
   -0.2045   28.8187   62.7283 C   0  0  0  0  0
   -0.4297   27.7780   63.6406 C   0  0  0  0  0
   -1.6594   27.7095   64.3184 C   0  0  0  0  0
   -2.6529   28.6653   64.0849 C   0  0  0  0  0
   -2.4323   29.6933   63.1656 C   0  0  0  0  0
    0.4243   25.7393   64.7585 C   0  0  0  0  0
    0.8998   28.7621   57.1244 O   0  0  0  0  0
   -3.3386   33.0435   55.9800 O   0  0  0  0  0
   -0.4418   30.2410   53.9221 O   0  0  0  0  0
    2.9133   31.0779   55.3633 O   0  0  0  0  0
    4.0222   28.9251   56.3095 O   0  0  0  0  0
    1.4215   30.0745   59.5235 O   0  0  0  0  0
    2.7708   30.8605   61.6437 O   0  0  0  0  0
    0.2189   31.4922   61.5964 O   0  0  0  0  0
    1.0275   28.9186   62.0752 O   0  0  0  0  0
    0.5796   26.8340   63.8642 O   0  0  0  0  0
   -0.1143   30.6577   56.1440 N   0  0  0  0  0
   -1.9010   31.6349   54.9443 N   0  0  0  0  0
    2.5614   27.2696   57.5739 F   0  0  0  0  0
    1.4165   30.3504   61.2059 P   0  0  0  0  0
  1  2  1  0  0  0
  1 25  1  0  0  0
  2  3  1  0  0  0
  2 32  1  0  0  0
  2 20  1  0  0  0
  3  4  1  0  0  0
  3 24  1  0  0  0
  4  5  1  0  0  0
  4 23  1  0  0  0
  5 20  1  0  0  0
  5 30  1  0  0  0
  7  8  1  0  0  0
  7 10  1  0  0  0
  8 31  1  0  0  0
  9 30  1  0  0  0
 12 27  1  0  0  0
 12 13  1  0  0  0
 14 28  1  0  0  0
 14 15  1  0  0  0
 15 29  1  0  0  0
 16 17  1  0  0  0
 18 13  1  0  0  0
 19 29  1  0  0  0
 30  6  1  0  0  0
 31  9  1  0  0  0
 33 25  1  0  0  0
 33 27  1  0  0  0
 33 28  1  0  0  0
  6  7  2  0  0  0
  8 21  2  0  0  0
  9 22  2  0  0  0
 13 14  2  0  0  0
 15 16  2  0  0  0
 17 18  2  0  0  0
 33 26  2  0  0  0
 10 11  3  0  0  0
M  END
> <rmsd>
0.482273608

$$$$
PubChem-156804398


 30 33  0  0  0  0  0  0  0  0999 V2000
    1.0496   32.5602   59.9260 C   0  0  0  0  0
    2.5144   32.8928   59.8255 C   0  0  0  0  0
    2.9099   34.1684   59.4140 C   0  0  0  0  0
    4.2665   34.4583   59.2414 C   0  0  0  0  0
    5.2294   33.4713   59.4725 C   0  0  0  0  0
    4.8397   32.1943   59.8869 C   0  0  0  0  0
    3.4858   31.8996   60.0715 C   0  0  0  0  0
    1.5163   28.4046   59.3289 C   0  0  0  0  0
    1.9297   28.3900   57.8573 C   0  0  0  0  0
    2.9780   29.4710   57.6035 C   0  0  0  0  0
    2.1790   30.5571   56.9431 C   0  0  0  0  0
    1.0477   29.7934   56.2989 C   0  0  0  0  0
   -0.7647   31.0514   57.3538 C   0  0  0  0  0
   -1.9133   31.8345   57.2939 C   0  0  0  0  0
   -2.4317   32.1558   56.0378 C   0  0  0  0  0
   -0.6891   30.9388   54.9932 C   0  0  0  0  0
    3.1122   30.6335   60.5278 O   0  0  0  0  0
    1.3538   29.5202   62.1708 O   0  0  0  0  0
    0.7486   31.8487   61.1006 O   0  0  0  0  0
    0.7063   29.5089   59.6137 O   0  0  0  0  0
    0.7999   28.6197   57.0397 O   0  0  0  0  0
   -3.4690   32.8620   55.9339 O   0  0  0  0  0
   -0.1434   30.5383   53.9296 O   0  0  0  0  0
    2.9198   31.2479   55.9809 O   0  0  0  0  0
    3.9756   28.9951   56.7434 O   0  0  0  0  0
    1.4645   30.3228   60.8943 P   0  0  0  0  0
   -0.1616   30.6135   56.2121 N   0  0  0  0  0
   -1.8115   31.7022   54.9185 N   0  0  0  0  0
   -2.6663   32.3905   58.7785 Cl  0  0  0  0  0
    2.4438   27.1353   57.5746 F   0  0  0  0  0
  1  2  1  0  0  0
  1 19  1  0  0  0
  3  4  1  0  0  0
  5  6  1  0  0  0
  7 17  1  0  0  0
  7  2  1  0  0  0
  8 20  1  0  0  0
  8  9  1  0  0  0
  9 10  1  0  0  0
  9 30  1  0  0  0
  9 21  1  0  0  0
 10 11  1  0  0  0
 10 25  1  0  0  0
 11 12  1  0  0  0
 11 24  1  0  0  0
 12 21  1  0  0  0
 12 27  1  0  0  0
 14 15  1  0  0  0
 14 29  1  0  0  0
 15 28  1  0  0  0
 16 27  1  0  0  0
 26 17  1  0  0  0
 26 19  1  0  0  0
 26 20  1  0  0  0
 27 13  1  0  0  0
 28 16  1  0  0  0
  2  3  2  0  0  0
  4  5  2  0  0  0
  6  7  2  0  0  0
 13 14  2  0  0  0
 15 22  2  0  0  0
 16 23  2  0  0  0
 26 18  2  0  0  0
M  END
> <rmsd>
0.359009832

$$$$
PubChem-142287247


 25 26  0  0  0  0  0  0  0  0999 V2000
    5.6201   30.6277   57.8816 C   0  0  0  0  0
    5.2866   29.2176   57.4077 C   0  0  0  0  0
    5.3679   28.1990   58.5384 C   0  0  0  0  0
    3.0022   29.5002   57.5100 C   0  0  0  0  0
    2.0409   28.3286   57.6090 C   0  0  0  0  0
    1.0537   29.8131   56.2151 C   0  0  0  0  0
    2.1626   30.5847   56.8897 C   0  0  0  0  0
    2.7643   32.6566   56.3983 C   0  0  0  0  0
   -0.8002   30.9476   57.3378 C   0  0  0  0  0
   -1.9782   31.6900   57.3175 C   0  0  0  0  0
   -2.5047   32.0589   56.0834 C   0  0  0  0  0
   -0.7214   30.9693   54.9733 C   0  0  0  0  0
    1.7316   28.0083   59.0661 C   0  0  0  0  0
    4.0797   29.1422   56.6740 O   0  0  0  0  0
    0.8487   28.6070   56.9087 O   0  0  0  0  0
    2.8768   31.3389   55.9535 O   0  0  0  0  0
   -3.5670   32.7303   56.0276 O   0  0  0  0  0
   -0.1615   30.6496   53.8899 O   0  0  0  0  0
    1.0351   29.0629   59.6661 O   0  0  0  0  0
    3.2484   29.8925   60.8212 O   0  0  0  0  0
    1.0060   30.5667   61.9771 O   0  0  0  0  0
    1.9512   27.9793   62.0540 O   0  0  0  0  0
   -0.1820   30.5961   56.1734 N   0  0  0  0  0
   -1.8711   31.6940   54.9398 N   0  0  0  0  0
    1.8545   29.3847   61.1160 P   0  0  0  0  0
  1  2  1  0  0  0
  2  3  1  0  0  0
  2 14  1  0  0  0
  4 14  1  0  0  0
  4  5  1  0  0  0
  5 15  1  0  0  0
  5 13  1  0  0  0
  6 15  1  0  0  0
  6  7  1  0  0  0
  6 23  1  0  0  0
  7 16  1  0  0  0
  7  4  1  0  0  0
  8 16  1  0  0  0
 10 11  1  0  0  0
 11 24  1  0  0  0
 12 23  1  0  0  0
 13 19  1  0  0  0
 23  9  1  0  0  0
 24 12  1  0  0  0
 25 19  1  0  0  0
 25 21  1  0  0  0
 25 22  1  0  0  0
  9 10  2  0  0  0
 11 17  2  0  0  0
 12 18  2  0  0  0
 25 20  2  0  0  0
M  END
> <rmsd>
0.470614821

$$$$
PubChem-166171919


 31 32  0  0  0  0  0  0  0  0999 V2000
    5.1627   31.7041   58.7082 C   0  0  0  0  0
    6.0609   30.8713   57.8165 C   0  0  0  0  0
    6.1514   31.5199   56.4511 C   0  0  0  0  0
    7.4445   30.8165   58.4308 C   0  0  0  0  0
    6.6169   28.0980   56.6872 C   0  0  0  0  0
    5.1749   28.3397   59.3272 C   0  0  0  0  0
    2.9503   29.7865   57.5501 C   0  0  0  0  0
    2.1704   30.7615   56.7136 C   0  0  0  0  0
    1.0198   29.9249   56.1969 C   0  0  0  0  0
    1.8712   28.8168   57.9886 C   0  0  0  0  0
    1.8061   28.2764   60.1363 C   0  0  0  0  0
   -0.0102   28.8636   62.6302 C   0  0  0  0  0
    3.6936   30.9380   62.5288 C   0  0  0  0  0
   -0.7706   31.2046   57.2650 C   0  0  0  0  0
   -1.9444   31.9524   57.2134 C   0  0  0  0  0
   -2.5282   32.1795   55.9708 C   0  0  0  0  0
   -0.8067   30.9477   54.9135 C   0  0  0  0  0
    2.8219   32.6555   55.7740 C   0  0  0  0  0
    5.3822   29.1253   57.6419 Si  0  0  0  0  0
    3.8910   29.1018   56.7692 O   0  0  0  0  0
    0.8397   28.7995   57.0274 O   0  0  0  0  0
    1.3470   29.2217   59.2190 O   0  0  0  0  0
    2.8190   28.0930   62.6526 O   0  0  0  0  0
    0.9033   29.8822   62.3515 O   0  0  0  0  0
    3.4523   30.2690   61.3279 O   0  0  0  0  0
   -3.5887   32.8510   55.8870 O   0  0  0  0  0
   -0.3016   30.4968   53.8498 O   0  0  0  0  0
    2.9265   31.2692   55.6531 O   0  0  0  0  0
    2.2625   29.1134   61.6824 P   0  0  0  0  0
   -0.2119   30.7116   56.1221 N   0  0  0  0  0
   -1.9526   31.6759   54.8494 N   0  0  0  0  0
  1  2  1  0  0  0
  2  3  1  0  0  0
  2  4  1  0  0  0
  2 19  1  0  0  0
  7 20  1  0  0  0
  7  8  1  0  0  0
  8  9  1  0  0  0
  8 28  1  0  0  0
  9 21  1  0  0  0
  9 30  1  0  0  0
 10 21  1  0  0  0
 10 22  1  0  0  0
 10  7  1  0  0  0
 11 22  1  0  0  0
 11 29  1  0  0  0
 12 24  1  0  0  0
 13 25  1  0  0  0
 15 16  1  0  0  0
 16 31  1  0  0  0
 17 30  1  0  0  0
 18 28  1  0  0  0
 19  5  1  0  0  0
 19  6  1  0  0  0
 19 20  1  0  0  0
 29 24  1  0  0  0
 29 25  1  0  0  0
 30 14  1  0  0  0
 31 17  1  0  0  0
 14 15  2  0  0  0
 16 26  2  0  0  0
 17 27  2  0  0  0
 29 23  2  0  0  0
M  END
> <rmsd>
0.384476036

$$$$
PubChem-157998407


 30 33  0  0  0  0  0  0  0  0999 V2000
    1.0134   29.7762   56.2255 C   0  0  0  0  0
    2.1556   30.5807   56.8147 C   0  0  0  0  0
    2.9460   29.5524   57.5729 C   0  0  0  0  0
    1.8924   28.4948   57.8968 C   0  0  0  0  0
    1.4830   28.6009   59.3625 C   0  0  0  0  0
    3.7906   30.7031   62.1371 C   0  0  0  0  0
    3.6941   29.4188   62.9130 C   0  0  0  0  0
    4.8128   28.9114   63.5793 C   0  0  0  0  0
    4.6959   27.7563   64.3590 C   0  0  0  0  0
    3.4599   27.1130   64.4784 C   0  0  0  0  0
    2.3397   27.6162   63.8092 C   0  0  0  0  0
    2.4536   28.7629   63.0181 C   0  0  0  0  0
   -0.7714   31.0850   57.2498 C   0  0  0  0  0
   -1.9150   31.8755   57.2002 C   0  0  0  0  0
   -2.4596   32.1747   55.9514 C   0  0  0  0  0
   -0.7499   30.9232   54.8909 C   0  0  0  0  0
    0.7570   28.6795   57.0754 O   0  0  0  0  0
    0.8628   29.8265   59.6243 O   0  0  0  0  0
    0.9475   31.7068   61.4503 O   0  0  0  0  0
    3.2493   30.5731   60.8469 O   0  0  0  0  0
    1.3447   29.2356   62.3148 O   0  0  0  0  0
    3.9546   29.0093   56.7683 O   0  0  0  0  0
    2.9116   31.2055   55.8170 O   0  0  0  0  0
   -3.4943   32.8861   55.8562 O   0  0  0  0  0
   -0.2378   30.5053   53.8176 O   0  0  0  0  0
    1.5700   30.3857   61.0579 P   0  0  0  0  0
    2.3957   27.2213   57.6886 F   0  0  0  0  0
   -0.1931   30.6126   56.1069 N   0  0  0  0  0
   -1.8678   31.6945   54.8290 N   0  0  0  0  0
   -2.6313   32.4651   58.6899 Cl  0  0  0  0  0
  1  2  1  0  0  0
  1 28  1  0  0  0
  1 17  1  0  0  0
  2  3  1  0  0  0
  2 23  1  0  0  0
  3  4  1  0  0  0
  3 22  1  0  0  0
  4 17  1  0  0  0
  4  5  1  0  0  0
  4 27  1  0  0  0
  5 18  1  0  0  0
  6 20  1  0  0  0
  6  7  1  0  0  0
  8  9  1  0  0  0
 10 11  1  0  0  0
 12 21  1  0  0  0
 12  7  1  0  0  0
 14 15  1  0  0  0
 14 30  1  0  0  0
 15 29  1  0  0  0
 16 28  1  0  0  0
 26 18  1  0  0  0
 26 20  1  0  0  0
 26 21  1  0  0  0
 28 13  1  0  0  0
 29 16  1  0  0  0
  7  8  2  0  0  0
  9 10  2  0  0  0
 11 12  2  0  0  0
 13 14  2  0  0  0
 15 24  2  0  0  0
 16 25  2  0  0  0
 26 19  2  0  0  0
M  END
> <rmsd>
0.344150543

$$$$
PubChem-158986984


 32 35  0  0  0  0  0  0  0  0999 V2000
    2.1339   28.9065   59.2340 C   0  0  0  0  0
    2.2940   28.6306   57.7343 C   0  0  0  0  0
    3.2868   29.6170   57.1164 C   0  0  0  0  0
    2.3874   30.6106   56.4380 C   0  0  0  0  0
    1.1463   29.8003   56.1513 C   0  0  0  0  0
   -0.4233   31.2595   57.3315 C   0  0  0  0  0
   -1.5626   32.0579   57.3728 C   0  0  0  0  0
   -2.3123   32.2059   56.2069 C   0  0  0  0  0
   -0.8053   30.7986   55.0431 C   0  0  0  0  0
    3.6469   31.5062   61.4872 C   0  0  0  0  0
    3.0621   32.7581   62.0785 C   0  0  0  0  0
    3.8924   33.6915   62.7037 C   0  0  0  0  0
    3.3577   34.8887   63.1865 C   0  0  0  0  0
    1.9954   35.1608   63.0304 C   0  0  0  0  0
    1.1574   34.2322   62.4047 C   0  0  0  0  0
    1.6841   33.0173   61.9394 C   0  0  0  0  0
   -0.2924   34.5414   62.2617 C   0  0  0  0  0
    4.2409   35.8803   63.8530 C   0  0  0  0  0
    1.0393   28.7596   57.0960 O   0  0  0  0  0
   -3.3492   32.9196   56.2029 O   0  0  0  0  0
   -0.4758   30.2295   53.9674 O   0  0  0  0  0
    2.9402   31.1001   55.2519 O   0  0  0  0  0
    4.1047   28.9686   56.1823 O   0  0  0  0  0
    1.5937   30.1931   59.4276 O   0  0  0  0  0
    0.4604   29.4733   61.7068 O   0  0  0  0  0
    2.9340   30.3634   61.8860 O   0  0  0  0  0
    0.8460   32.0597   61.3591 O   0  0  0  0  0
   -0.0523   30.6406   56.1740 N   0  0  0  0  0
   -1.9207   31.5756   55.0701 N   0  0  0  0  0
   -1.9259   32.6725   58.5257 F   0  0  0  0  0
    2.7435   27.3280   57.5784 F   0  0  0  0  0
    1.4281   30.4652   61.1013 P   0  0  0  0  0
  1  2  1  0  0  0
  1 24  1  0  0  0
  2  3  1  0  0  0
  2 31  1  0  0  0
  2 19  1  0  0  0
  3  4  1  0  0  0
  3 23  1  0  0  0
  4  5  1  0  0  0
  4 22  1  0  0  0
  5 19  1  0  0  0
  5 28  1  0  0  0
  7  8  1  0  0  0
  7 30  1  0  0  0
  8 29  1  0  0  0
  9 28  1  0  0  0
 10 26  1  0  0  0
 10 11  1  0  0  0
 12 13  1  0  0  0
 14 15  1  0  0  0
 16 27  1  0  0  0
 16 11  1  0  0  0
 17 15  1  0  0  0
 18 13  1  0  0  0
 28  6  1  0  0  0
 29  9  1  0  0  0
 32 24  1  0  0  0
 32 26  1  0  0  0
 32 27  1  0  0  0
  6  7  2  0  0  0
  8 20  2  0  0  0
  9 21  2  0  0  0
 11 12  2  0  0  0
 13 14  2  0  0  0
 15 16  2  0  0  0
 32 25  2  0  0  0
M  END
> <rmsd>
0.509993315

$$$$
PubChem-121311054


 27 30  0  0  0  0  0  0  0  0999 V2000
    1.7715   32.2372   57.2327 C   0  0  0  0  0
    2.0908   30.7515   57.0612 C   0  0  0  0  0
    0.9903   29.9568   56.3378 C   0  0  0  0  0
    1.7295   28.6200   58.0245 C   0  0  0  0  0
    2.2208   30.0269   58.3821 C   0  0  0  0  0
    1.0552   27.9336   59.2169 C   0  0  0  0  0
    3.0664   31.6157   61.6256 C   0  0  0  0  0
    3.7078   32.0629   62.9234 C   0  0  0  0  0
    4.8355   32.7109   62.1469 C   0  0  0  0  0
    4.1927   32.2688   60.8488 C   0  0  0  0  0
   -1.0487   30.7843   57.4230 C   0  0  0  0  0
   -2.2897   31.4149   57.3859 C   0  0  0  0  0
   -2.7544   31.8852   56.1617 C   0  0  0  0  0
   -0.7935   31.1028   55.0931 C   0  0  0  0  0
    0.8431   28.6839   56.9318 O   0  0  0  0  0
    1.4119   30.6149   59.3763 O   0  0  0  0  0
    0.5618   29.9220   61.7668 O   0  0  0  0  0
    1.8230   28.0812   60.3822 O   0  0  0  0  0
    3.1624   30.2259   61.5117 O   0  0  0  0  0
   -3.8705   32.4612   56.0911 O   0  0  0  0  0
   -0.1260   30.9665   54.0322 O   0  0  0  0  0
    1.7063   29.7265   60.7978 P   0  0  0  0  0
   -0.3094   30.6390   56.2854 N   0  0  0  0  0
   -2.0032   31.7205   55.0431 N   0  0  0  0  0
    3.3446   30.6585   56.3117 N   0  0  0  0  0
    3.8532   29.5781   56.0046 N   0  0  0  0  0
    4.3610   28.5007   55.6979 N   0  0  0  0  0
  2  1  1  0  0  0
  2  3  1  0  0  0
  2 25  1  0  0  0
  3 15  1  0  0  0
  3 23  1  0  0  0
  4 15  1  0  0  0
  4  5  1  0  0  0
  5 16  1  0  0  0
  5  2  1  0  0  0
  6 18  1  0  0  0
  6  4  1  0  0  0
  7 19  1  0  0  0
  7  8  1  0  0  0
  8  9  1  0  0  0
  9 10  1  0  0  0
 10  7  1  0  0  0
 12 13  1  0  0  0
 13 24  1  0  0  0
 14 23  1  0  0  0
 22 16  1  0  0  0
 22 18  1  0  0  0
 22 19  1  0  0  0
 23 11  1  0  0  0
 24 14  1  0  0  0
 11 12  2  0  0  0
 13 20  2  0  0  0
 14 21  2  0  0  0
 22 17  2  0  0  0
 25 26  2  0  0  0
 26 27  2  0  0  0
M  CHG  2  26   1  27  -1
M  END
> <rmsd>
0.588731408

$$$$
PubChem-161467896 PubChem-161467899


 32 35  0  0  0  0  0  0  0  0999 V2000
    1.1956   29.7359   56.1268 C   0  0  0  0  0
    2.4398   30.5688   56.3629 C   0  0  0  0  0
    3.3690   29.6097   57.0505 C   0  0  0  0  0
    2.3988   28.6456   57.7353 C   0  0  0  0  0
    2.2773   28.9778   59.2275 C   0  0  0  0  0
   -0.2364   30.1742   62.7559 C   0  0  0  0  0
   -0.8417   31.5389   62.5890 C   0  0  0  0  0
   -2.0769   31.8348   63.1707 C   0  0  0  0  0
   -2.6002   33.1272   63.0776 C   0  0  0  0  0
   -1.8840   34.1272   62.4130 C   0  0  0  0  0
   -0.6458   33.8390   61.8301 C   0  0  0  0  0
   -0.1263   32.5370   61.8996 C   0  0  0  0  0
    0.0893   34.9177   61.1133 C   0  0  0  0  0
   -0.3442   31.1680   57.3626 C   0  0  0  0  0
   -1.4755   31.9717   57.4722 C   0  0  0  0  0
   -2.2677   32.1567   56.3368 C   0  0  0  0  0
   -0.7994   30.7914   55.0735 C   0  0  0  0  0
   -1.8349   32.5709   58.7900 C   0  0  0  0  0
    1.1252   28.7442   57.1281 O   0  0  0  0  0
    1.8485   30.3105   59.3904 O   0  0  0  0  0
    2.7285   30.2520   61.8898 O   0  0  0  0  0
    0.1840   29.6399   61.5264 O   0  0  0  0  0
    1.0805   32.2222   61.2679 O   0  0  0  0  0
    4.1576   28.9290   56.1144 O   0  0  0  0  0
    2.9692   31.0539   55.1625 O   0  0  0  0  0
   -3.3084   32.8650   56.3859 O   0  0  0  0  0
   -0.5117   30.2714   53.9619 O   0  0  0  0  0
   -2.5875   31.6610   59.5321 O   0  0  0  0  0
    1.5192   30.5774   61.0405 P   0  0  0  0  0
    2.8490   27.3393   57.6178 F   0  0  0  0  0
   -0.0074   30.5846   56.1755 N   0  0  0  0  0
   -1.9111   31.5679   55.1679 N   0  0  0  0  0
  1  2  1  0  0  0
  1 31  1  0  0  0
  1 19  1  0  0  0
  2  3  1  0  0  0
  2 25  1  0  0  0
  3  4  1  0  0  0
  3 24  1  0  0  0
  4 19  1  0  0  0
  4  5  1  0  0  0
  4 30  1  0  0  0
  5 20  1  0  0  0
  6 22  1  0  0  0
  6  7  1  0  0  0
  8  9  1  0  0  0
 10 11  1  0  0  0
 12 23  1  0  0  0
 12  7  1  0  0  0
 13 11  1  0  0  0
 15 16  1  0  0  0
 16 32  1  0  0  0
 17 31  1  0  0  0
 18 15  1  0  0  0
 18 28  1  0  0  0
 29 20  1  0  0  0
 29 22  1  0  0  0
 29 23  1  0  0  0
 31 14  1  0  0  0
 32 17  1  0  0  0
  7  8  2  0  0  0
  9 10  2  0  0  0
 11 12  2  0  0  0
 14 15  2  0  0  0
 16 26  2  0  0  0
 17 27  2  0  0  0
 29 21  2  0  0  0
M  END
> <rmsd>
0.620160997

$$$$
PubChem-161467896 PubChem-161467899


 32 35  0  0  0  0  0  0  0  0999 V2000
    1.0803   29.7428   56.1473 C   0  0  0  0  0
    2.3130   30.5547   56.4912 C   0  0  0  0  0
    3.1844   29.5628   57.2051 C   0  0  0  0  0
    2.1650   28.5777   57.7823 C   0  0  0  0  0
    1.9917   28.8183   59.2854 C   0  0  0  0  0
   -0.9520   31.0554   61.3563 C   0  0  0  0  0
   -1.2591   30.0386   62.4196 C   0  0  0  0  0
   -2.4835   30.0755   63.0923 C   0  0  0  0  0
   -2.7984   29.0813   64.0235 C   0  0  0  0  0
   -1.8949   28.0445   64.2760 C   0  0  0  0  0
   -0.6692   27.9990   63.6035 C   0  0  0  0  0
   -0.3385   29.0053   62.6823 C   0  0  0  0  0
    0.2794   26.8877   63.8945 C   0  0  0  0  0
   -0.5110   31.2186   57.2615 C   0  0  0  0  0
   -1.6279   32.0508   57.2828 C   0  0  0  0  0
   -2.3218   32.2567   56.0888 C   0  0  0  0  0
   -0.8158   30.8252   54.9503 C   0  0  0  0  0
   -2.0287   32.7281   58.5507 C   0  0  0  0  0
    0.9192   28.7474   57.1336 O   0  0  0  0  0
    1.4767   30.1105   59.5080 O   0  0  0  0  0
    2.8058   30.7981   61.6756 O   0  0  0  0  0
    0.3189   31.6280   61.5358 O   0  0  0  0  0
    0.9055   28.9978   62.0442 O   0  0  0  0  0
    4.0398   28.9155   56.3042 O   0  0  0  0  0
    2.9241   31.0719   55.3444 O   0  0  0  0  0
   -3.3309   33.0107   56.0499 O   0  0  0  0  0
   -0.4682   30.2807   53.8683 O   0  0  0  0  0
   -1.2698   33.8859   58.7255 O   0  0  0  0  0
    1.4338   30.3925   61.1882 P   0  0  0  0  0
    2.5910   27.2715   57.5970 F   0  0  0  0  0
   -0.1097   30.6098   56.1074 N   0  0  0  0  0
   -1.9034   31.6399   54.9559 N   0  0  0  0  0
  1  2  1  0  0  0
  1 31  1  0  0  0
  1 19  1  0  0  0
  2  3  1  0  0  0
  2 25  1  0  0  0
  3  4  1  0  0  0
  3 24  1  0  0  0
  4 19  1  0  0  0
  4  5  1  0  0  0
  4 30  1  0  0  0
  5 20  1  0  0  0
  6 22  1  0  0  0
  6  7  1  0  0  0
  8  9  1  0  0  0
 10 11  1  0  0  0
 12 23  1  0  0  0
 12  7  1  0  0  0
 13 11  1  0  0  0
 15 16  1  0  0  0
 16 32  1  0  0  0
 17 31  1  0  0  0
 18 15  1  0  0  0
 18 28  1  0  0  0
 29 20  1  0  0  0
 29 22  1  0  0  0
 29 23  1  0  0  0
 31 14  1  0  0  0
 32 17  1  0  0  0
  7  8  2  0  0  0
  9 10  2  0  0  0
 11 12  2  0  0  0
 14 15  2  0  0  0
 16 26  2  0  0  0
 17 27  2  0  0  0
 29 21  2  0  0  0
M  END
> <rmsd>
0.465600073

$$$$
PubChem-158064188


 32 35  0  0  0  0  0  0  0  0999 V2000
    2.1570   28.9319   59.2241 C   0  0  0  0  0
    2.3247   28.6358   57.7285 C   0  0  0  0  0
    3.3138   29.6180   57.0990 C   0  0  0  0  0
    2.4107   30.6039   56.4143 C   0  0  0  0  0
    1.1672   29.7920   56.1406 C   0  0  0  0  0
   -0.3847   31.2453   57.3475 C   0  0  0  0  0
   -1.5224   32.0437   57.4140 C   0  0  0  0  0
   -2.2931   32.1969   56.2564 C   0  0  0  0  0
   -0.8016   30.7938   55.0646 C   0  0  0  0  0
   -1.8721   32.6824   58.6563 C   0  0  0  0  0
   -2.1627   33.2161   59.6976 C   0  0  0  0  0
    1.9610   32.9111   61.0353 C   0  0  0  0  0
    3.0349   32.7694   62.0774 C   0  0  0  0  0
    3.4992   31.4869   62.4280 C   0  0  0  0  0
    4.5607   31.3556   63.3279 C   0  0  0  0  0
    5.1442   32.4938   63.8931 C   0  0  0  0  0
    4.6676   33.7659   63.5599 C   0  0  0  0  0
    3.6179   33.9044   62.6468 C   0  0  0  0  0
    1.0721   28.7477   57.0832 O   0  0  0  0  0
   -3.3327   32.9090   56.2627 O   0  0  0  0  0
   -0.4885   30.2294   53.9817 O   0  0  0  0  0
    2.9582   31.0825   55.2214 O   0  0  0  0  0
    4.1295   28.9624   56.1681 O   0  0  0  0  0
    1.6089   30.2177   59.3984 O   0  0  0  0  0
    0.3867   29.5260   61.6389 O   0  0  0  0  0
    0.8573   32.0882   61.3150 O   0  0  0  0  0
    2.8919   30.3464   61.8993 O   0  0  0  0  0
   -0.0315   30.6315   56.1826 N   0  0  0  0  0
   -1.9165   31.5703   55.1122 N   0  0  0  0  0
    2.7828   27.3339   57.5933 F   0  0  0  0  0
    1.3964   30.4950   61.0660 P   0  0  0  0  0
    5.3984   35.1873   64.2727 Cl  0  0  0  0  0
  1  2  1  0  0  0
  1 24  1  0  0  0
  2  3  1  0  0  0
  2 30  1  0  0  0
  2 19  1  0  0  0
  3  4  1  0  0  0
  3 23  1  0  0  0
  4  5  1  0  0  0
  4 22  1  0  0  0
  5 19  1  0  0  0
  5 28  1  0  0  0
  7  8  1  0  0  0
  7 10  1  0  0  0
  8 29  1  0  0  0
  9 28  1  0  0  0
 12 26  1  0  0  0
 12 13  1  0  0  0
 14 27  1  0  0  0
 14 15  1  0  0  0
 16 17  1  0  0  0
 17 32  1  0  0  0
 18 13  1  0  0  0
 28  6  1  0  0  0
 29  9  1  0  0  0
 31 24  1  0  0  0
 31 26  1  0  0  0
 31 27  1  0  0  0
  6  7  2  0  0  0
  8 20  2  0  0  0
  9 21  2  0  0  0
 13 14  2  0  0  0
 15 16  2  0  0  0
 17 18  2  0  0  0
 31 25  2  0  0  0
 10 11  3  0  0  0
M  END
> <rmsd>
0.537766039

$$$$
PubChem-156803919


 33 36  0  0  0  0  0  0  0  0999 V2000
    3.4411   36.4408   61.6263 C   0  0  0  0  0
    3.2670   34.9659   61.6730 C   0  0  0  0  0
    4.2001   34.1738   62.3475 C   0  0  0  0  0
    4.0461   32.7846   62.3900 C   0  0  0  0  0
    2.9449   32.1825   61.7612 C   0  0  0  0  0
    2.0086   32.9853   61.0791 C   0  0  0  0  0
    2.1793   34.3710   61.0290 C   0  0  0  0  0
    0.8968   32.3446   60.2967 C   0  0  0  0  0
    2.3603   29.8229   59.1221 C   0  0  0  0  0
    2.4389   29.1612   57.7533 C   0  0  0  0  0
    3.3888   29.9662   56.8764 C   0  0  0  0  0
    2.4457   30.8405   56.1007 C   0  0  0  0  0
    1.1859   30.0094   56.0528 C   0  0  0  0  0
   -0.2953   31.6565   57.0893 C   0  0  0  0  0
   -1.4308   32.4643   57.0911 C   0  0  0  0  0
   -2.2694   32.4226   55.9645 C   0  0  0  0  0
   -0.8430   30.8303   54.9432 C   0  0  0  0  0
   -1.6848   33.3103   58.2681 C   0  0  0  0  0
    5.0542   31.9640   63.1167 C   0  0  0  0  0
    0.1969   31.3849   61.0488 O   0  0  0  0  0
    0.7450   29.2457   62.4570 O   0  0  0  0  0
    2.7737   30.7962   61.8168 O   0  0  0  0  0
    1.4602   29.1403   59.9446 O   0  0  0  0  0
    1.1551   29.1427   57.1642 O   0  0  0  0  0
   -3.3112   33.1278   55.9018 O   0  0  0  0  0
   -0.5917   30.0896   53.9543 O   0  0  0  0  0
   -2.6890   34.0664   58.3453 O   0  0  0  0  0
    2.9120   31.1024   54.8100 O   0  0  0  0  0
    4.0945   29.1149   56.0167 O   0  0  0  0  0
    1.2786   30.1019   61.3320 P   0  0  0  0  0
   -0.0089   30.8540   56.0252 N   0  0  0  0  0
   -1.9553   31.6095   54.9239 N   0  0  0  0  0
    2.8937   27.8615   57.9110 F   0  0  0  0  0
  1  2  1  0  0  0
  3  4  1  0  0  0
  5  6  1  0  0  0
  5 22  1  0  0  0
  7  2  1  0  0  0
  8  6  1  0  0  0
  8 20  1  0  0  0
  9 23  1  0  0  0
  9 10  1  0  0  0
 10 11  1  0  0  0
 10 33  1  0  0  0
 10 24  1  0  0  0
 11 12  1  0  0  0
 11 29  1  0  0  0
 12 13  1  0  0  0
 12 28  1  0  0  0
 13 24  1  0  0  0
 13 31  1  0  0  0
 15 16  1  0  0  0
 15 18  1  0  0  0
 16 32  1  0  0  0
 17 31  1  0  0  0
 19  4  1  0  0  0
 30 20  1  0  0  0
 30 22  1  0  0  0
 30 23  1  0  0  0
 31 14  1  0  0  0
 32 17  1  0  0  0
  2  3  2  0  0  0
  4  5  2  0  0  0
  6  7  2  0  0  0
 14 15  2  0  0  0
 16 25  2  0  0  0
 17 26  2  0  0  0
 18 27  2  0  0  0
 30 21  2  0  0  0
M  END
> <rmsd>
0.699903429

$$$$
PubChem-156574190


 32 35  0  0  0  0  0  0  0  0999 V2000
    1.6134   26.0487   65.0555 C   0  0  0  0  0
    2.7474   27.9543   63.9549 C   0  0  0  0  0
    3.9336   27.7429   64.6770 C   0  0  0  0  0
    5.0398   28.5729   64.4816 C   0  0  0  0  0
    4.9720   29.6240   63.5651 C   0  0  0  0  0
    3.8040   29.8383   62.8299 C   0  0  0  0  0
    2.6829   29.0039   63.0268 C   0  0  0  0  0
    3.7117   31.0322   61.9178 C   0  0  0  0  0
    1.4488   28.5107   59.3605 C   0  0  0  0  0
    1.8663   28.4482   57.8932 C   0  0  0  0  0
    2.9286   29.5088   57.6107 C   0  0  0  0  0
    2.1471   30.5802   56.9050 C   0  0  0  0  0
    1.0041   29.8104   56.2886 C   0  0  0  0  0
   -0.7933   31.1247   57.3001 C   0  0  0  0  0
   -1.9359   31.9145   57.2129 C   0  0  0  0  0
   -2.4514   32.1972   55.9463 C   0  0  0  0  0
   -0.7188   30.9314   54.9443 C   0  0  0  0  0
    1.6291   27.1339   64.1383 O   0  0  0  0  0
    1.5136   29.2025   62.2872 O   0  0  0  0  0
    0.7658   31.5940   61.4407 O   0  0  0  0  0
    3.1284   30.7134   60.6786 O   0  0  0  0  0
    0.7537   29.6926   59.6359 O   0  0  0  0  0
    0.7398   28.6673   57.0694 O   0  0  0  0  0
   -3.4832   32.9077   55.8182 O   0  0  0  0  0
   -0.1769   30.4899   53.8951 O   0  0  0  0  0
    2.8998   31.2193   55.9165 O   0  0  0  0  0
    3.9285   28.9917   56.7771 O   0  0  0  0  0
    1.5019   30.3460   61.0081 P   0  0  0  0  0
   -0.1941   30.6431   56.1738 N   0  0  0  0  0
   -1.8346   31.7012   54.8434 N   0  0  0  0  0
   -2.6870   32.5246   58.6772 Cl  0  0  0  0  0
    2.3639   27.1790   57.6482 F   0  0  0  0  0
  1 18  1  0  0  0
  2 18  1  0  0  0
  3  4  1  0  0  0
  5  6  1  0  0  0
  7 19  1  0  0  0
  7  2  1  0  0  0
  8 21  1  0  0  0
  8  6  1  0  0  0
  9 22  1  0  0  0
  9 10  1  0  0  0
 10 11  1  0  0  0
 10 32  1  0  0  0
 10 23  1  0  0  0
 11 12  1  0  0  0
 11 27  1  0  0  0
 12 13  1  0  0  0
 12 26  1  0  0  0
 13 23  1  0  0  0
 13 29  1  0  0  0
 15 16  1  0  0  0
 15 31  1  0  0  0
 16 30  1  0  0  0
 17 29  1  0  0  0
 28 19  1  0  0  0
 28 21  1  0  0  0
 28 22  1  0  0  0
 29 14  1  0  0  0
 30 17  1  0  0  0
  2  3  2  0  0  0
  4  5  2  0  0  0
  6  7  2  0  0  0
 14 15  2  0  0  0
 16 24  2  0  0  0
 17 25  2  0  0  0
 28 20  2  0  0  0
M  END
> <rmsd>
0.40276581

$$$$
PubChem-130438054


 27 30  0  0  0  0  0  0  0  0999 V2000
    1.7761   32.2318   57.2337 C   0  0  0  0  0
    2.0940   30.7461   57.0607 C   0  0  0  0  0
    2.2250   30.0196   58.3808 C   0  0  0  0  0
    1.7315   28.6138   58.0209 C   0  0  0  0  0
    1.0587   27.9246   59.2118 C   0  0  0  0  0
    3.4007   29.3606   62.5590 C   0  0  0  0  0
    4.8076   28.8105   62.4360 C   0  0  0  0  0
    5.2242   29.5923   63.6645 C   0  0  0  0  0
    3.8171   30.1383   63.7911 C   0  0  0  0  0
    0.9917   29.9537   56.3373 C   0  0  0  0  0
   -1.0456   30.7815   57.4253 C   0  0  0  0  0
   -2.2862   31.4131   57.3900 C   0  0  0  0  0
   -2.7515   31.8853   56.1668 C   0  0  0  0  0
   -0.7920   31.1030   55.0956 C   0  0  0  0  0
    1.8284   28.0704   60.3756 O   0  0  0  0  0
    0.5539   29.9150   61.7545 O   0  0  0  0  0
    1.4194   30.6084   59.3778 O   0  0  0  0  0
    3.1519   30.2477   61.5082 O   0  0  0  0  0
    0.8438   28.6802   56.9295 O   0  0  0  0  0
   -3.8673   32.4622   56.0979 O   0  0  0  0  0
   -0.1256   30.9676   54.0340 O   0  0  0  0  0
    1.7068   29.7155   60.7961 P   0  0  0  0  0
   -0.3074   30.6373   56.2868 N   0  0  0  0  0
   -2.0015   31.7216   55.0475 N   0  0  0  0  0
    3.3467   30.6527   56.3093 N   0  0  0  0  0
    3.8535   29.5721   56.0000 N   0  0  0  0  0
    4.3597   28.4946   55.6910 N   0  0  0  0  0
  2  1  1  0  0  0
  2  3  1  0  0  0
  2 25  1  0  0  0
  3  4  1  0  0  0
  3 17  1  0  0  0
  4  5  1  0  0  0
  4 19  1  0  0  0
  5 15  1  0  0  0
  6 18  1  0  0  0
  6  7  1  0  0  0
  7  8  1  0  0  0
  8  9  1  0  0  0
  9  6  1  0  0  0
 10 19  1  0  0  0
 10 23  1  0  0  0
 10  2  1  0  0  0
 12 13  1  0  0  0
 13 24  1  0  0  0
 14 23  1  0  0  0
 22 15  1  0  0  0
 22 17  1  0  0  0
 22 18  1  0  0  0
 23 11  1  0  0  0
 24 14  1  0  0  0
 11 12  2  0  0  0
 13 20  2  0  0  0
 14 21  2  0  0  0
 22 16  2  0  0  0
 25 26  2  0  0  0
 26 27  2  0  0  0
M  CHG  2  26   1  27  -1
M  END
> <rmsd>
0.588723242

$$$$
PubChem-11798863


 31 33  0  0  0  0  0  0  0  0999 V2000
    2.7968   32.2411   55.1722 C   0  0  0  0  0
    2.2565   30.4525   56.3582 C   0  0  0  0  0
    3.2072   29.5613   57.1066 C   0  0  0  0  0
    2.2755   28.6063   57.8218 C   0  0  0  0  0
    2.1416   28.9841   59.2936 C   0  0  0  0  0
   -1.0004   31.3255   60.6383 C   0  0  0  0  0
   -1.5193   32.4521   59.7652 C   0  0  0  0  0
   -2.5204   31.8868   58.7698 C   0  0  0  0  0
   -1.8709   31.5636   57.4564 C   0  0  0  0  0
   -0.7643   30.7150   57.3978 C   0  0  0  0  0
    1.0327   29.5819   56.1811 C   0  0  0  0  0
   -0.6949   30.9142   55.0447 C   0  0  0  0  0
   -2.3670   32.0783   56.2546 C   0  0  0  0  0
    2.4777   31.1070   63.1335 C   0  0  0  0  0
    3.6499   30.6586   63.9884 C   0  0  0  0  0
    5.0909   28.3089   65.2873 C   0  0  0  0  0
    4.0557   28.0365   62.4409 C   0  0  0  0  0
    2.0958   28.1400   64.7759 C   0  0  0  0  0
    2.7693   30.8470   55.1185 O   0  0  0  0  0
    1.4800   30.2093   59.4238 O   0  0  0  0  0
    0.7136   29.1980   61.7394 O   0  0  0  0  0
    0.1562   31.7292   61.3076 O   0  0  0  0  0
    1.0082   28.6016   57.1971 O   0  0  0  0  0
   -0.1721   30.6327   53.9326 O   0  0  0  0  0
   -3.3642   32.8483   56.2479 O   0  0  0  0  0
    2.7483   30.8658   61.7845 O   0  0  0  0  0
    4.0102   28.8310   56.2256 O   0  0  0  0  0
    1.2569   30.4549   61.0883 P   0  0  0  0  0
   -0.1843   30.4002   56.2050 N   0  0  0  0  0
   -1.7729   31.7413   55.0816 N   0  0  0  0  0
    3.7184   28.7893   64.1171 Si  0  0  0  0  0
  1 19  1  0  0  0
  2 19  1  0  0  0
  2  3  1  0  0  0
  3  4  1  0  0  0
  3 27  1  0  0  0
  4  5  1  0  0  0
  4 23  1  0  0  0
  5 20  1  0  0  0
  6 22  1  0  0  0
  6  7  1  0  0  0
  7  8  1  0  0  0
  8  9  1  0  0  0
 10 29  1  0  0  0
 11 29  1  0  0  0
 11 23  1  0  0  0
 11  2  1  0  0  0
 12 30  1  0  0  0
 13  9  1  0  0  0
 14 26  1  0  0  0
 14 15  1  0  0  0
 15 31  1  0  0  0
 28 20  1  0  0  0
 28 22  1  0  0  0
 28 26  1  0  0  0
 29 12  1  0  0  0
 30 13  1  0  0  0
 31 16  1  0  0  0
 31 17  1  0  0  0
 31 18  1  0  0  0
  9 10  2  0  0  0
 12 24  2  0  0  0
 13 25  2  0  0  0
 28 21  2  0  0  0
M  END
> <rmsd>
0.457223237

$$$$
PubChem-160968836


 32 35  0  0  0  0  0  0  0  0999 V2000
    1.1399   29.6823   56.1249 C   0  0  0  0  0
    2.2869   30.4224   56.7841 C   0  0  0  0  0
    3.1259   29.3156   57.3551 C   0  0  0  0  0
    2.1047   28.1995   57.5659 C   0  0  0  0  0
    1.7531   28.0917   59.0468 C   0  0  0  0  0
    4.1276   29.5523   60.6347 C   0  0  0  0  0
    4.4000   28.5565   61.7263 C   0  0  0  0  0
    5.7125   28.3117   62.1373 C   0  0  0  0  0
    5.9728   27.3249   63.0917 C   0  0  0  0  0
    4.9225   26.5740   63.6276 C   0  0  0  0  0
    3.6058   26.8113   63.2197 C   0  0  0  0  0
    3.3358   27.8163   62.2779 C   0  0  0  0  0
    2.5039   26.0050   63.8143 C   0  0  0  0  0
   -0.6293   30.7964   57.3795 C   0  0  0  0  0
   -1.7906   31.5623   57.4832 C   0  0  0  0  0
   -2.3843   32.0172   56.3025 C   0  0  0  0  0
   -0.6919   30.9606   55.0228 C   0  0  0  0  0
   -2.3668   31.8770   58.7980 C   0  0  0  0  0
    0.9349   28.4717   56.8199 O   0  0  0  0  0
    1.0858   29.2385   59.4890 O   0  0  0  0  0
    0.6291   30.3352   61.8183 O   0  0  0  0  0
    3.1111   30.4556   60.9890 O   0  0  0  0  0
    2.0186   28.0989   61.9036 O   0  0  0  0  0
    4.1084   28.9163   56.4406 O   0  0  0  0  0
    2.9913   31.2038   55.8625 O   0  0  0  0  0
   -3.4346   32.7125   56.3355 O   0  0  0  0  0
   -0.2122   30.7059   53.8853 O   0  0  0  0  0
   -1.8312   31.4661   59.8617 O   0  0  0  0  0
    1.6697   29.5518   61.0522 P   0  0  0  0  0
    2.6217   26.9792   57.1635 F   0  0  0  0  0
   -0.0856   30.4985   56.1639 N   0  0  0  0  0
   -1.8240   31.7076   55.1063 N   0  0  0  0  0
  1  2  1  0  0  0
  1 31  1  0  0  0
  1 19  1  0  0  0
  2  3  1  0  0  0
  2 25  1  0  0  0
  3  4  1  0  0  0
  3 24  1  0  0  0
  4 19  1  0  0  0
  4  5  1  0  0  0
  4 30  1  0  0  0
  5 20  1  0  0  0
  6 22  1  0  0  0
  6  7  1  0  0  0
  8  9  1  0  0  0
 10 11  1  0  0  0
 12 23  1  0  0  0
 12  7  1  0  0  0
 13 11  1  0  0  0
 15 16  1  0  0  0
 15 18  1  0  0  0
 16 32  1  0  0  0
 17 31  1  0  0  0
 29 20  1  0  0  0
 29 22  1  0  0  0
 29 23  1  0  0  0
 31 14  1  0  0  0
 32 17  1  0  0  0
  7  8  2  0  0  0
  9 10  2  0  0  0
 11 12  2  0  0  0
 14 15  2  0  0  0
 16 26  2  0  0  0
 17 27  2  0  0  0
 18 28  2  0  0  0
 29 21  2  0  0  0
M  END
> <rmsd>
0.34820056

$$$$
PubChem-139479318


 32 35  0  0  0  0  0  0  0  0999 V2000
    2.4712   29.7952   63.1807 C   0  0  0  0  0
    3.8776   29.8596   62.6524 C   0  0  0  0  0
    4.1223   30.4134   61.3805 C   0  0  0  0  0
    5.4370   30.5601   60.9291 C   0  0  0  0  0
    6.5035   30.1405   61.7301 C   0  0  0  0  0
    6.2581   29.5718   62.9842 C   0  0  0  0  0
    4.9461   29.4379   63.4484 C   0  0  0  0  0
    1.4175   28.4580   59.3639 C   0  0  0  0  0
    1.8518   28.4165   57.9004 C   0  0  0  0  0
    2.9170   29.4811   57.6448 C   0  0  0  0  0
    2.1435   30.5623   56.9457 C   0  0  0  0  0
    1.0076   29.8014   56.3052 C   0  0  0  0  0
   -0.8000   31.0995   57.3177 C   0  0  0  0  0
   -1.9452   31.8927   57.2352 C   0  0  0  0  0
   -2.4463   32.1935   55.9637 C   0  0  0  0  0
   -0.7018   30.9425   54.9611 C   0  0  0  0  0
   -2.6002   32.3932   58.4519 C   0  0  0  0  0
    7.2935   29.1635   63.7560 F   0  0  0  0  0
    2.3535   27.1513   57.6436 F   0  0  0  0  0
    3.0615   30.7855   60.5533 O   0  0  0  0  0
    0.6816   31.5437   61.4231 O   0  0  0  0  0
    1.5897   29.2127   62.2535 O   0  0  0  0  0
    0.6889   29.6192   59.6427 O   0  0  0  0  0
    0.7354   28.6464   57.0657 O   0  0  0  0  0
   -3.4771   32.9055   55.8296 O   0  0  0  0  0
   -0.1492   30.5175   53.9107 O   0  0  0  0  0
   -2.1485   32.1217   59.5962 O   0  0  0  0  0
    2.9074   31.2155   55.9752 O   0  0  0  0  0
    3.9268   28.9761   56.8160 O   0  0  0  0  0
    1.4605   30.3281   60.9742 P   0  0  0  0  0
   -0.1897   30.6355   56.1906 N   0  0  0  0  0
   -1.8164   31.7135   54.8608 N   0  0  0  0  0
  1  2  1  0  0  0
  1 22  1  0  0  0
  3  4  1  0  0  0
  3 20  1  0  0  0
  5  6  1  0  0  0
  6 18  1  0  0  0
  7  2  1  0  0  0
  8 23  1  0  0  0
  8  9  1  0  0  0
  9 10  1  0  0  0
  9 19  1  0  0  0
  9 24  1  0  0  0
 10 11  1  0  0  0
 10 29  1  0  0  0
 11 12  1  0  0  0
 11 28  1  0  0  0
 12 24  1  0  0  0
 12 31  1  0  0  0
 14 15  1  0  0  0
 14 17  1  0  0  0
 15 32  1  0  0  0
 16 31  1  0  0  0
 30 20  1  0  0  0
 30 22  1  0  0  0
 30 23  1  0  0  0
 31 13  1  0  0  0
 32 16  1  0  0  0
  2  3  2  0  0  0
  4  5  2  0  0  0
  6  7  2  0  0  0
 13 14  2  0  0  0
 15 25  2  0  0  0
 16 26  2  0  0  0
 17 27  2  0  0  0
 30 21  2  0  0  0
M  END
> <rmsd>
0.438733935

$$$$
PubChem-71560853


 25 27  0  0  0  0  0  0  0  0999 V2000
    5.2079   31.6105   56.2096 C   0  0  0  0  0
    4.2379   30.4874   55.8845 C   0  0  0  0  0
    2.8667   29.8898   57.5425 C   0  0  0  0  0
    2.0484   28.6146   57.5775 C   0  0  0  0  0
    0.9656   29.9367   56.1336 C   0  0  0  0  0
    2.1412   30.7722   56.6004 C   0  0  0  0  0
   -0.7785   31.2861   57.1915 C   0  0  0  0  0
   -1.9417   32.0504   57.1375 C   0  0  0  0  0
   -2.5497   32.2407   55.9004 C   0  0  0  0  0
   -0.8718   30.9422   54.8525 C   0  0  0  0  0
    1.9023   28.1076   59.0053 C   0  0  0  0  0
   -0.1006   29.5207   62.4654 C   0  0  0  0  0
    4.7868   29.7012   54.7108 C   0  0  0  0  0
    4.1208   29.6307   56.9928 O   0  0  0  0  0
    0.7852   28.8582   57.0149 O   0  0  0  0  0
    2.9915   31.0305   55.5269 O   0  0  0  0  0
   -3.6013   32.9258   55.8146 O   0  0  0  0  0
   -0.3987   30.4428   53.7960 O   0  0  0  0  0
    1.1658   29.0138   59.7757 O   0  0  0  0  0
    3.3627   29.7748   60.9958 O   0  0  0  0  0
    2.2137   27.6247   61.9440 O   0  0  0  0  0
    1.1350   30.1485   62.3027 O   0  0  0  0  0
   -0.2532   30.7424   56.0558 N   0  0  0  0  0
   -2.0075   31.6862   54.7863 N   0  0  0  0  0
    2.0065   29.1529   61.2437 P   0  0  0  0  0
  1  2  1  0  0  0
  2 14  1  0  0  0
  2 13  1  0  0  0
  2 16  1  0  0  0
  3 14  1  0  0  0
  3  4  1  0  0  0
  4 15  1  0  0  0
  4 11  1  0  0  0
  5 15  1  0  0  0
  5  6  1  0  0  0
  5 23  1  0  0  0
  6 16  1  0  0  0
  6  3  1  0  0  0
  8  9  1  0  0  0
  9 24  1  0  0  0
 10 23  1  0  0  0
 11 19  1  0  0  0
 12 22  1  0  0  0
 23  7  1  0  0  0
 24 10  1  0  0  0
 25 19  1  0  0  0
 25 21  1  0  0  0
 25 22  1  0  0  0
  7  8  2  0  0  0
  9 17  2  0  0  0
 10 18  2  0  0  0
 25 20  2  0  0  0
M  END
> <rmsd>
0.579830945

$$$$
PubChem-152760238


 27 28  0  0  0  0  0  0  0  0999 V2000
    1.4406   32.9429   58.6674 C   0  0  0  0  0
    2.0548   33.6404   57.4715 C   0  0  0  0  0
    2.5467   35.0057   57.9056 C   0  0  0  0  0
    1.0059   33.8123   56.3931 C   0  0  0  0  0
    4.4364   33.6858   55.5697 C   0  0  0  0  0
    4.6721   32.1933   58.1855 C   0  0  0  0  0
    2.2854   30.4188   56.9023 C   0  0  0  0  0
    3.1236   29.2784   57.4169 C   0  0  0  0  0
    2.1140   28.1596   57.5762 C   0  0  0  0  0
    1.1381   29.7016   56.2287 C   0  0  0  0  0
   -0.7003   30.7349   57.4677 C   0  0  0  0  0
   -1.8694   31.4888   57.5279 C   0  0  0  0  0
   -2.3951   31.9871   56.3399 C   0  0  0  0  0
   -0.6290   30.9940   55.1176 C   0  0  0  0  0
    1.7800   27.9360   59.0470 C   0  0  0  0  0
    3.4968   32.6367   56.7982 Si  0  0  0  0  0
    2.9732   31.2099   55.9732 O   0  0  0  0  0
    0.9410   28.4524   56.8485 O   0  0  0  0  0
   -3.4495   32.6731   56.3567 O   0  0  0  0  0
   -0.0755   30.7796   54.0051 O   0  0  0  0  0
    1.1191   29.0475   59.5770 O   0  0  0  0  0
    2.9630   30.5121   60.5866 O   0  0  0  0  0
    4.0801   28.8917   56.4738 O   0  0  0  0  0
   -0.0889   30.4976   56.2718 N   0  0  0  0  0
   -1.7702   31.7313   55.1622 N   0  0  0  0  0
    0.6098   30.4712   61.6903 N   0  0  0  0  0
    1.8486   29.2976   61.1317 P   0  0  0  0  0
  1  2  1  0  0  0
  2  3  1  0  0  0
  2  4  1  0  0  0
  2 16  1  0  0  0
  7 17  1  0  0  0
  7  8  1  0  0  0
  8  9  1  0  0  0
  8 23  1  0  0  0
  9 18  1  0  0  0
  9 15  1  0  0  0
 10 18  1  0  0  0
 10 24  1  0  0  0
 10  7  1  0  0  0
 12 13  1  0  0  0
 13 25  1  0  0  0
 14 24  1  0  0  0
 15 21  1  0  0  0
 16  5  1  0  0  0
 16  6  1  0  0  0
 16 17  1  0  0  0
 24 11  1  0  0  0
 25 14  1  0  0  0
 27 21  1  0  0  0
 27 26  1  0  0  0
 27 22  1  0  0  0
 11 12  2  0  0  0
 13 19  2  0  0  0
 14 20  2  0  0  0
M  END
> <rmsd>
0.442651242

$$$$
PubChem-130438216


 29 31  0  0  0  0  0  0  0  0999 V2000
    6.0001   30.2163   63.8872 C   0  0  0  0  0
    5.9298   29.6545   62.4741 C   0  0  0  0  0
    4.7751   28.6691   62.2908 C   0  0  0  0  0
    4.9479   27.4480   63.1829 C   0  0  0  0  0
    4.0816   26.3045   62.6892 C   0  0  0  0  0
    3.4233   29.3337   62.5281 C   0  0  0  0  0
    1.0544   27.9258   59.2116 C   0  0  0  0  0
    1.7297   28.6140   58.0216 C   0  0  0  0  0
    2.2233   30.0197   58.3821 C   0  0  0  0  0
    2.0934   30.7466   57.0621 C   0  0  0  0  0
    0.9918   29.9545   56.3375 C   0  0  0  0  0
   -1.0464   30.7809   57.4248 C   0  0  0  0  0
   -2.2872   31.4121   57.3893 C   0  0  0  0  0
   -2.7520   31.8850   56.1661 C   0  0  0  0  0
   -0.7916   31.1039   55.0955 C   0  0  0  0  0
    1.7750   32.2324   57.2353 C   0  0  0  0  0
    3.1536   30.2455   61.5049 O   0  0  0  0  0
    0.5565   29.9173   61.7587 O   0  0  0  0  0
    1.8233   28.0697   60.3762 O   0  0  0  0  0
    1.4174   30.6084   59.3790 O   0  0  0  0  0
    0.8440   28.6804   56.9287 O   0  0  0  0  0
   -3.8679   32.4615   56.0970 O   0  0  0  0  0
   -0.1246   30.9694   54.0342 O   0  0  0  0  0
    1.7062   29.7155   60.7969 P   0  0  0  0  0
   -0.3075   30.6376   56.2867 N   0  0  0  0  0
   -2.0012   31.7222   55.0470 N   0  0  0  0  0
    3.3467   30.6536   56.3118 N   0  0  0  0  0
    3.8543   29.5732   56.0034 N   0  0  0  0  0
    4.3613   28.4957   55.6953 N   0  0  0  0  0
  1  2  1  0  0  0
  2  3  1  0  0  0
  3  4  1  0  0  0
  3  6  1  0  0  0
  4  5  1  0  0  0
  6 17  1  0  0  0
  7 19  1  0  0  0
  8  7  1  0  0  0
  8  9  1  0  0  0
  8 21  1  0  0  0
  9 20  1  0  0  0
  9 10  1  0  0  0
 10 11  1  0  0  0
 10 16  1  0  0  0
 10 27  1  0  0  0
 11 21  1  0  0  0
 11 25  1  0  0  0
 13 14  1  0  0  0
 14 26  1  0  0  0
 15 25  1  0  0  0
 24 17  1  0  0  0
 24 19  1  0  0  0
 24 20  1  0  0  0
 25 12  1  0  0  0
 26 15  1  0  0  0
 12 13  2  0  0  0
 14 22  2  0  0  0
 15 23  2  0  0  0
 24 18  2  0  0  0
 27 28  2  0  0  0
 28 29  2  0  0  0
M  CHG  2  28   1  29  -1
M  END
> <rmsd>
0.587626755

$$$$
PubChem-139478491


 33 36  0  0  0  0  0  0  0  0999 V2000
    6.6097   27.5523   64.2516 C   0  0  0  0  0
    5.7347   28.2872   63.3018 C   0  0  0  0  0
    6.2962   29.1710   62.3762 C   0  0  0  0  0
    5.4794   29.8609   61.4753 C   0  0  0  0  0
    4.0887   29.6739   61.5061 C   0  0  0  0  0
    3.5270   28.7772   62.4375 C   0  0  0  0  0
    4.3531   28.0809   63.3234 C   0  0  0  0  0
    2.0557   28.4683   62.3944 C   0  0  0  0  0
    1.5232   28.4491   59.3002 C   0  0  0  0  0
    1.9385   28.4339   57.8304 C   0  0  0  0  0
    2.9743   29.5264   57.5726 C   0  0  0  0  0
    2.1659   30.5964   56.8967 C   0  0  0  0  0
    1.0400   29.8158   56.2626 C   0  0  0  0  0
   -0.7850   31.0585   57.3137 C   0  0  0  0  0
   -1.9478   31.8222   57.2520 C   0  0  0  0  0
   -2.4664   32.1385   55.9924 C   0  0  0  0  0
   -0.7106   30.9351   54.9534 C   0  0  0  0  0
   -2.5804   32.3118   58.5116 C   0  0  0  0  0
    6.1028   30.7966   60.4986 C   0  0  0  0  0
    1.2647   29.6304   62.3587 O   0  0  0  0  0
    1.0811   31.8132   60.9222 O   0  0  0  0  0
    3.2656   30.3774   60.6229 O   0  0  0  0  0
    0.7590   29.5825   59.5990 O   0  0  0  0  0
    0.8057   28.6459   57.0131 O   0  0  0  0  0
   -3.5092   32.8369   55.8826 O   0  0  0  0  0
   -0.1617   30.5348   53.8913 O   0  0  0  0  0
   -1.9993   33.5216   58.8912 O   0  0  0  0  0
    2.9006   31.2787   55.9237 O   0  0  0  0  0
    3.9844   29.0551   56.7245 O   0  0  0  0  0
    1.5650   30.3829   60.8619 P   0  0  0  0  0
   -0.1781   30.6223   56.1733 N   0  0  0  0  0
   -1.8405   31.6867   54.8756 N   0  0  0  0  0
    2.4670   27.1840   57.5532 F   0  0  0  0  0
  1  2  1  0  0  0
  3  4  1  0  0  0
  5  6  1  0  0  0
  5 22  1  0  0  0
  7  2  1  0  0  0
  8  6  1  0  0  0
  8 20  1  0  0  0
  9 23  1  0  0  0
  9 10  1  0  0  0
 10 11  1  0  0  0
 10 33  1  0  0  0
 10 24  1  0  0  0
 11 12  1  0  0  0
 11 29  1  0  0  0
 12 13  1  0  0  0
 12 28  1  0  0  0
 13 24  1  0  0  0
 13 31  1  0  0  0
 15 16  1  0  0  0
 16 32  1  0  0  0
 17 31  1  0  0  0
 18 15  1  0  0  0
 18 27  1  0  0  0
 19  4  1  0  0  0
 30 20  1  0  0  0
 30 22  1  0  0  0
 30 23  1  0  0  0
 31 14  1  0  0  0
 32 17  1  0  0  0
  2  3  2  0  0  0
  4  5  2  0  0  0
  6  7  2  0  0  0
 14 15  2  0  0  0
 16 25  2  0  0  0
 17 26  2  0  0  0
 30 21  2  0  0  0
M  END
> <rmsd>
0.343399972

$$$$
PubChem-161154176


 31 34  0  0  0  0  0  0  0  0999 V2000
    1.0191   29.7619   56.2529 C   0  0  0  0  0
    2.1514   30.5477   56.8839 C   0  0  0  0  0
    2.9294   29.4961   57.6213 C   0  0  0  0  0
    1.8682   28.4344   57.9031 C   0  0  0  0  0
    1.4410   28.5054   59.3668 C   0  0  0  0  0
    3.7191   30.9738   61.8917 C   0  0  0  0  0
    3.8569   29.7003   62.6773 C   0  0  0  0  0
    5.0857   29.3565   63.2461 C   0  0  0  0  0
    5.1909   28.2121   64.0408 C   0  0  0  0  0
    4.0658   27.4163   64.2761 C   0  0  0  0  0
    2.8317   27.7548   63.7116 C   0  0  0  0  0
    2.7245   28.8913   62.8951 C   0  0  0  0  0
    1.6514   26.8831   63.9667 C   0  0  0  0  0
   -0.7754   31.0591   57.2750 C   0  0  0  0  0
   -1.9142   31.8563   57.2238 C   0  0  0  0  0
   -2.4401   32.1798   55.9731 C   0  0  0  0  0
   -0.7219   30.9382   54.9145 C   0  0  0  0  0
    0.7455   28.6443   57.0697 O   0  0  0  0  0
    0.7408   29.6871   59.6300 O   0  0  0  0  0
    0.7259   31.5906   61.4325 O   0  0  0  0  0
    3.0990   30.7540   60.6503 O   0  0  0  0  0
    1.5095   29.2094   62.2805 O   0  0  0  0  0
    3.9454   28.9728   56.8118 O   0  0  0  0  0
    2.9230   31.2022   55.9183 O   0  0  0  0  0
   -3.4697   32.8980   55.8763 O   0  0  0  0  0
   -0.1969   30.5365   53.8415 O   0  0  0  0  0
    1.4815   30.3548   60.9994 P   0  0  0  0  0
    2.3711   27.1650   57.6699 F   0  0  0  0  0
   -0.1834   30.6038   56.1324 N   0  0  0  0  0
   -1.8352   31.7160   54.8509 N   0  0  0  0  0
   -2.6473   32.4248   58.7137 Cl  0  0  0  0  0
  1  2  1  0  0  0
  1 29  1  0  0  0
  1 18  1  0  0  0
  2  3  1  0  0  0
  2 24  1  0  0  0
  3  4  1  0  0  0
  3 23  1  0  0  0
  4 18  1  0  0  0
  4  5  1  0  0  0
  4 28  1  0  0  0
  5 19  1  0  0  0
  6 21  1  0  0  0
  6  7  1  0  0  0
  8  9  1  0  0  0
 10 11  1  0  0  0
 12 22  1  0  0  0
 12  7  1  0  0  0
 13 11  1  0  0  0
 15 16  1  0  0  0
 15 31  1  0  0  0
 16 30  1  0  0  0
 17 29  1  0  0  0
 27 19  1  0  0  0
 27 21  1  0  0  0
 27 22  1  0  0  0
 29 14  1  0  0  0
 30 17  1  0  0  0
  7  8  2  0  0  0
  9 10  2  0  0  0
 11 12  2  0  0  0
 14 15  2  0  0  0
 16 25  2  0  0  0
 17 26  2  0  0  0
 27 20  2  0  0  0
M  END
> <rmsd>
0.401771009

$$$$
