PubChem-126547446


 26 28  0  0  0  0  0  0  0  0999 V2000
    4.2467   26.8004   61.5317 C   0  0  0  0  0
    2.8694   26.2388   61.8357 C   0  0  0  0  0
    1.9304   26.5877   60.7141 C   0  0  0  0  0
   -0.0562   27.8175   59.8969 C   0  0  0  0  0
   -1.4025   28.3074   60.4408 C   0  0  0  0  0
   -1.1393   29.3534   61.5252 C   0  0  0  0  0
   -0.6336   30.5623   60.7394 C   0  0  0  0  0
   -0.6392   30.0710   59.2912 C   0  0  0  0  0
   -1.8534   29.1839   59.3091 C   0  0  0  0  0
    0.5035   29.0310   59.1209 C   0  0  0  0  0
    1.1172   29.7181   56.9946 C   0  0  0  0  0
    2.4483   30.2580   57.5137 C   0  0  0  0  0
    2.2334   30.5746   58.9857 C   0  0  0  0  0
    2.8126   31.5595   56.8025 C   0  0  0  0  0
    3.5722   29.2247   57.3809 C   0  0  0  0  0
    2.1699   26.1575   59.5520 O   0  0  0  0  0
    0.8010   27.3786   60.9489 O   0  0  0  0  0
    0.6702   28.6278   57.7699 O   0  0  0  0  0
    1.7405   29.4535   59.6865 O   0  0  0  0  0
    2.8818   31.3846   55.4179 O   0  0  0  0  0
    3.6998   28.7749   56.0645 O   0  0  0  0  0
    0.9645   26.3203   63.7466 O   0  0  0  0  0
    2.2232   28.3872   63.3463 O   0  0  0  0  0
    3.4081   26.4524   64.6092 O   0  0  0  0  0
    2.9624   24.8626   61.9334 F   0  0  0  0  0
    2.3148   26.8880   63.4103 S   0  0  0  0  0
  1  2  1  0  0  0
  2  3  1  0  0  0
  2 25  1  0  0  0
  2 26  1  0  0  0
  3 17  1  0  0  0
  4 17  1  0  0  0
  4  5  1  0  0  0
  5  6  1  0  0  0
  6  7  1  0  0  0
  7  8  1  0  0  0
  8  9  1  0  0  0
  8 10  1  0  0  0
  9  5  1  0  0  0
 10 18  1  0  0  0
 10  4  1  0  0  0
 10 19  1  0  0  0
 11 18  1  0  0  0
 11 12  1  0  0  0
 12 13  1  0  0  0
 12 14  1  0  0  0
 12 15  1  0  0  0
 13 19  1  0  0  0
 14 20  1  0  0  0
 15 21  1  0  0  0
 26 24  1  0  0  0
  3 16  2  0  0  0
 26 22  2  0  0  0
 26 23  2  0  0  0
M  END
> <rmsd>
0.665935159

$$$$
PubChem-88461828


 15 14  0  0  0  0  0  0  0  0999 V2000
   -0.4335   27.3530   60.8125 C   0  0  0  0  0
    0.6768   28.1518   61.4690 C   0  0  0  0  0
    0.9705   29.3724   60.6641 C   0  0  0  0  0
    0.8062   30.5101   61.1787 O   0  0  0  0  0
    1.4321   29.2512   59.3549 O   0  0  0  0  0
    1.7057   30.3374   58.6200 O   0  0  0  0  0
    2.5716   30.8781   56.2117 O   0  0  0  0  0
    1.0041   28.7966   56.4323 O   0  0  0  0  0
    3.6053   28.7690   57.3615 O   0  0  0  0  0
    1.8263   27.3630   61.5717 O   0  0  0  0  0
    2.5831   28.6937   63.7116 O   0  0  0  0  0
    0.8789   26.7444   64.1101 O   0  0  0  0  0
    3.5135   26.2662   63.4598 O   0  0  0  0  0
    2.2311   29.7279   57.1310 P   0  0  0  0  0
    2.2057   27.3119   63.2259 P   0  0  0  0  0
  2  1  1  0  0  0
  2  3  1  0  0  0
  2 10  1  0  0  0
  3  5  1  0  0  0
  5  6  1  0  0  0
 14  6  1  0  0  0
 14  8  1  0  0  0
 14  9  1  0  0  0
 15 10  1  0  0  0
 15 12  1  0  0  0
 15 13  1  0  0  0
  3  4  2  0  0  0
 14  7  2  0  0  0
 15 11  2  0  0  0
M  END
> <rmsd>
0.711527646

$$$$
PubChem-91520142


 29 31  0  0  0  0  0  0  0  0999 V2000
    1.8919   26.6983   67.2596 C   0  0  0  0  0
    0.7875   25.8716   67.0449 C   0  0  0  0  0
   -0.0109   26.0793   65.9175 C   0  0  0  0  0
    1.3589   27.8973   65.2384 C   0  0  0  0  0
    2.1844   27.7176   66.3519 C   0  0  0  0  0
    1.6797   28.9564   64.2391 C   0  0  0  0  0
    1.9425   29.2345   61.9397 C   0  0  0  0  0
    1.8660   28.4276   60.6575 C   0  0  0  0  0
    2.4328   28.8192   58.5551 C   0  0  0  0  0
    3.4660   29.8962   58.1670 C   0  0  0  0  0
    3.6348   30.0039   56.6476 C   0  0  0  0  0
    2.2745   30.1533   55.9595 C   0  0  0  0  0
    1.1564   29.4589   56.7531 C   0  0  0  0  0
    0.0211   29.0302   55.8347 C   0  0  0  0  0
    3.7231   28.4178   63.2172 C   0  0  0  0  0
    4.2962   27.0630   63.4992 C   0  0  0  0  0
    5.6682   26.9419   63.7330 C   0  0  0  0  0
    6.2086   25.6833   64.0030 C   0  0  0  0  0
    5.3777   24.5623   64.0370 C   0  0  0  0  0
    4.0112   24.7200   63.7976 C   0  0  0  0  0
    0.2902   27.0772   65.0433 N   0  0  0  0  0
    2.2747   28.3605   63.0515 N   0  0  0  0  0
    3.5034   25.9543   63.5358 N   0  0  0  0  0
    1.6081   29.2817   59.5851 O   0  0  0  0  0
    1.6565   28.3496   57.4655 O   0  0  0  0  0
    0.4607   28.0614   54.9300 O   0  0  0  0  0
    1.9695   31.5065   55.8131 O   0  0  0  0  0
    4.2852   28.8723   56.1490 O   0  0  0  0  0
    4.6900   29.6343   58.7838 O   0  0  0  0  0
  2  3  1  0  0  0
  4 21  1  0  0  0
  5  1  1  0  0  0
  6  4  1  0  0  0
  6 22  1  0  0  0
  7 22  1  0  0  0
  7  8  1  0  0  0
  8 24  1  0  0  0
  9 24  1  0  0  0
  9 10  1  0  0  0
  9 25  1  0  0  0
 10 11  1  0  0  0
 10 29  1  0  0  0
 11 12  1  0  0  0
 11 28  1  0  0  0
 12 13  1  0  0  0
 12 27  1  0  0  0
 13 25  1  0  0  0
 13 14  1  0  0  0
 14 26  1  0  0  0
 15 22  1  0  0  0
 15 16  1  0  0  0
 16 23  1  0  0  0
 17 18  1  0  0  0
 19 20  1  0  0  0
  1  2  2  0  0  0
  3 21  2  0  0  0
  4  5  2  0  0  0
 16 17  2  0  0  0
 18 19  2  0  0  0
 20 23  2  0  0  0
M  END
> <rmsd>
0.735459089

$$$$
PubChem-89382764


 25 26  0  0  0  0  0  0  0  0999 V2000
    5.2269   31.2610   56.1723 C   0  0  0  0  0
    2.5838   28.6706   60.5040 C   0  0  0  0  0
    2.0365   27.7301   61.5606 C   0  0  0  0  0
    3.0163   26.6110   61.8049 C   0  0  0  0  0
    2.8542   26.3331   63.2593 C   0  0  0  0  0
    2.3420   27.6449   63.8068 C   0  0  0  0  0
    1.3083   27.4144   64.8672 C   0  0  0  0  0
    1.5456   27.8492   66.2573 C   0  0  0  0  0
    2.7434   28.4880   66.6122 C   0  0  0  0  0
    2.9633   28.8987   67.9303 C   0  0  0  0  0
    1.9873   28.6739   68.9046 C   0  0  0  0  0
    0.7914   28.0384   68.5609 C   0  0  0  0  0
    0.5718   27.6278   67.2427 C   0  0  0  0  0
    3.6895   30.3582   56.4975 P   0  0  0  0  0
    1.8239   29.7892   58.4417 P   0  0  0  0  0
    3.8477   28.9380   56.0039 O   0  0  0  0  0
    2.4328   31.1176   55.6557 O   0  0  0  0  0
    3.4059   30.3653   58.1755 O   0  0  0  0  0
    1.5933   28.4743   57.7261 O   0  0  0  0  0
    0.6990   30.9283   57.8954 O   0  0  0  0  0
    1.5891   29.5668   60.1065 O   0  0  0  0  0
    1.8118   28.4287   62.7630 O   0  0  0  0  0
    0.2254   26.8441   64.5608 O   0  0  0  0  0
    4.0915   26.0306   63.8264 O   0  0  0  0  0
    2.6496   25.4884   61.0631 O   0  0  0  0  0
  2 21  1  0  0  0
  3  2  1  0  0  0
  3  4  1  0  0  0
  3 22  1  0  0  0
  4  5  1  0  0  0
  4 25  1  0  0  0
  5  6  1  0  0  0
  5 24  1  0  0  0
  6 22  1  0  0  0
  6  7  1  0  0  0
  7  8  1  0  0  0
  9 10  1  0  0  0
 11 12  1  0  0  0
 13  8  1  0  0  0
 14  1  1  0  0  0
 14 17  1  0  0  0
 14 18  1  0  0  0
 15 18  1  0  0  0
 15 20  1  0  0  0
 15 21  1  0  0  0
  7 23  2  0  0  0
  8  9  2  0  0  0
 10 11  2  0  0  0
 12 13  2  0  0  0
 14 16  2  0  0  0
 15 19  2  0  0  0
M  END
> <rmsd>
0.624122739

$$$$
PubChem-155613479 PubChem-160122291


 16 15  0  0  0  0  0  0  0  0999 V2000
    4.3238   30.6579   60.5856 C   0  0  0  0  0
    3.8162   29.3732   61.2128 C   0  0  0  0  0
    4.5442   28.1746   60.6220 C   0  0  0  0  0
    2.2873   29.2596   61.1072 C   0  0  0  0  0
    1.8029   28.9551   59.6932 C   0  0  0  0  0
    1.7607   28.1966   62.0574 C   0  0  0  0  0
    1.9038   30.0949   58.8919 O   0  0  0  0  0
    0.9841   28.7860   56.8263 O   0  0  0  0  0
    2.4618   30.6968   56.4295 O   0  0  0  0  0
    3.5273   28.5081   57.3209 O   0  0  0  0  0
    1.9422   28.6056   63.3812 O   0  0  0  0  0
    2.6209   27.5716   65.6637 O   0  0  0  0  0
    1.1280   26.2693   64.2250 O   0  0  0  0  0
    3.6430   26.4408   63.5663 O   0  0  0  0  0
    2.1902   29.5272   57.3319 S   0  0  0  0  0
    2.3059   27.2036   64.2418 S   0  0  0  0  0
  1  2  1  0  0  0
  2  3  1  0  0  0
  2  4  1  0  0  0
  4  5  1  0  0  0
  4  6  1  0  0  0
  5  7  1  0  0  0
  6 11  1  0  0  0
 15  7  1  0  0  0
 15 10  1  0  0  0
 16 11  1  0  0  0
 16 14  1  0  0  0
 15  8  2  0  0  0
 15  9  2  0  0  0
 16 12  2  0  0  0
 16 13  2  0  0  0
M  CHG  2  10  -1  14  -1
M  END
> <rmsd>
0.782804549

$$$$
PubChem-11980755


 27 30  0  0  0  0  0  0  0  0999 V2000
   -1.0059   27.2298   63.9743 C   0  0  0  0  0
   -0.9618   27.0100   62.6746 C   0  0  0  0  0
    0.8889   25.9577   63.5832 C   0  0  0  0  0
    2.3212   26.5046   63.5231 C   0  0  0  0  0
    3.1753   26.0249   64.6617 C   0  0  0  0  0
    3.8037   25.0644   66.4546 C   0  0  0  0  0
    4.8885   25.6961   65.8804 C   0  0  0  0  0
    2.9947   28.3455   62.2393 C   0  0  0  0  0
    1.9819   28.9203   61.2704 C   0  0  0  0  0
    2.6740   29.2844   59.9753 C   0  0  0  0  0
    2.4087   30.1156   57.8048 C   0  0  0  0  0
    1.9112   31.4376   57.2214 C   0  0  0  0  0
    2.9789   33.4663   57.5668 C   0  0  0  0  0
    3.3220   33.0634   56.3596 C   0  0  0  0  0
    2.2173   28.9966   56.8289 C   0  0  0  0  0
    1.2892   27.5899   55.5337 C   0  0  0  0  0
    2.6551   27.3880   55.5122 C   0  0  0  0  0
    0.1841   26.2383   62.3410 N   0  0  0  0  0
    0.1066   26.6233   64.6180 N   0  0  0  0  0
    2.7218   25.2720   65.6823 N   0  0  0  0  0
    4.4893   26.3007   64.7468 N   0  0  0  0  0
    2.3271   27.9617   63.4714 N   0  0  0  0  0
    1.6981   29.8143   59.0389 N   0  0  0  0  0
    2.1135   32.5186   58.1766 N   0  0  0  0  0
    2.7136   31.8136   56.0648 N   0  0  0  0  0
    1.0137   28.6085   56.3682 N   0  0  0  0  0
    3.2402   28.2793   56.3332 N   0  0  0  0  0
  1 19  1  0  0  0
  2 18  1  0  0  0
  3 18  1  0  0  0
  3 19  1  0  0  0
  3  4  1  0  0  0
  4  5  1  0  0  0
  4 22  1  0  0  0
  5 21  1  0  0  0
  6 20  1  0  0  0
  7 21  1  0  0  0
  8 22  1  0  0  0
  8  9  1  0  0  0
  9 10  1  0  0  0
 10 23  1  0  0  0
 11 23  1  0  0  0
 11 12  1  0  0  0
 11 15  1  0  0  0
 12 24  1  0  0  0
 12 25  1  0  0  0
 13 24  1  0  0  0
 14 25  1  0  0  0
 15 27  1  0  0  0
 16 26  1  0  0  0
 17 27  1  0  0  0
  1  2  2  0  0  0
  5 20  2  0  0  0
  6  7  2  0  0  0
 13 14  2  0  0  0
 15 26  2  0  0  0
 16 17  2  0  0  0
M  CHG  8  18  -1  19  -1  21  -1  22  -1  23  -1  24  -1  25  -1  27  -1
M  END
> <rmsd>
0.714801967

$$$$
PubChem-90424805


 18 17  0  0  0  0  0  0  0  0999 V2000
    4.0272   32.2423   55.6832 C   0  0  0  0  0
    3.5095   30.8818   55.3698 C   0  0  0  0  0
    2.8059   28.3033   57.3852 C   0  0  0  0  0
    3.1725   26.8691   57.7735 C   0  0  0  0  0
    3.8039   26.7713   59.1543 C   0  0  0  0  0
    3.6853   26.4227   61.7384 C   0  0  0  0  0
    2.9615   26.1213   63.0404 C   0  0  0  0  0
    1.9276   27.1606   63.3322 C   0  0  0  0  0
    1.6941   28.8644   58.2119 C   0  0  0  0  0
    2.3819   30.7461   54.9255 O   0  0  0  0  0
    2.2571   28.3661   63.4922 O   0  0  0  0  0
    0.5925   26.7929   63.4279 O   0  0  0  0  0
    0.5764   29.0882   57.6797 O   0  0  0  0  0
    1.8903   29.1672   59.5540 O   0  0  0  0  0
    4.6173   29.3418   55.6645 Se  0  0  0  0  0
    3.9691   29.1765   57.4339 N   0  0  0  0  0
    3.9222   26.0648   64.1281 N   0  0  0  0  0
    2.6171   26.0444   60.3183 S   0  0  0  0  0
  1  2  1  0  0  0
  2 15  1  0  0  0
  3 16  1  0  0  0
  3  4  1  0  0  0
  3  9  1  0  0  0
  4  5  1  0  0  0
  5 18  1  0  0  0
  6 18  1  0  0  0
  7  6  1  0  0  0
  7  8  1  0  0  0
  7 17  1  0  0  0
  8 12  1  0  0  0
  9 14  1  0  0  0
 16 15  1  0  0  0
  2 10  2  0  0  0
  8 11  2  0  0  0
  9 13  2  0  0  0
M  END
> <rmsd>
0.800898671

$$$$
PubChem-87734203


 36 40  0  0  0  0  0  0  0  0999 V2000
    2.7449   24.6839   53.8255 C   0  0  0  0  0
    1.5714   25.4366   53.7184 C   0  0  0  0  0
    1.6151   26.8253   53.8736 C   0  0  0  0  0
    2.8334   27.4637   54.1317 C   0  0  0  0  0
    4.0064   26.7084   54.2438 C   0  0  0  0  0
    3.9622   25.3196   54.0886 C   0  0  0  0  0
    2.8734   28.9399   54.3304 C   0  0  0  0  0
    1.2342   28.8137   59.0769 C   0  0  0  0  0
    1.4044   27.9187   60.2649 C   0  0  0  0  0
    1.7863   26.5515   59.6482 C   0  0  0  0  0
    1.8019   26.8128   58.1746 C   0  0  0  0  0
    3.1920   26.6854   60.2215 C   0  0  0  0  0
    2.8114   28.0532   60.8355 C   0  0  0  0  0
    2.8017   27.7951   62.3099 C   0  0  0  0  0
    3.3571   25.7911   61.4102 C   0  0  0  0  0
    2.3359   24.4234   65.9729 C   0  0  0  0  0
    3.4593   23.4673   65.7510 C   0  0  0  0  0
    4.6850   23.6829   66.3895 C   0  0  0  0  0
    5.7429   22.7890   66.1970 C   0  0  0  0  0
    5.5752   21.6749   65.3689 C   0  0  0  0  0
    4.3489   21.4529   64.7352 C   0  0  0  0  0
    3.2909   22.3463   64.9278 C   0  0  0  0  0
    2.6787   29.3366   56.0565 S   0  0  0  0  0
    1.9647   25.3274   64.4815 S   0  0  0  0  0
    2.6001   30.8282   56.2157 O   0  0  0  0  0
    3.8757   28.8202   56.8096 O   0  0  0  0  0
    1.2420   28.6385   56.6170 O   0  0  0  0  0
    0.8838   30.0210   59.1450 O   0  0  0  0  0
    2.0330   25.9347   57.3027 O   0  0  0  0  0
    2.5904   28.6798   63.1802 O   0  0  0  0  0
    3.7233   24.5884   61.3438 O   0  0  0  0  0
    3.3964   25.9785   63.8652 O   0  0  0  0  0
    1.3377   24.3944   63.4822 O   0  0  0  0  0
    1.0016   26.4339   64.8078 O   0  0  0  0  0
    1.5081   28.1573   57.8569 N   0  0  0  0  0
    3.0887   26.4495   62.6309 N   0  0  0  0  0
  2  3  1  0  0  0
  4  5  1  0  0  0
  6  1  1  0  0  0
  7  4  1  0  0  0
  7 23  1  0  0  0
  9  8  1  0  0  0
  9 10  1  0  0  0
 10 11  1  0  0  0
 10 12  1  0  0  0
 11 35  1  0  0  0
 12 13  1  0  0  0
 12 15  1  0  0  0
 13 14  1  0  0  0
 13  9  1  0  0  0
 14 36  1  0  0  0
 16 17  1  0  0  0
 18 19  1  0  0  0
 20 21  1  0  0  0
 22 17  1  0  0  0
 23 27  1  0  0  0
 24 32  1  0  0  0
 24 16  1  0  0  0
 35 27  1  0  0  0
 35  8  1  0  0  0
 36 15  1  0  0  0
 36 32  1  0  0  0
  1  2  2  0  0  0
  3  4  2  0  0  0
  5  6  2  0  0  0
  8 28  2  0  0  0
 11 29  2  0  0  0
 14 30  2  0  0  0
 15 31  2  0  0  0
 17 18  2  0  0  0
 19 20  2  0  0  0
 21 22  2  0  0  0
 23 25  2  0  0  0
 23 26  2  0  0  0
 24 33  2  0  0  0
 24 34  2  0  0  0
M  END
> <rmsd>
0.642397463

$$$$
PubChem-140990672


 21 21  0  0  0  0  0  0  0  0999 V2000
    1.8281   28.1443   65.5974 C   0  0  0  0  0
    2.6743   27.8676   61.6824 C   0  0  0  0  0
    2.7500   28.8511   60.5285 C   0  0  0  0  0
    3.2552   28.1528   59.2681 C   0  0  0  0  0
    3.6115   29.1720   58.1748 C   0  0  0  0  0
    5.0083   29.7583   58.4241 C   0  0  0  0  0
    5.0082   30.7339   59.5812 C   0  0  0  0  0
    6.1580   31.6809   59.3136 C   0  0  0  0  0
    6.4172   31.6366   57.8186 C   0  0  0  0  0
    5.5069   30.5689   57.2435 C   0  0  0  0  0
    2.2286   28.5708   54.4428 C   0  0  0  0  0
    2.1943   27.3589   64.0464 S   0  0  0  0  0
    2.3266   29.3006   56.0595 S   0  0  0  0  0
    1.0547   26.4487   63.6805 O   0  0  0  0  0
    3.4583   26.5575   64.1928 O   0  0  0  0  0
    2.3913   28.5493   62.8689 O   0  0  0  0  0
    3.5754   28.5525   56.9165 O   0  0  0  0  0
    2.6003   30.7717   55.9127 O   0  0  0  0  0
    1.0141   29.0980   56.7647 O   0  0  0  0  0
    2.2974   27.2405   58.8111 O   0  0  0  0  0
    1.4953   29.4239   60.3041 O   0  0  0  0  0
  1 12  1  0  0  0
  2 16  1  0  0  0
  2  3  1  0  0  0
  3  4  1  0  0  0
  3 21  1  0  0  0
  4  5  1  0  0  0
  4 20  1  0  0  0
  5  6  1  0  0  0
  5 17  1  0  0  0
  6  7  1  0  0  0
  7  8  1  0  0  0
  8  9  1  0  0  0
  9 10  1  0  0  0
 10  6  1  0  0  0
 12 16  1  0  0  0
 13 17  1  0  0  0
 13 11  1  0  0  0
 12 14  2  0  0  0
 12 15  2  0  0  0
 13 18  2  0  0  0
 13 19  2  0  0  0
M  END
> <rmsd>
0.747970164

$$$$
PubChem-118551170


 27 31  0  0  0  0  0  0  0  0999 V2000
    1.7682   27.4943   66.0721 C   0  0  0  0  0
    1.2292   29.2041   63.5036 C   0  0  0  0  0
    1.2263   30.2159   62.3695 C   0  0  0  0  0
    1.0986   29.5220   61.0225 C   0  0  0  0  0
   -0.3320   29.0663   60.8059 C   0  0  0  0  0
   -0.3430   28.1986   59.5671 C   0  0  0  0  0
    0.3120   28.9007   58.3716 C   0  0  0  0  0
    1.5280   29.7697   58.7441 C   0  0  0  0  0
    2.6461   28.7819   58.6436 C   0  0  0  0  0
    2.1825   28.0359   57.4078 C   0  0  0  0  0
    2.5132   28.8824   56.1679 C   0  0  0  0  0
    1.9286   30.2774   56.2305 C   0  0  0  0  0
    1.7584   30.8407   57.6619 C   0  0  0  0  0
    4.0530   30.3576   55.5160 C   0  0  0  0  0
    5.0763   31.0835   56.4125 C   0  0  0  0  0
    6.0291   32.0192   55.6570 C   0  0  0  0  0
    5.3194   32.6889   54.4866 C   0  0  0  0  0
    4.8438   31.6542   53.4611 C   0  0  0  0  0
    4.5587   30.2727   54.0693 C   0  0  0  0  0
    2.0982   27.0675   64.3763 S   0  0  0  0  0
    0.9239   26.3272   63.8000 O   0  0  0  0  0
    3.3060   26.1752   64.3299 O   0  0  0  0  0
    2.4092   28.4556   63.4721 O   0  0  0  0  0
    1.4551   30.4229   60.0028 O   0  0  0  0  0
    0.7756   27.8982   57.4882 O   0  0  0  0  0
    2.8345   31.0776   55.5398 O   0  0  0  0  0
    3.8856   29.0463   56.0101 O   0  0  0  0  0
  1 20  1  0  0  0
  2 23  1  0  0  0
  2  3  1  0  0  0
  3  4  1  0  0  0
  4  5  1  0  0  0
  4 24  1  0  0  0
  5  6  1  0  0  0
  6  7  1  0  0  0
  7  8  1  0  0  0
  7 25  1  0  0  0
  8 24  1  0  0  0
  8  9  1  0  0  0
  9 10  1  0  0  0
 10 25  1  0  0  0
 10 11  1  0  0  0
 11 12  1  0  0  0
 11 27  1  0  0  0
 12 13  1  0  0  0
 12 26  1  0  0  0
 13  8  1  0  0  0
 14 26  1  0  0  0
 14 27  1  0  0  0
 14 15  1  0  0  0
 15 16  1  0  0  0
 16 17  1  0  0  0
 17 18  1  0  0  0
 18 19  1  0  0  0
 19 14  1  0  0  0
 20 23  1  0  0  0
 20 21  2  0  0  0
 20 22  2  0  0  0
M  END
> <rmsd>
0.670599997

$$$$
PubChem-18343720


 21 20  0  0  0  0  0  0  0  0999 V2000
    5.3499   31.8691   55.8539 C   0  0  0  0  0
    2.5068   30.5327   58.4254 C   0  0  0  0  0
    2.3923   27.6090   58.7034 C   0  0  0  0  0
    1.6734   27.1420   61.4845 C   0  0  0  0  0
    1.7950   29.5505   63.5103 C   0  0  0  0  0
    1.4147   26.7687   65.5177 C   0  0  0  0  0
    5.4542   29.3012   58.0645 C   0  0  0  0  0
    4.5533   31.9285   56.9992 O   0  0  0  0  0
    2.7543   30.5141   55.7175 O   0  0  0  0  0
    0.4441   29.2583   59.5670 O   0  0  0  0  0
    0.7001   28.9935   57.1516 O   0  0  0  0  0
    4.0301   26.3903   60.4333 O   0  0  0  0  0
    3.6814   28.7943   60.7553 O   0  0  0  0  0
    3.3203   26.0932   63.3756 O   0  0  0  0  0
    2.8619   28.6589   63.6371 O   0  0  0  0  0
    0.9196   26.7427   64.2125 O   0  0  0  0  0
    4.5886   29.1375   56.9815 O   0  0  0  0  0
    3.6037   30.5207   56.9697 P   0  0  0  0  0
    2.2368   27.1371   63.2167 P   0  0  0  0  0
    1.4414   29.0998   58.4543 S   0  0  0  0  0
    3.0199   27.5007   60.3702 S   0  0  0  0  0
  1  8  1  0  0  0
  2 20  1  0  0  0
  3 21  1  0  0  0
  4 19  1  0  0  0
  5 15  1  0  0  0
  6 16  1  0  0  0
  7 17  1  0  0  0
 18  8  1  0  0  0
 18  2  1  0  0  0
 18 17  1  0  0  0
 19 15  1  0  0  0
 19 16  1  0  0  0
 20  3  1  0  0  0
 21  4  1  0  0  0
 18  9  2  0  0  0
 19 14  2  0  0  0
 20 10  2  0  0  0
 20 11  2  0  0  0
 21 12  2  0  0  0
 21 13  2  0  0  0
M  END
> <rmsd>
0.777322114

$$$$
PubChem-18454463


 32 36  0  0  0  0  0  0  0  0999 V2000
    1.3658   33.6051   64.8417 C   0  0  0  0  0
    0.3852   32.6649   64.5168 C   0  0  0  0  0
    0.7487   31.3450   64.2340 C   0  0  0  0  0
    2.0965   30.9512   64.2737 C   0  0  0  0  0
    3.0730   31.9063   64.6012 C   0  0  0  0  0
    2.7097   33.2261   64.8836 C   0  0  0  0  0
    2.4776   29.5535   63.9702 C   0  0  0  0  0
    4.4015   27.9483   63.7587 C   0  0  0  0  0
    3.9157   29.1718   64.0026 C   0  0  0  0  0
    2.1373   27.5486   60.8814 C   0  0  0  0  0
    1.2260   28.6172   60.2989 C   0  0  0  0  0
    0.3129   28.0209   59.2500 C   0  0  0  0  0
    0.2509   29.0883   58.2135 C   0  0  0  0  0
    1.5604   29.8364   58.4076 C   0  0  0  0  0
    3.2121   28.1922   57.4012 C   0  0  0  0  0
    4.1125   29.3799   55.8889 C   0  0  0  0  0
    3.1863   30.1319   56.5209 C   0  0  0  0  0
    3.6638   31.9689   55.1668 C   0  0  0  0  0
    4.8558   29.9256   54.8523 C   0  0  0  0  0
    1.5446   28.6933   63.6817 N   0  0  0  0  0
    2.6009   29.4044   57.4753 N   0  0  0  0  0
    4.1580   28.1435   56.4201 N   0  0  0  0  0
    2.9367   31.4216   56.1881 N   0  0  0  0  0
    4.6119   31.2252   54.5092 N   0  0  0  0  0
    5.8423   29.1647   54.1642 N   0  0  0  0  0
    1.9067   27.0297   63.2826 P   0  0  0  0  0
    1.2082   26.1080   64.2549 O   0  0  0  0  0
    3.6011   26.8530   63.4296 O   0  0  0  0  0
    1.4059   26.6831   61.6996 O   0  0  0  0  0
    2.0037   29.6480   59.7318 O   0  0  0  0  0
    0.1358   28.5313   56.9373 O   0  0  0  0  0
   -0.9556   27.8083   59.7885 O   0  0  0  0  0
  2  3  1  0  0  0
  4  5  1  0  0  0
  4  7  1  0  0  0
  6  1  1  0  0  0
  8 28  1  0  0  0
  9  7  1  0  0  0
 10 29  1  0  0  0
 11 10  1  0  0  0
 11 12  1  0  0  0
 11 30  1  0  0  0
 12 13  1  0  0  0
 12 32  1  0  0  0
 13 14  1  0  0  0
 13 31  1  0  0  0
 14 30  1  0  0  0
 14 21  1  0  0  0
 16 22  1  0  0  0
 17 23  1  0  0  0
 17 21  1  0  0  0
 18 24  1  0  0  0
 19 25  1  0  0  0
 19 16  1  0  0  0
 21 15  1  0  0  0
 26 20  1  0  0  0
 26 28  1  0  0  0
 26 29  1  0  0  0
  1  2  2  0  0  0
  3  4  2  0  0  0
  5  6  2  0  0  0
  7 20  2  0  0  0
  8  9  2  0  0  0
 15 22  2  0  0  0
 16 17  2  0  0  0
 18 23  2  0  0  0
 19 24  2  0  0  0
 26 27  2  0  0  0
M  END
> <rmsd>
0.813638866

$$$$
PubChem-46172995


 20 21  0  0  0  0  0  0  0  0999 V2000
    3.7361   28.5488   64.3098 C   0  0  0  0  0
    4.5075   27.3149   63.8329 C   0  0  0  0  0
    1.8729   26.9233   61.4077 C   0  0  0  0  0
    0.6561   27.7536   61.0437 C   0  0  0  0  0
    0.4054   27.6934   59.5459 C   0  0  0  0  0
    1.4383   28.5210   58.7835 C   0  0  0  0  0
    1.4536   28.1812   57.2829 C   0  0  0  0  0
    3.9758   31.0657   57.0228 C   0  0  0  0  0
    4.5961   29.9212   57.8294 C   0  0  0  0  0
    3.6205   26.2607   63.5920 O   0  0  0  0  0
    1.0482   26.5513   63.9985 O   0  0  0  0  0
    2.5398   28.6711   63.5953 O   0  0  0  0  0
    2.9224   28.6154   55.0015 O   0  0  0  0  0
    2.7043   30.6981   56.5706 O   0  0  0  0  0
    4.2951   28.6944   57.2289 O   0  0  0  0  0
    2.2091   27.0754   63.1839 P   0  0  0  0  0
    2.8409   29.0268   56.4541 P   0  0  0  0  0
    0.2043   28.5892   56.6586 N   0  0  0  0  0
    1.6251   26.7477   57.1081 N   0  0  0  0  0
    1.1793   29.9381   58.9992 N   0  0  0  0  0
  1  2  1  0  0  0
  1 12  1  0  0  0
  2 10  1  0  0  0
  3  4  1  0  0  0
  4  5  1  0  0  0
  6  5  1  0  0  0
  6  7  1  0  0  0
  6 20  1  0  0  0
  7 18  1  0  0  0
  7 19  1  0  0  0
  7 17  1  0  0  0
  8 14  1  0  0  0
  8  9  1  0  0  0
  9 15  1  0  0  0
 16 10  1  0  0  0
 16 12  1  0  0  0
 16  3  1  0  0  0
 17 14  1  0  0  0
 17 15  1  0  0  0
 16 11  2  0  0  0
 17 13  2  0  0  0
M  END
> <rmsd>
0.740920961

$$$$
PubChem-46172995


 20 21  0  0  0  0  0  0  0  0999 V2000
    0.0963   27.0430   64.7279 C   0  0  0  0  0
    0.7303   28.3914   64.3749 C   0  0  0  0  0
    1.8662   25.7435   61.8642 C   0  0  0  0  0
    2.7509   26.3392   60.7837 C   0  0  0  0  0
    2.1144   27.5951   60.2139 C   0  0  0  0  0
    3.0368   28.2371   59.1839 C   0  0  0  0  0
    2.2984   29.2836   58.3307 C   0  0  0  0  0
    3.6158   29.0896   54.7442 C   0  0  0  0  0
    2.4276   30.0538   54.7964 C   0  0  0  0  0
    1.5959   28.2425   63.2866 O   0  0  0  0  0
    3.5112   26.5621   63.9062 O   0  0  0  0  0
    1.0455   26.0230   64.6081 O   0  0  0  0  0
    4.5634   30.6544   57.5519 O   0  0  0  0  0
    3.9106   28.6239   56.0296 O   0  0  0  0  0
    2.5219   30.8683   55.9296 O   0  0  0  0  0
    2.0772   26.6387   63.4335 P   0  0  0  0  0
    3.3811   29.8934   56.9956 P   0  0  0  0  0
    1.1239   28.6775   57.7240 N   0  0  0  0  0
    1.8793   30.4066   59.1554 N   0  0  0  0  0
    4.1831   28.8281   59.8617 N   0  0  0  0  0
  1  2  1  0  0  0
  1 12  1  0  0  0
  2 10  1  0  0  0
  3  4  1  0  0  0
  4  5  1  0  0  0
  6  5  1  0  0  0
  6  7  1  0  0  0
  6 20  1  0  0  0
  7 18  1  0  0  0
  7 19  1  0  0  0
  7 17  1  0  0  0
  8 14  1  0  0  0
  8  9  1  0  0  0
  9 15  1  0  0  0
 16 10  1  0  0  0
 16 12  1  0  0  0
 16  3  1  0  0  0
 17 14  1  0  0  0
 17 15  1  0  0  0
 16 11  2  0  0  0
 17 13  2  0  0  0
M  END
> <rmsd>
0.724678636

$$$$
PubChem-20227342


 24 24  0  0  0  0  0  0  0  0999 V2000
   -2.7134   26.0005   59.5832 C   0  0  0  0  0
   -1.6947   25.1719   60.3624 C   0  0  0  0  0
   -0.4986   26.0270   60.8031 C   0  0  0  0  0
   -0.1914   27.1842   59.8388 C   0  0  0  0  0
   -0.5922   26.8414   58.4045 C   0  0  0  0  0
   -2.1003   26.5797   58.2992 C   0  0  0  0  0
   -0.1984   27.9641   57.4616 C   0  0  0  0  0
    1.7041   29.3202   57.6379 C   0  0  0  0  0
    2.6753   29.8142   56.6175 C   0  0  0  0  0
    2.3151   29.3215   59.0026 C   0  0  0  0  0
    0.7205   25.1307   60.9746 C   0  0  0  0  0
    1.7143   25.7342   63.0200 C   0  0  0  0  0
    1.2103   27.0051   63.6230 C   0  0  0  0  0
    3.0352   25.3530   63.6030 C   0  0  0  0  0
    1.2460   27.9841   57.2893 N   0  0  0  0  0
    1.8239   25.8689   61.5749 N   0  0  0  0  0
    2.4425   30.8875   56.0037 O   0  0  0  0  0
    3.8320   29.0963   56.3374 O   0  0  0  0  0
    1.8636   30.0942   59.8867 O   0  0  0  0  0
    3.3714   28.4699   59.3051 O   0  0  0  0  0
    0.1684   26.9896   64.3288 O   0  0  0  0  0
    1.8799   28.2041   63.4061 O   0  0  0  0  0
    3.1337   24.3037   64.2910 O   0  0  0  0  0
    4.1571   26.1451   63.3882 O   0  0  0  0  0
  1  2  1  0  0  0
  2  3  1  0  0  0
  3  4  1  0  0  0
  3 11  1  0  0  0
  4  5  1  0  0  0
  5  6  1  0  0  0
  5  7  1  0  0  0
  6  1  1  0  0  0
  7 15  1  0  0  0
  8 15  1  0  0  0
  8  9  1  0  0  0
  8 10  1  0  0  0
  9 18  1  0  0  0
 10 20  1  0  0  0
 11 16  1  0  0  0
 12 16  1  0  0  0
 12 13  1  0  0  0
 12 14  1  0  0  0
 13 22  1  0  0  0
 14 24  1  0  0  0
  9 17  2  0  0  0
 10 19  2  0  0  0
 13 21  2  0  0  0
 14 23  2  0  0  0
M  END
> <rmsd>
0.551813185

$$$$
PubChem-6993800 PubChem-91864834 ZINC01666230


 15 14  0  0  0  0  0  0  0  0999 V2000
    3.1230   28.3076   61.0561 C   0  0  0  0  0
    2.7296   28.1382   59.6023 C   0  0  0  0  0
    2.6488   29.4925   58.9200 C   0  0  0  0  0
    3.1804   26.9484   61.7249 C   0  0  0  0  0
    3.5386   27.0955   63.1940 C   0  0  0  0  0
    1.5442   30.1999   59.3968 O   0  0  0  0  0
    3.7047   28.5464   56.6357 O   0  0  0  0  0
    1.2609   28.4863   56.8435 O   0  0  0  0  0
    2.4013   30.7822   56.4203 O   0  0  0  0  0
    4.0366   25.8830   63.6688 O   0  0  0  0  0
    0.9988   26.5714   63.9310 O   0  0  0  0  0
    1.6418   28.9314   63.7457 O   0  0  0  0  0
    2.5143   27.5810   65.7830 O   0  0  0  0  0
    2.4999   29.2767   57.1584 S   0  0  0  0  0
    2.1069   27.5620   64.1537 S   0  0  0  0  0
  1  2  1  0  0  0
  1  4  1  0  0  0
  3  2  1  0  0  0
  3  6  1  0  0  0
  3 14  1  0  0  0
  5  4  1  0  0  0
  5 10  1  0  0  0
  5 15  1  0  0  0
 14  9  1  0  0  0
 15 13  1  0  0  0
 14  7  2  0  0  0
 14  8  2  0  0  0
 15 11  2  0  0  0
 15 12  2  0  0  0
M  CHG  2   9  -1  13  -1
M  END
> <rmsd>
0.672625899

$$$$
PubChem-144952503 PubChem-144952504


 26 28  0  0  0  0  0  0  0  0999 V2000
    1.7541   31.7073   62.4488 C   0  0  0  0  0
    1.0010   31.0506   63.5608 C   0  0  0  0  0
    0.2029   29.9576   62.8810 C   0  0  0  0  0
    1.1309   31.1369   61.2005 C   0  0  0  0  0
    2.2128   30.9307   60.1566 C   0  0  0  0  0
    2.6435   29.5080   58.5168 C   0  0  0  0  0
    3.0906   29.9114   57.1440 C   0  0  0  0  0
   -0.3973   27.8896   64.1820 C   0  0  0  0  0
    1.4230   26.7934   64.1370 C   0  0  0  0  0
    1.6142   27.9576   63.4819 C   0  0  0  0  0
    3.8121   27.3785   62.9638 C   0  0  0  0  0
    2.4565   25.8710   64.2265 C   0  0  0  0  0
    0.5268   29.9090   61.5135 O   0  0  0  0  0
    1.6625   30.3814   58.9963 O   0  0  0  0  0
    2.5024   30.8346   56.5209 O   0  0  0  0  0
    4.1776   29.2764   56.5572 O   0  0  0  0  0
    3.0608   26.8535   58.0205 O   0  0  0  0  0
    0.6589   27.7253   57.4582 O   0  0  0  0  0
    1.5106   27.3692   60.0578 O   0  0  0  0  0
    1.9906   27.8087   58.4972 P   0  0  0  0  0
    0.4799   28.6671   63.4991 N   0  0  0  0  0
    0.1595   26.7153   64.5963 N   0  0  0  0  0
    2.7868   28.2788   62.8837 N   0  0  0  0  0
    3.6428   26.1895   63.6285 N   0  0  0  0  0
    2.2579   24.3401   65.0556 Cl  0  0  0  0  0
    5.3452   27.7401   62.2024 Cl  0  0  0  0  0
  1  2  1  0  0  0
  2  3  1  0  0  0
  3 13  1  0  0  0
  3 21  1  0  0  0
  4 13  1  0  0  0
  4  5  1  0  0  0
  4  1  1  0  0  0
  5 14  1  0  0  0
  6 14  1  0  0  0
  6  7  1  0  0  0
  6 20  1  0  0  0
  7 16  1  0  0  0
  9 22  1  0  0  0
 10 23  1  0  0  0
 10 21  1  0  0  0
 11 24  1  0  0  0
 11 26  1  0  0  0
 12 25  1  0  0  0
 12  9  1  0  0  0
 20 18  1  0  0  0
 20 19  1  0  0  0
 21  8  1  0  0  0
  7 15  2  0  0  0
  8 22  2  0  0  0
  9 10  2  0  0  0
 11 23  2  0  0  0
 12 24  2  0  0  0
 20 17  2  0  0  0
M  END
> <rmsd>
0.754340172

$$$$
PubChem-156631669 PubChem-156631670


 30 33  0  0  0  0  0  0  0  0999 V2000
    3.6201   32.4364   54.2874 B   0  0  0  0  0
    2.8705   33.8302   54.5879 C   0  0  0  0  0
    2.8917   34.1371   56.0795 C   0  0  0  0  0
    2.2823   33.0183   56.8627 C   0  0  0  0  0
    2.5425   31.6826   56.5013 C   0  0  0  0  0
    2.0335   30.6244   57.2923 C   0  0  0  0  0
    1.2366   30.9342   58.4227 C   0  0  0  0  0
    0.9731   32.2747   58.7434 C   0  0  0  0  0
    1.4958   33.3084   57.9731 C   0  0  0  0  0
   -0.0499   30.1405   60.3978 C   0  0  0  0  0
   -0.3896   28.8373   61.0291 C   0  0  0  0  0
    0.8544   30.2702   61.5742 C   0  0  0  0  0
    0.9041   28.2092   63.3146 C   0  0  0  0  0
    0.3080   26.8525   63.5358 C   0  0  0  0  0
    1.1358   25.7408   62.8869 C   0  0  0  0  0
    2.5262   25.6403   63.4325 C   0  0  0  0  0
    3.6744   25.8661   62.7140 C   0  0  0  0  0
    4.1689   25.3183   64.7302 C   0  0  0  0  0
    2.3236   29.2096   56.9319 C   0  0  0  0  0
    3.2842   31.4092   55.3404 O   0  0  0  0  0
    0.7207   29.9063   59.2244 O   0  0  0  0  0
    1.7753   28.6618   64.1048 O   0  0  0  0  0
    1.6096   28.2720   57.3763 O   0  0  0  0  0
    3.3909   28.8932   56.0997 O   0  0  0  0  0
    3.1880   31.9376   52.9747 O   0  0  0  0  0
    5.0736   32.6552   54.2667 O   0  0  0  0  0
    0.5201   28.9725   62.1748 N   0  0  0  0  0
    4.7133   25.6628   63.5442 N   0  0  0  0  0
    2.8218   25.2920   64.6953 N   0  0  0  0  0
    0.0953   26.5946   64.9518 N   0  0  0  0  0
  1  2  1  0  0  0
  1 25  1  0  0  0
  1 26  1  0  0  0
  1 20  1  0  0  0
  2  3  1  0  0  0
  3  4  1  0  0  0
  5 20  1  0  0  0
  5  6  1  0  0  0
  6 19  1  0  0  0
  7  8  1  0  0  0
  7 21  1  0  0  0
  9  4  1  0  0  0
 10 21  1  0  0  0
 10 11  1  0  0  0
 11 27  1  0  0  0
 12 27  1  0  0  0
 12 10  1  0  0  0
 14 13  1  0  0  0
 14 15  1  0  0  0
 14 30  1  0  0  0
 15 16  1  0  0  0
 17 28  1  0  0  0
 18 29  1  0  0  0
 19 24  1  0  0  0
 27 13  1  0  0  0
 29 16  1  0  0  0
  4  5  2  0  0  0
  6  7  2  0  0  0
  8  9  2  0  0  0
 13 22  2  0  0  0
 16 17  2  0  0  0
 18 28  2  0  0  0
 19 23  2  0  0  0
M  CHG  1   1  -1
M  END
> <rmsd>
0.773893476

$$$$
PubChem-23651333


 27 28  0  0  0  0  0  0  0  0999 V2000
    0.9603   26.0523   56.3301 C   0  0  0  0  0
    1.6665   27.1508   57.0957 C   0  0  0  0  0
    2.0327   29.9366   58.8817 C   0  0  0  0  0
    2.1540   28.6933   59.7892 C   0  0  0  0  0
    0.7781   28.5207   60.4309 C   0  0  0  0  0
   -0.0474   29.5651   59.7762 C   0  0  0  0  0
    3.2521   28.7472   60.8484 C   0  0  0  0  0
    3.1922   27.2961   62.8350 C   0  0  0  0  0
    3.4291   24.5911   65.3843 C   0  0  0  0  0
    2.5487   24.1835   66.5160 C   0  0  0  0  0
    1.3381   25.1229   66.3965 C   0  0  0  0  0
    1.6609   25.9766   65.2172 C   0  0  0  0  0
    2.8820   31.1210   59.3391 C   0  0  0  0  0
    4.3381   28.5966   55.8059 C   0  0  0  0  0
    5.5400   27.6796   55.7139 C   0  0  0  0  0
    1.3549   28.3877   56.5284 O   0  0  0  0  0
    2.4396   30.7537   56.3229 O   0  0  0  0  0
    0.0618   31.3356   58.2619 O   0  0  0  0  0
    3.3929   27.4755   61.4664 O   0  0  0  0  0
    2.9053   28.2786   63.5738 O   0  0  0  0  0
    3.3535   26.0212   63.3816 O   0  0  0  0  0
    4.5026   24.0045   65.0879 O   0  0  0  0  0
    0.8584   26.8143   64.7293 O   0  0  0  0  0
    4.0490   28.8521   57.1479 O   0  0  0  0  0
    2.4765   29.4964   57.1646 P   0  0  0  0  0
    0.6277   30.2932   58.9591 N   0  0  0  0  0
    2.9342   25.6969   64.6582 N   0  0  0  0  0
  1  2  1  0  0  0
  2 16  1  0  0  0
  3 25  1  0  0  0
  3  4  1  0  0  0
  3 13  1  0  0  0
  3 26  1  0  0  0
  4  5  1  0  0  0
  4  7  1  0  0  0
  5  6  1  0  0  0
  7 19  1  0  0  0
  8 19  1  0  0  0
  8 21  1  0  0  0
 10  9  1  0  0  0
 10 11  1  0  0  0
 11 12  1  0  0  0
 12 27  1  0  0  0
 14 24  1  0  0  0
 14 15  1  0  0  0
 25 16  1  0  0  0
 25 24  1  0  0  0
 26 18  1  0  0  0
 27 21  1  0  0  0
 27  9  1  0  0  0
  6 26  2  0  0  0
  8 20  2  0  0  0
  9 22  2  0  0  0
 12 23  2  0  0  0
 25 17  2  0  0  0
M  CHG  2  26   1  18  -1
M  END
> <rmsd>
0.801414609

$$$$
PubChem-11730675


 35 37  0  0  0  0  0  0  0  0999 V2000
    1.3206   28.2637   66.0005 C   0  0  0  0  0
    1.3270   26.9962   65.1592 C   0  0  0  0  0
    2.3106   27.0751   63.9895 C   0  0  0  0  0
    3.7415   27.0559   64.4261 C   0  0  0  0  0
    1.8598   28.1728   61.7189 C   0  0  0  0  0
    1.5991   29.3111   61.0779 C   0  0  0  0  0
    1.4050   29.3427   59.6219 C   0  0  0  0  0
    1.5032   28.0853   58.8309 C   0  0  0  0  0
    1.7175   26.9183   59.4724 C   0  0  0  0  0
    1.9595   26.9080   60.9427 C   0  0  0  0  0
    1.8016   25.6619   58.6921 C   0  0  0  0  0
    1.1469   24.5333   58.9777 C   0  0  0  0  0
    0.0910   24.4665   60.0455 C   0  0  0  0  0
    0.2114   23.1608   60.8257 C   0  0  0  0  0
    0.1808   21.9628   59.8793 C   0  0  0  0  0
    1.3527   22.0379   58.8994 C   0  0  0  0  0
    1.3305   23.3476   58.0799 C   0  0  0  0  0
    0.2563   23.3299   56.9829 C   0  0  0  0  0
    0.2003   22.0110   56.1977 C   0  0  0  0  0
    1.3617   21.0770   56.5265 C   0  0  0  0  0
    1.3804   20.7745   58.0252 C   0  0  0  0  0
    1.2398   29.2529   56.5479 C   0  0  0  0  0
    0.5417   28.9015   55.2345 C   0  0  0  0  0
    0.2383   30.1618   54.4434 C   0  0  0  0  0
    2.6216   29.7691   56.2898 C   0  0  0  0  0
    4.2166   27.9950   65.1176 O   0  0  0  0  0
    4.5597   26.0028   64.0422 O   0  0  0  0  0
    1.1346   30.4422   59.0721 O   0  0  0  0  0
    2.2897   25.8343   61.5143 O   0  0  0  0  0
   -0.6569   28.2336   55.4909 O   0  0  0  0  0
    2.9138   30.9539   56.5961 O   0  0  0  0  0
    3.5816   28.9497   55.7089 O   0  0  0  0  0
    0.0403   26.7503   64.6791 O   0  0  0  0  0
    2.0453   28.2298   63.1390 N   0  0  0  0  0
    1.3146   28.0753   57.4045 N   0  0  0  0  0
  2  1  1  0  0  0
  2  3  1  0  0  0
  2 33  1  0  0  0
  3  4  1  0  0  0
  3 34  1  0  0  0
  4 27  1  0  0  0
  6  7  1  0  0  0
  7  8  1  0  0  0
  8 35  1  0  0  0
  9 10  1  0  0  0
  9 11  1  0  0  0
 10  5  1  0  0  0
 13 12  1  0  0  0
 13 14  1  0  0  0
 14 15  1  0  0  0
 16 15  1  0  0  0
 16 17  1  0  0  0
 17 12  1  0  0  0
 17 18  1  0  0  0
 18 19  1  0  0  0
 19 20  1  0  0  0
 20 21  1  0  0  0
 21 16  1  0  0  0
 22 35  1  0  0  0
 22 23  1  0  0  0
 22 25  1  0  0  0
 23 24  1  0  0  0
 23 30  1  0  0  0
 25 32  1  0  0  0
 34  5  1  0  0  0
  4 26  2  0  0  0
  5  6  2  0  0  0
  7 28  2  0  0  0
  8  9  2  0  0  0
 10 29  2  0  0  0
 11 12  2  0  0  0
 25 31  2  0  0  0
M  END
> <rmsd>
0.708500743

$$$$
PubChem-70473619


 32 34  0  0  0  0  0  0  0  0999 V2000
    4.2524   30.3708   62.2350 C   0  0  0  0  0
    3.2029   31.2757   61.6247 C   0  0  0  0  0
    3.4043   31.8870   59.2498 C   0  0  0  0  0
    3.1552   31.5795   57.8325 C   0  0  0  0  0
    2.4231   30.5490   57.2742 C   0  0  0  0  0
    3.6094   32.3212   56.7595 C   0  0  0  0  0
    3.6860   27.5932   58.2478 C   0  0  0  0  0
    4.1998   26.3450   58.6348 C   0  0  0  0  0
    5.2586   25.7801   57.9230 C   0  0  0  0  0
    5.7965   26.4542   56.8270 C   0  0  0  0  0
    5.2590   27.6871   56.4570 C   0  0  0  0  0
    2.2797   27.8299   60.3196 C   0  0  0  0  0
    3.1892   27.0663   62.5796 C   0  0  0  0  0
    4.1915   26.3677   64.6041 C   0  0  0  0  0
    2.9777   26.5200   65.2716 C   0  0  0  0  0
    1.8699   26.9570   64.5465 C   0  0  0  0  0
   -0.5362   27.4669   64.4928 C   0  0  0  0  0
    5.3960   25.9118   65.3456 C   0  0  0  0  0
    3.0561   30.9728   60.2451 O   0  0  0  0  0
    3.9543   32.9790   59.5585 O   0  0  0  0  0
    0.7184   28.5098   57.1030 O   0  0  0  0  0
    0.5664   29.9600   59.0597 O   0  0  0  0  0
    1.0988   27.9245   60.7504 O   0  0  0  0  0
    0.6434   27.1041   65.1927 O   0  0  0  0  0
    2.4434   30.6707   55.9367 N   0  0  0  0  0
    3.1623   31.7388   55.6279 N   0  0  0  0  0
    2.5793   28.1928   58.9563 N   0  0  0  0  0
    4.2264   28.2199   57.1642 N   0  0  0  0  0
    3.3261   27.3681   61.1870 N   0  0  0  0  0
    4.2757   26.6424   63.2769 N   0  0  0  0  0
    1.9974   27.2245   63.2184 N   0  0  0  0  0
    1.5184   29.2896   58.1080 S   0  0  0  0  0
  1  2  1  0  0  0
  2 19  1  0  0  0
  3 19  1  0  0  0
  3  4  1  0  0  0
  5 25  1  0  0  0
  6  4  1  0  0  0
  7 28  1  0  0  0
  8  9  1  0  0  0
 10 11  1  0  0  0
 12 29  1  0  0  0
 13 31  1  0  0  0
 14 30  1  0  0  0
 15 16  1  0  0  0
 16 24  1  0  0  0
 17 24  1  0  0  0
 18 14  1  0  0  0
 25 26  1  0  0  0
 27  7  1  0  0  0
 27 12  1  0  0  0
 29 13  1  0  0  0
 32  5  1  0  0  0
 32 27  1  0  0  0
  3 20  2  0  0  0
  4  5  2  0  0  0
  6 26  2  0  0  0
  7  8  2  0  0  0
  9 10  2  0  0  0
 11 28  2  0  0  0
 12 23  2  0  0  0
 13 30  2  0  0  0
 14 15  2  0  0  0
 16 31  2  0  0  0
 32 21  2  0  0  0
 32 22  2  0  0  0
M  END
> <rmsd>
0.804729402

$$$$
PubChem-10193977


 24 27  0  0  0  0  0  0  0  0999 V2000
    1.1505   28.6118   58.1145 C   0  0  0  0  0
    1.0891   29.7850   59.0984 C   0  0  0  0  0
    2.1882   30.8151   58.8255 C   0  0  0  0  0
    2.4571   31.3143   60.2119 C   0  0  0  0  0
    2.1512   30.1103   61.0826 C   0  0  0  0  0
    2.4327   27.8334   63.0404 C   0  0  0  0  0
    2.9084   26.7486   63.6973 C   0  0  0  0  0
    2.1302   26.1334   64.6675 C   0  0  0  0  0
    0.4395   27.7646   64.2501 C   0  0  0  0  0
    4.3901   27.3973   62.3363 C   0  0  0  0  0
    1.1891   29.3159   60.4242 O   0  0  0  0  0
    3.3269   29.3354   61.3032 O   0  0  0  0  0
    3.7715   31.7663   60.3700 O   0  0  0  0  0
    3.3430   30.2143   58.2829 O   0  0  0  0  0
    3.8503   28.5837   56.2863 O   0  0  0  0  0
    1.3176   29.0679   56.7982 O   0  0  0  0  0
    2.9734   30.9643   55.6374 O   0  0  0  0  0
    3.3579   28.2582   62.1692 N   0  0  0  0  0
    0.8968   26.6606   64.9249 N   0  0  0  0  0
    1.2130   28.3660   63.2960 N   0  0  0  0  0
    2.5960   24.9928   65.3800 N   0  0  0  0  0
    4.1515   26.4407   63.2759 N   0  0  0  0  0
    5.8893   27.4974   61.4340 Cl  0  0  0  0  0
    2.9043   29.6756   56.7304 P   0  0  0  0  0
  1 16  1  0  0  0
  2  1  1  0  0  0
  2  3  1  0  0  0
  2 11  1  0  0  0
  3  4  1  0  0  0
  3 14  1  0  0  0
  4  5  1  0  0  0
  4 13  1  0  0  0
  5 11  1  0  0  0
  5 12  1  0  0  0
  6  7  1  0  0  0
  7 22  1  0  0  0
  8 19  1  0  0  0
  8 21  1  0  0  0
  9 20  1  0  0  0
 10 23  1  0  0  0
 10 18  1  0  0  0
 18 12  1  0  0  0
 18  6  1  0  0  0
 24 14  1  0  0  0
 24 16  1  0  0  0
 24 17  1  0  0  0
  6 20  2  0  0  0
  7  8  2  0  0  0
  9 19  2  0  0  0
 10 22  2  0  0  0
 24 15  2  0  0  0
M  END
> <rmsd>
0.73271656

$$$$
PubChem-130177299


 29 29  0  0  0  0  0  0  0  0999 V2000
    1.8211   27.9479   67.7173 C   0  0  0  0  0
    3.1484   28.2120   67.0206 C   0  0  0  0  0
    3.0668   29.3660   66.0200 C   0  0  0  0  0
    2.7409   30.6730   66.7199 C   0  0  0  0  0
    2.0599   29.1038   64.9057 C   0  0  0  0  0
    2.6417   28.1695   63.8404 C   0  0  0  0  0
    2.3561   26.7500   64.2403 C   0  0  0  0  0
    2.4539   29.8393   62.1577 C   0  0  0  0  0
    1.2954   30.5430   61.4672 C   0  0  0  0  0
    0.2667   29.3688   59.7232 C   0  0  0  0  0
    0.2245   29.0978   58.2249 C   0  0  0  0  0
    1.4036   27.0749   58.0209 C   0  0  0  0  0
    2.6405   26.6415   58.7895 C   0  0  0  0  0
    1.7460   26.5712   61.0133 C   0  0  0  0  0
    2.7346   27.6248   61.5218 C   0  0  0  0  0
    3.4617   25.0489   60.3222 C   0  0  0  0  0
    3.0867   23.7418   60.9321 C   0  0  0  0  0
    1.5160   28.6747   56.3250 C   0  0  0  0  0
    2.6849   29.5177   55.9460 C   0  0  0  0  0
    3.3093   25.9580   64.4570 O   0  0  0  0  0
    1.0458   26.3039   64.3656 O   0  0  0  0  0
    3.3686   23.5078   62.1355 O   0  0  0  0  0
    2.4325   22.7800   60.1738 O   0  0  0  0  0
    3.8568   29.1171   56.1762 O   0  0  0  0  0
    2.4806   30.7436   55.3269 O   0  0  0  0  0
    2.0802   28.4727   62.5127 N   0  0  0  0  0
    1.3407   30.2974   60.0352 N   0  0  0  0  0
    1.4752   28.5051   57.7680 N   0  0  0  0  0
    2.2666   25.7685   59.8963 N   0  0  0  0  0
  1  2  1  0  0  0
  2  3  1  0  0  0
  3  4  1  0  0  0
  3  5  1  0  0  0
  5  6  1  0  0  0
  6  7  1  0  0  0
  6 26  1  0  0  0
  7 21  1  0  0  0
  8 26  1  0  0  0
  8  9  1  0  0  0
  9 27  1  0  0  0
 10 27  1  0  0  0
 10 11  1  0  0  0
 11 28  1  0  0  0
 12 28  1  0  0  0
 12 13  1  0  0  0
 13 29  1  0  0  0
 14 29  1  0  0  0
 14 15  1  0  0  0
 15 26  1  0  0  0
 16 29  1  0  0  0
 16 17  1  0  0  0
 17 23  1  0  0  0
 18 28  1  0  0  0
 18 19  1  0  0  0
 19 25  1  0  0  0
  7 20  2  0  0  0
 17 22  2  0  0  0
 19 24  2  0  0  0
M  END
> <rmsd>
0.790183783

$$$$
PubChem-122544958


 34 36  0  0  0  0  0  0  0  0999 V2000
    6.2342   27.7493   60.7228 C   0  0  0  0  0
    4.8185   27.8960   61.2661 C   0  0  0  0  0
    3.8186   26.8909   60.6493 C   0  0  0  0  0
    4.2963   25.4556   60.8513 C   0  0  0  0  0
    3.7582   27.1087   59.1323 C   0  0  0  0  0
    3.2626   28.4978   58.7368 C   0  0  0  0  0
    1.7413   28.5342   58.7088 C   0  0  0  0  0
    1.3985   28.9964   57.3254 C   0  0  0  0  0
    2.7306   29.5358   56.8345 C   0  0  0  0  0
    2.9016   29.5601   55.3397 C   0  0  0  0  0
    3.0999   28.3707   54.6267 C   0  0  0  0  0
    3.2773   28.4053   53.2429 C   0  0  0  0  0
    3.2604   29.6489   52.5807 C   0  0  0  0  0
    2.9004   30.7798   54.6402 C   0  0  0  0  0
    3.6214   28.5755   50.4943 C   0  0  0  0  0
    3.6450   27.3233   51.1148 C   0  0  0  0  0
    3.4721   27.2368   52.4978 C   0  0  0  0  0
    0.7039   26.7036   63.3854 C   0  0  0  0  0
   -0.2211   27.7332   62.7573 C   0  0  0  0  0
    0.2760   25.2840   63.0027 C   0  0  0  0  0
    0.2129   25.0501   61.4988 C   0  0  0  0  0
    3.7606   28.8234   57.4626 O   0  0  0  0  0
    2.7363   31.8682   55.2532 O   0  0  0  0  0
    0.9866   27.8905   56.5774 O   0  0  0  0  0
    1.2842   29.4681   59.6387 O   0  0  0  0  0
    2.4992   27.0436   61.1563 O   0  0  0  0  0
    3.3240   25.9737   63.4677 O   0  0  0  0  0
    0.6227   26.8264   64.7717 O   0  0  0  0  0
    2.8781   28.5510   63.4677 O   0  0  0  0  0
    3.0756   30.7931   53.2906 N   0  0  0  0  0
    3.4318   29.7025   51.2328 N   0  0  0  0  0
    3.4947   26.0216   53.1008 F   0  0  0  0  0
    3.7885   28.6672   49.1533 F   0  0  0  0  0
    2.4230   27.0336   62.8727 P   0  0  0  0  0
  1  2  1  0  0  0
  2  3  1  0  0  0
  3  4  1  0  0  0
  3  5  1  0  0  0
  3 26  1  0  0  0
  6  5  1  0  0  0
  6  7  1  0  0  0
  6 22  1  0  0  0
  7  8  1  0  0  0
  7 25  1  0  0  0
  8  9  1  0  0  0
  8 24  1  0  0  0
  9 22  1  0  0  0
  9 10  1  0  0  0
 11 12  1  0  0  0
 13 30  1  0  0  0
 13 31  1  0  0  0
 14 10  1  0  0  0
 15 16  1  0  0  0
 15 33  1  0  0  0
 17 32  1  0  0  0
 17 12  1  0  0  0
 18 19  1  0  0  0
 18 20  1  0  0  0
 18 28  1  0  0  0
 20 21  1  0  0  0
 30 14  1  0  0  0
 34 26  1  0  0  0
 34 18  1  0  0  0
 34 29  1  0  0  0
 10 11  2  0  0  0
 12 13  2  0  0  0
 14 23  2  0  0  0
 15 31  2  0  0  0
 16 17  2  0  0  0
 34 27  2  0  0  0
M  END
> <rmsd>
0.7756899

$$$$
PubChem-102034571


 23 25  0  0  0  0  0  0  0  0999 V2000
    3.3711   29.9714   54.7155 C   0  0  0  0  0
    4.4623   29.1205   55.3716 C   0  0  0  0  0
    3.7550   29.6926   59.3704 C   0  0  0  0  0
    4.3384   30.3799   60.5895 C   0  0  0  0  0
    0.4434   30.0367   57.5914 C   0  0  0  0  0
   -0.4294   29.7942   58.8080 C   0  0  0  0  0
   -0.2785   28.9945   60.8618 C   0  0  0  0  0
    0.7528   28.2485   61.6960 C   0  0  0  0  0
    1.6830   27.3802   60.8093 C   0  0  0  0  0
    0.0494   27.3012   62.6977 C   0  0  0  0  0
    1.6363   29.2240   62.5166 C   0  0  0  0  0
    3.9865   28.5625   56.5624 O   0  0  0  0  0
    2.7042   30.7290   55.6839 O   0  0  0  0  0
    3.4485   30.6399   58.3921 O   0  0  0  0  0
    5.5866   30.9182   60.2783 O   0  0  0  0  0
    1.3492   28.9849   57.4382 O   0  0  0  0  0
    0.3461   29.8645   59.9650 O   0  0  0  0  0
    2.6750   26.6222   61.5023 O   0  0  0  0  0
    0.9098   26.5511   63.5565 O   0  0  0  0  0
    2.6432   28.6200   63.3286 O   0  0  0  0  0
    3.6501   26.0899   64.1071 O   0  0  0  0  0
    2.8517   29.7327   57.0575 Si  0  0  0  0  0
    2.5230   26.9305   63.1685 P   0  0  0  0  0
  1  2  1  0  0  0
  1 13  1  0  0  0
  2 12  1  0  0  0
  3 14  1  0  0  0
  3  4  1  0  0  0
  4 15  1  0  0  0
  5 16  1  0  0  0
  5  6  1  0  0  0
  6 17  1  0  0  0
  7 17  1  0  0  0
  7  8  1  0  0  0
  8  9  1  0  0  0
  9 18  1  0  0  0
 10 19  1  0  0  0
 10  8  1  0  0  0
 11 20  1  0  0  0
 11  8  1  0  0  0
 22 12  1  0  0  0
 22 13  1  0  0  0
 22 14  1  0  0  0
 22 16  1  0  0  0
 23 18  1  0  0  0
 23 19  1  0  0  0
 23 20  1  0  0  0
 23 21  1  0  0  0
M  CHG  2  23   1  21  -1
M  END
> <rmsd>
0.701131761

$$$$
PubChem-132086735


 31 34  0  0  0  0  0  0  0  0999 V2000
    3.8642   27.8161   58.7620 C   0  0  0  0  0
    2.9452   28.2575   57.6343 C   0  0  0  0  0
    3.5777   29.4112   56.8415 C   0  0  0  0  0
    2.7845   29.7250   55.6109 C   0  0  0  0  0
    1.8969   29.0602   53.5209 C   0  0  0  0  0
    1.3213   30.3185   53.3584 C   0  0  0  0  0
    1.5048   31.2701   54.3596 C   0  0  0  0  0
    5.6634   30.1583   56.9476 C   0  0  0  0  0
    1.1360   27.4155   60.7671 C   0  0  0  0  0
    1.3534   26.7393   62.7514 C   0  0  0  0  0
   -0.0281   25.2330   61.2603 C   0  0  0  0  0
   -1.4055   25.4907   60.6937 C   0  0  0  0  0
   -1.2436   24.9796   62.1221 C   0  0  0  0  0
    0.7094   24.0202   60.7292 C   0  0  0  0  0
    1.3082   25.8858   63.9878 C   0  0  0  0  0
    2.6068   25.0927   64.2144 C   0  0  0  0  0
    3.2198   26.4917   65.8737 C   0  0  0  0  0
    1.9913   27.3739   65.6387 C   0  0  0  0  0
    2.6166   28.7854   54.6400 N   0  0  0  0  0
    2.2312   30.9582   55.4646 N   0  0  0  0  0
    0.7810   27.4849   59.3840 N   0  0  0  0  0
    1.9429   28.2969   61.3881 N   0  0  0  0  0
    2.0820   27.8693   62.6354 N   0  0  0  0  0
    0.7380   26.4316   61.5929 N   0  0  0  0  0
    0.3935   30.6983   51.9239 Cl  0  0  0  0  0
    4.8908   29.0957   56.4733 O   0  0  0  0  0
    1.4758   30.0244   59.0671 O   0  0  0  0  0
    0.3578   28.8981   57.2102 O   0  0  0  0  0
    3.6377   25.9453   64.6490 O   0  0  0  0  0
    0.9100   26.6087   65.1416 O   0  0  0  0  0
    1.3564   28.7252   58.3197 S   0  0  0  0  0
  1  2  1  0  0  0
  2  3  1  0  0  0
  2 31  1  0  0  0
  3  4  1  0  0  0
  3 26  1  0  0  0
  4 20  1  0  0  0
  5 19  1  0  0  0
  6  7  1  0  0  0
  6 25  1  0  0  0
  8 26  1  0  0  0
 10 24  1  0  0  0
 11 24  1  0  0  0
 11 12  1  0  0  0
 11 14  1  0  0  0
 12 13  1  0  0  0
 13 11  1  0  0  0
 15 10  1  0  0  0
 15 16  1  0  0  0
 15 30  1  0  0  0
 16 29  1  0  0  0
 17 29  1  0  0  0
 17 18  1  0  0  0
 18 30  1  0  0  0
 21  9  1  0  0  0
 22 23  1  0  0  0
 24  9  1  0  0  0
 31 21  1  0  0  0
  4 19  2  0  0  0
  5  6  2  0  0  0
  7 20  2  0  0  0
  9 22  2  0  0  0
 10 23  2  0  0  0
 31 27  2  0  0  0
 31 28  2  0  0  0
M  END
> <rmsd>
0.787195981

$$$$
PubChem-14186149


 15 14  0  0  0  0  0  0  0  0999 V2000
    2.4115   27.8934   60.8325 C   0  0  0  0  0
    1.4791   27.0667   61.6951 C   0  0  0  0  0
    1.5696   29.1205   58.7985 C   0  0  0  0  0
    1.0750   29.0883   57.3885 C   0  0  0  0  0
    2.1344   28.5298   56.4476 C   0  0  0  0  0
    3.2285   29.5183   56.2188 C   0  0  0  0  0
    2.0538   27.0576   63.3793 S   0  0  0  0  0
    2.0916   28.4629   63.9102 O   0  0  0  0  0
    3.4315   26.4609   63.4423 O   0  0  0  0  0
    1.0065   26.1377   64.3159 O   0  0  0  0  0
    1.6749   30.2275   59.3910 O   0  0  0  0  0
    2.9863   30.6118   55.6441 O   0  0  0  0  0
    4.5213   29.2243   56.6295 O   0  0  0  0  0
    1.9223   27.9058   59.4647 N   0  0  0  0  0
   -0.1246   28.2740   57.3076 N   0  0  0  0  0
  1  2  1  0  0  0
  1 14  1  0  0  0
  2  7  1  0  0  0
  4  3  1  0  0  0
  4  5  1  0  0  0
  4 15  1  0  0  0
  5  6  1  0  0  0
  6 13  1  0  0  0
  7 10  1  0  0  0
 14  3  1  0  0  0
  3 11  2  0  0  0
  6 12  2  0  0  0
  7  8  2  0  0  0
  7  9  2  0  0  0
M  END
> <rmsd>
0.752025187

$$$$
PubChem-68980594


 19 20  0  0  0  0  0  0  0  0999 V2000
    3.2367   28.5930   60.8744 C   0  0  0  0  0
    1.9383   28.9301   60.9728 C   0  0  0  0  0
    1.1973   28.4124   62.1261 C   0  0  0  0  0
   -0.0806   28.4314   62.3729 C   0  0  0  0  0
    3.2175   27.2626   62.9589 C   0  0  0  0  0
    3.8935   27.7217   61.8887 C   0  0  0  0  0
    1.9512   30.2565   58.7971 C   0  0  0  0  0
    2.1378   29.1396   57.7810 C   0  0  0  0  0
    3.0284   29.5953   56.6764 C   0  0  0  0  0
   -0.2312   27.6651   63.5673 N   0  0  0  0  0
    1.8442   27.6579   63.1192 N   0  0  0  0  0
    3.8677   26.4201   63.9211 N   0  0  0  0  0
    1.2901   29.7514   59.9942 N   0  0  0  0  0
    0.8500   28.7382   57.2404 N   0  0  0  0  0
    0.9581   27.1637   64.0251 O   0  0  0  0  0
    3.2588   26.0307   64.9381 O   0  0  0  0  0
    5.1786   26.0414   63.7408 O   0  0  0  0  0
    4.1194   29.0036   56.4703 O   0  0  0  0  0
    2.6610   30.6665   55.8705 O   0  0  0  0  0
  2  3  1  0  0  0
  2 13  1  0  0  0
  4 10  1  0  0  0
  5 12  1  0  0  0
  6  1  1  0  0  0
  7 13  1  0  0  0
  8  7  1  0  0  0
  8  9  1  0  0  0
  8 14  1  0  0  0
  9 19  1  0  0  0
 10 15  1  0  0  0
 11 15  1  0  0  0
 11  5  1  0  0  0
 11  3  1  0  0  0
 12 17  1  0  0  0
  1  2  2  0  0  0
  3  4  2  0  0  0
  5  6  2  0  0  0
  9 18  2  0  0  0
 12 16  2  0  0  0
M  CHG  2  12   1  17  -1
M  END
> <rmsd>
0.491526246

$$$$
PubChem-68980594


 19 20  0  0  0  0  0  0  0  0999 V2000
    3.3338   28.6940   60.6976 C   0  0  0  0  0
    2.0252   28.9723   60.8365 C   0  0  0  0  0
    1.3426   28.4158   62.0077 C   0  0  0  0  0
    0.0731   28.3765   62.2923 C   0  0  0  0  0
    3.4359   27.3529   62.7728 C   0  0  0  0  0
    4.0587   27.8475   61.6862 C   0  0  0  0  0
    1.9144   30.3096   58.6703 C   0  0  0  0  0
    2.1201   29.2076   57.6417 C   0  0  0  0  0
    2.9562   29.7085   56.5144 C   0  0  0  0  0
   -0.0076   27.5978   63.4854 N   0  0  0  0  0
    2.0518   27.6856   62.9762 N   0  0  0  0  0
    4.1513   26.5351   63.7098 N   0  0  0  0  0
    1.3123   29.7691   59.8830 N   0  0  0  0  0
    0.8358   28.7520   57.1366 N   0  0  0  0  0
    1.2159   27.1476   63.9045 O   0  0  0  0  0
    3.5909   26.1135   64.7417 O   0  0  0  0  0
    5.4718   26.2163   63.4883 O   0  0  0  0  0
    4.0659   29.1672   56.2722 O   0  0  0  0  0
    2.5177   30.7666   55.7268 O   0  0  0  0  0
  2  3  1  0  0  0
  2 13  1  0  0  0
  4 10  1  0  0  0
  5 12  1  0  0  0
  6  1  1  0  0  0
  7 13  1  0  0  0
  8  7  1  0  0  0
  8  9  1  0  0  0
  8 14  1  0  0  0
  9 19  1  0  0  0
 10 15  1  0  0  0
 11 15  1  0  0  0
 11  5  1  0  0  0
 11  3  1  0  0  0
 12 17  1  0  0  0
  1  2  2  0  0  0
  3  4  2  0  0  0
  5  6  2  0  0  0
  9 18  2  0  0  0
 12 16  2  0  0  0
M  CHG  2  12   1  17  -1
M  END
> <rmsd>
0.633138597

$$$$
PubChem-68980594


 19 20  0  0  0  0  0  0  0  0999 V2000
    3.0150   28.6379   60.9353 C   0  0  0  0  0
    1.7239   29.0139   60.9666 C   0  0  0  0  0
    0.9148   28.5387   62.0921 C   0  0  0  0  0
   -0.3721   28.5990   62.2778 C   0  0  0  0  0
    2.8589   27.3465   63.0385 C   0  0  0  0  0
    3.5976   27.7665   61.9939 C   0  0  0  0  0
    1.8779   30.2999   58.7721 C   0  0  0  0  0
    2.0787   29.1600   57.7848 C   0  0  0  0  0
    3.0331   29.5698   56.7160 C   0  0  0  0  0
   -0.6010   27.8590   63.4763 N   0  0  0  0  0
    1.4920   27.7840   63.1271 N   0  0  0  0  0
    3.4382   26.5031   64.0443 N   0  0  0  0  0
    1.1469   29.8358   59.9448 N   0  0  0  0  0
    0.8063   28.7861   57.1906 N   0  0  0  0  0
    0.5502   27.3319   63.9982 O   0  0  0  0  0
    2.7711   26.1499   65.0377 O   0  0  0  0  0
    4.7443   26.0836   63.9325 O   0  0  0  0  0
    4.1146   28.9434   56.5717 O   0  0  0  0  0
    2.7357   30.6365   55.8759 O   0  0  0  0  0
  2  3  1  0  0  0
  2 13  1  0  0  0
  4 10  1  0  0  0
  5 12  1  0  0  0
  6  1  1  0  0  0
  7 13  1  0  0  0
  8  7  1  0  0  0
  8  9  1  0  0  0
  8 14  1  0  0  0
  9 19  1  0  0  0
 10 15  1  0  0  0
 11 15  1  0  0  0
 11  5  1  0  0  0
 11  3  1  0  0  0
 12 17  1  0  0  0
  1  2  2  0  0  0
  3  4  2  0  0  0
  5  6  2  0  0  0
  9 18  2  0  0  0
 12 16  2  0  0  0
M  CHG  2  12   1  17  -1
M  END
> <rmsd>
0.557916403

$$$$
PubChem-68980594


 19 20  0  0  0  0  0  0  0  0999 V2000
    3.0292   28.5822   60.9121 C   0  0  0  0  0
    1.7381   28.9574   60.9489 C   0  0  0  0  0
    0.9347   28.4829   62.0786 C   0  0  0  0  0
   -0.2620   28.8302   62.4546 C   0  0  0  0  0
    2.8750   27.2655   63.0014 C   0  0  0  0  0
    3.6199   27.7216   61.9748 C   0  0  0  0  0
    1.8945   30.2848   58.7794 C   0  0  0  0  0
    2.0800   29.1616   57.7704 C   0  0  0  0  0
    3.0335   29.5821   56.7050 C   0  0  0  0  0
   -0.4700   28.1406   63.6864 N   0  0  0  0  0
    1.4790   27.6076   63.0336 N   0  0  0  0  0
    3.4603   26.4402   64.0203 N   0  0  0  0  0
    1.1648   29.8060   59.9471 N   0  0  0  0  0
    0.8015   28.8109   57.1753 N   0  0  0  0  0
    0.6157   27.3958   64.0632 O   0  0  0  0  0
    4.6786   26.1669   63.9930 O   0  0  0  0  0
    2.6847   25.9257   65.0325 O   0  0  0  0  0
    4.1083   28.9482   56.5442 O   0  0  0  0  0
    2.7425   30.6669   55.8862 O   0  0  0  0  0
  2  3  1  0  0  0
  2 13  1  0  0  0
  4 10  1  0  0  0
  5 12  1  0  0  0
  6  1  1  0  0  0
  7 13  1  0  0  0
  8  7  1  0  0  0
  8  9  1  0  0  0
  8 14  1  0  0  0
  9 19  1  0  0  0
 10 15  1  0  0  0
 11 15  1  0  0  0
 11  5  1  0  0  0
 11  3  1  0  0  0
 12 17  1  0  0  0
  1  2  2  0  0  0
  3  4  2  0  0  0
  5  6  2  0  0  0
  9 18  2  0  0  0
 12 16  2  0  0  0
M  CHG  2  12   1  17  -1
M  END
> <rmsd>
0.580322206

$$$$
PubChem-68980594


 19 20  0  0  0  0  0  0  0  0999 V2000
    3.2293   28.5803   60.8723 C   0  0  0  0  0
    1.9252   28.8974   60.9600 C   0  0  0  0  0
    1.1861   28.3789   62.1140 C   0  0  0  0  0
   -0.0100   28.6698   62.5370 C   0  0  0  0  0
    3.2111   27.2421   62.9535 C   0  0  0  0  0
    3.8966   27.7387   61.9045 C   0  0  0  0  0
    1.9421   30.2470   58.7987 C   0  0  0  0  0
    2.1395   29.1409   57.7731 C   0  0  0  0  0
    3.0332   29.6116   56.6773 C   0  0  0  0  0
   -0.1415   27.9622   63.7691 N   0  0  0  0  0
    1.8036   27.5215   63.0402 N   0  0  0  0  0
    3.8698   26.4359   63.9424 N   0  0  0  0  0
    1.2782   29.7272   59.9879 N   0  0  0  0  0
    0.8564   28.7382   57.2221 N   0  0  0  0  0
    0.9893   27.2636   64.0988 O   0  0  0  0  0
    5.0971   26.2172   63.8679 O   0  0  0  0  0
    3.1558   25.8797   64.9777 O   0  0  0  0  0
    4.1283   29.0274   56.4712 O   0  0  0  0  0
    2.6644   30.6886   55.8799 O   0  0  0  0  0
  2  3  1  0  0  0
  2 13  1  0  0  0
  4 10  1  0  0  0
  5 12  1  0  0  0
  6  1  1  0  0  0
  7 13  1  0  0  0
  8  7  1  0  0  0
  8  9  1  0  0  0
  8 14  1  0  0  0
  9 19  1  0  0  0
 10 15  1  0  0  0
 11 15  1  0  0  0
 11  5  1  0  0  0
 11  3  1  0  0  0
 12 17  1  0  0  0
  1  2  2  0  0  0
  3  4  2  0  0  0
  5  6  2  0  0  0
  9 18  2  0  0  0
 12 16  2  0  0  0
M  CHG  2  12   1  17  -1
M  END
> <rmsd>
0.534029663

$$$$
PubChem-122621824


 15 14  0  0  0  0  0  0  0  0999 V2000
    1.9983   27.8040   60.9980 C   0  0  0  0  0
    1.3954   27.7046   59.6108 C   0  0  0  0  0
    2.1181   28.6396   58.6565 C   0  0  0  0  0
    1.7192   28.3287   57.2171 C   0  0  0  0  0
    1.2627   26.8689   61.9356 C   0  0  0  0  0
    0.4029   28.7259   56.9688 O   0  0  0  0  0
    2.4681   28.7004   54.6653 O   0  0  0  0  0
    4.2387   28.7240   56.3591 O   0  0  0  0  0
    2.6749   30.7937   56.1888 O   0  0  0  0  0
    1.8245   29.9689   58.9739 O   0  0  0  0  0
    3.3979   26.5470   63.5365 O   0  0  0  0  0
    1.1909   26.0790   64.4962 O   0  0  0  0  0
    1.8604   28.5614   64.1213 O   0  0  0  0  0
    2.8211   29.1247   56.0627 S   0  0  0  0  0
    1.9586   26.9777   63.5692 S   0  0  0  0  0
  1  2  1  0  0  0
  1  5  1  0  0  0
  2  3  1  0  0  0
  3  4  1  0  0  0
  3 10  1  0  0  0
  4  6  1  0  0  0
  4 14  1  0  0  0
  5 15  1  0  0  0
 14  9  1  0  0  0
 15 13  1  0  0  0
 14  7  2  0  0  0
 14  8  2  0  0  0
 15 11  2  0  0  0
 15 12  2  0  0  0
M  END
> <rmsd>
0.747808754

$$$$
PubChem-127046228 CHEMBL3800694


 31 33  0  0  0  0  0  0  0  0999 V2000
    4.7540   28.6433   56.4844 O   0  0  0  0  0
    2.5897   30.3766   55.9135 O   0  0  0  0  0
    0.6493   29.3135   57.5084 O   0  0  0  0  0
    0.8029   29.3471   60.2318 O   0  0  0  0  0
    3.9481   28.4102   58.6564 O   0  0  0  0  0
    1.9865   26.9898   61.2871 O   0  0  0  0  0
    0.9926   26.5025   63.6556 O   0  0  0  0  0
    3.5974   26.4158   63.4705 O   0  0  0  0  0
    2.2035   28.8005   63.3760 O   0  0  0  0  0
    3.5987   28.7027   57.3238 C   0  0  0  0  0
    2.9148   30.0751   57.2378 C   0  0  0  0  0
    1.6563   30.0770   58.1102 C   0  0  0  0  0
    1.9816   29.5215   59.5017 C   0  0  0  0  0
    2.7526   28.1944   59.3671 C   0  0  0  0  0
    3.1003   27.6242   60.7332 C   0  0  0  0  0
    5.9172   29.4089   56.6648 C   0  0  0  0  0
    6.0436   30.3126   57.7315 C   0  0  0  0  0
    7.2101   31.0631   57.8907 C   0  0  0  0  0
    8.2752   30.9266   56.9875 C   0  0  0  0  0
    8.1454   30.0220   55.9222 C   0  0  0  0  0
    6.9794   29.2688   55.7595 C   0  0  0  0  0
    9.5144   31.7227   57.1551 C   0  0  0  0  0
    9.6442   32.6283   58.2217 C   0  0  0  0  0
   10.8127   33.3790   58.3797 C   0  0  0  0  0
   11.8651   33.2329   57.4728 C   0  0  0  0  0
   11.7492   32.3361   56.4080 C   0  0  0  0  0
   10.5807   31.5855   56.2501 C   0  0  0  0  0
   13.0651   34.0038   57.6350 C   0  0  0  0  0
    2.1644   27.1597   62.9639 P   0  0  0  0  0
    6.8694   28.1532   54.4101 Cl  0  0  0  0  0
   14.0326   34.6252   57.7658 N   0  0  0  0  0
 10  1  1  0  0  0
 10 11  1  0  0  0
 10  5  1  0  0  0
 11  2  1  0  0  0
 11 12  1  0  0  0
 12  3  1  0  0  0
 12 13  1  0  0  0
 13  4  1  0  0  0
 13 14  1  0  0  0
 14  5  1  0  0  0
 14 15  1  0  0  0
 15  6  1  0  0  0
 16  1  1  0  0  0
 17 18  1  0  0  0
 19 20  1  0  0  0
 19 22  1  0  0  0
 21 30  1  0  0  0
 21 16  1  0  0  0
 23 24  1  0  0  0
 25 26  1  0  0  0
 25 28  1  0  0  0
 27 22  1  0  0  0
 29  6  1  0  0  0
 29  8  1  0  0  0
 29  9  1  0  0  0
 16 17  2  0  0  0
 18 19  2  0  0  0
 20 21  2  0  0  0
 22 23  2  0  0  0
 24 25  2  0  0  0
 26 27  2  0  0  0
 29  7  2  0  0  0
 28 31  3  0  0  0
M  END
> <rmsd>
0.834104061

$$$$
PubChem-134343697


 19 21  0  0  0  0  0  0  0  0999 V2000
    0.8636   25.3722   61.0166 C   0  0  0  0  0
    0.8718   26.4328   59.8171 C   0  0  0  0  0
    1.3651   27.7184   60.2086 C   0  0  0  0  0
    1.6585   27.5580   61.5153 C   0  0  0  0  0
    1.2513   26.1572   61.5863 C   0  0  0  0  0
    1.3090   25.4772   62.5940 C   0  0  0  0  0
    1.2021   28.9897   58.0919 C   0  0  0  0  0
    1.4498   30.2765   57.3868 C   0  0  0  0  0
    1.9836   26.7627   63.6740 S   0  0  0  0  0
    3.1488   30.3737   56.8620 S   0  0  0  0  0
    1.0401   27.0605   64.8047 O   0  0  0  0  0
    3.3323   26.3634   64.2026 O   0  0  0  0  0
    2.1297   28.1255   62.6524 O   0  0  0  0  0
    0.8153   25.5461   60.6303 O   0  0  0  0  0
    1.5221   28.8825   59.4499 O   0  0  0  0  0
    0.7365   28.0122   57.4473 O   0  0  0  0  0
    3.4460   29.2614   55.8963 O   0  0  0  0  0
    3.3838   31.6949   56.1868 O   0  0  0  0  0
    4.1624   30.2428   58.1954 O   0  0  0  0  0
  2  3  1  0  0  0
  2 14  1  0  0  0
  3 15  1  0  0  0
  4  5  1  0  0  0
  4 13  1  0  0  0
  5 14  1  0  0  0
  6  1  1  0  0  0
  7 15  1  0  0  0
  8  7  1  0  0  0
  8 10  1  0  0  0
  9  6  1  0  0  0
  9 13  1  0  0  0
 10 19  1  0  0  0
  1  2  2  0  0  0
  3  4  2  0  0  0
  5  6  2  0  0  0
  7 16  2  0  0  0
  9 11  2  0  0  0
  9 12  2  0  0  0
 10 17  2  0  0  0
 10 18  2  0  0  0
M  END
> <rmsd>
0.829325914

$$$$
PubChem-134343697


 19 21  0  0  0  0  0  0  0  0999 V2000
    0.8642   25.3721   61.0164 C   0  0  0  0  0
    0.8723   26.4326   59.8168 C   0  0  0  0  0
    1.3653   27.7184   60.2084 C   0  0  0  0  0
    1.6586   27.5579   61.5153 C   0  0  0  0  0
    1.2517   26.1571   61.5861 C   0  0  0  0  0
    1.3094   25.4770   62.5936 C   0  0  0  0  0
    1.2022   28.9898   58.0919 C   0  0  0  0  0
    1.4498   30.2766   57.3868 C   0  0  0  0  0
    1.9837   26.7627   63.6738 S   0  0  0  0  0
    3.1487   30.3740   56.8619 S   0  0  0  0  0
    3.3323   26.3636   64.2026 O   0  0  0  0  0
    1.0399   27.0602   64.8045 O   0  0  0  0  0
    2.1296   28.1254   62.6524 O   0  0  0  0  0
    0.8159   25.5460   60.6300 O   0  0  0  0  0
    1.5221   28.8825   59.4497 O   0  0  0  0  0
    0.7366   28.0123   57.4472 O   0  0  0  0  0
    3.4460   29.2616   55.8963 O   0  0  0  0  0
    3.3836   31.6951   56.1867 O   0  0  0  0  0
    4.1624   30.2432   58.1953 O   0  0  0  0  0
  2  3  1  0  0  0
  2 14  1  0  0  0
  3 15  1  0  0  0
  4  5  1  0  0  0
  4 13  1  0  0  0
  5 14  1  0  0  0
  6  1  1  0  0  0
  7 15  1  0  0  0
  8  7  1  0  0  0
  8 10  1  0  0  0
  9  6  1  0  0  0
  9 13  1  0  0  0
 10 19  1  0  0  0
  1  2  2  0  0  0
  3  4  2  0  0  0
  5  6  2  0  0  0
  7 16  2  0  0  0
  9 11  2  0  0  0
  9 12  2  0  0  0
 10 17  2  0  0  0
 10 18  2  0  0  0
M  END
> <rmsd>
0.829236329

$$$$
PubChem-10875801


 23 25  0  0  0  0  0  0  0  0999 V2000
    4.5425   30.1223   62.3955 C   0  0  0  0  0
    3.8807   31.0755   61.4551 C   0  0  0  0  0
    2.9486   30.1534   60.6945 C   0  0  0  0  0
    4.4543   28.7910   61.6728 C   0  0  0  0  0
    2.9234   27.5827   63.2776 C   0  0  0  0  0
    2.9700   26.4389   63.9981 C   0  0  0  0  0
    1.8910   26.0781   64.7921 C   0  0  0  0  0
    0.7836   28.0649   64.0712 C   0  0  0  0  0
    4.7834   26.6241   62.9285 C   0  0  0  0  0
    2.5808   30.6819   59.3150 C   0  0  0  0  0
    3.5380   28.8803   60.6058 O   0  0  0  0  0
    1.6114   29.8607   58.7356 O   0  0  0  0  0
    1.1796   28.6550   56.4560 O   0  0  0  0  0
    3.6708   28.7653   57.2354 O   0  0  0  0  0
    2.3288   30.9968   56.3091 O   0  0  0  0  0
    4.8519   31.6176   60.6074 O   0  0  0  0  0
    4.0643   27.7251   62.5905 N   0  0  0  0  0
    0.8076   26.9096   64.8118 N   0  0  0  0  0
    1.8518   28.4125   63.2910 N   0  0  0  0  0
    1.9031   24.8819   65.5633 N   0  0  0  0  0
    4.1394   25.8005   63.8016 N   0  0  0  0  0
    6.5300   26.2458   62.2531 Br  0  0  0  0  0
    2.1713   29.5467   57.1667 P   0  0  0  0  0
  1  2  1  0  0  0
  2  3  1  0  0  0
  2 16  1  0  0  0
  3 11  1  0  0  0
  3 10  1  0  0  0
  4 11  1  0  0  0
  4 17  1  0  0  0
  4  1  1  0  0  0
  5  6  1  0  0  0
  6 21  1  0  0  0
  7 18  1  0  0  0
  7 20  1  0  0  0
  8 19  1  0  0  0
  9 22  1  0  0  0
  9 17  1  0  0  0
 10 12  1  0  0  0
 17  5  1  0  0  0
 23 12  1  0  0  0
 23 14  1  0  0  0
 23 15  1  0  0  0
  5 19  2  0  0  0
  6  7  2  0  0  0
  8 18  2  0  0  0
  9 21  2  0  0  0
 23 13  2  0  0  0
M  END
> <rmsd>
0.683419943

$$$$
PubChem-154141044


 20 21  0  0  0  0  0  0  0  0999 V2000
    0.4250   27.5661   59.6878 C   0  0  0  0  0
    1.1171   28.6854   60.4442 C   0  0  0  0  0
    0.3932   28.9516   61.7565 C   0  0  0  0  0
   -0.2539   27.0297   63.2468 C   0  0  0  0  0
    1.6063   26.5198   64.1368 C   0  0  0  0  0
    2.6693   25.9948   64.8574 C   0  0  0  0  0
    4.0843   27.6052   63.8087 C   0  0  0  0  0
    1.8120   27.5506   63.2899 C   0  0  0  0  0
    2.4597   30.1707   59.5032 C   0  0  0  0  0
    2.6493   30.9865   58.2370 C   0  0  0  0  0
    0.6536   27.8852   62.7132 N   0  0  0  0  0
    0.3083   26.1620   64.1365 N   0  0  0  0  0
    3.9015   26.5560   64.6749 N   0  0  0  0  0
    3.0294   28.1160   63.1031 N   0  0  0  0  0
    2.4913   24.9092   65.7603 N   0  0  0  0  0
    1.1114   29.8435   59.6659 O   0  0  0  0  0
    2.7535   30.7551   55.5284 O   0  0  0  0  0
    3.5790   28.6547   56.8491 O   0  0  0  0  0
    0.9029   29.3151   56.6838 O   0  0  0  0  0
    2.4751   29.9331   56.7656 P   0  0  0  0  0
  1  2  1  0  0  0
  2  3  1  0  0  0
  2 16  1  0  0  0
  3 11  1  0  0  0
  5 12  1  0  0  0
  6 13  1  0  0  0
  6 15  1  0  0  0
  7 14  1  0  0  0
  8 11  1  0  0  0
  8  5  1  0  0  0
  9 16  1  0  0  0
  9 10  1  0  0  0
 10 20  1  0  0  0
 11  4  1  0  0  0
 20 18  1  0  0  0
 20 19  1  0  0  0
  4 12  2  0  0  0
  5  6  2  0  0  0
  7 13  2  0  0  0
  8 14  2  0  0  0
 20 17  2  0  0  0
M  END
> <rmsd>
0.6902017

$$$$
PubChem-137029599


 31 33  0  0  0  0  0  0  0  0999 V2000
   -0.6481   26.3166   59.2760 C   0  0  0  0  0
   -0.0514   27.6889   58.9874 C   0  0  0  0  0
    1.3806   27.8590   59.5217 C   0  0  0  0  0
    2.3006   26.7548   58.9818 C   0  0  0  0  0
    1.3150   27.7252   61.0492 C   0  0  0  0  0
    2.5912   28.1683   61.7616 C   0  0  0  0  0
    3.5830   27.0188   61.8527 C   0  0  0  0  0
    3.9434   26.9340   63.3043 C   0  0  0  0  0
    3.3334   28.2057   63.8706 C   0  0  0  0  0
    3.7624   28.6785   66.1974 C   0  0  0  0  0
    3.4098   28.6121   67.5352 C   0  0  0  0  0
    4.0324   29.0857   68.6635 C   0  0  0  0  0
    3.1736   28.6988   69.6983 C   0  0  0  0  0
    2.2670   27.9938   67.9083 C   0  0  0  0  0
    1.7602   27.4834   65.6819 C   0  0  0  0  0
    1.9475   31.1516   57.1563 C   0  0  0  0  0
    2.8583   31.9997   58.0277 C   0  0  0  0  0
    0.4843   31.5054   57.4121 C   0  0  0  0  0
    0.1507   32.9302   56.9953 C   0  0  0  0  0
    2.2685   28.6148   63.0548 O   0  0  0  0  0
    0.9790   26.9681   64.8375 O   0  0  0  0  0
    3.3584   25.7894   63.8493 O   0  0  0  0  0
    4.7210   27.3304   61.1089 O   0  0  0  0  0
    1.8570   29.1659   59.2268 O   0  0  0  0  0
    3.6503   29.0382   57.2992 O   0  0  0  0  0
    2.2634   31.3599   55.8125 O   0  0  0  0  0
    1.2124   28.4614   56.5588 O   0  0  0  0  0
    2.9318   28.1009   65.2775 N   0  0  0  0  0
    2.0878   28.0279   69.2347 N   0  0  0  0  0
    1.4310   27.4284   67.0072 N   0  0  0  0  0
    2.2051   29.3988   57.5607 P   0  0  0  0  0
  1  2  1  0  0  0
  2  3  1  0  0  0
  3  4  1  0  0  0
  3  5  1  0  0  0
  3 24  1  0  0  0
  6  5  1  0  0  0
  6  7  1  0  0  0
  6 20  1  0  0  0
  7  8  1  0  0  0
  7 23  1  0  0  0
  8  9  1  0  0  0
  8 22  1  0  0  0
  9 20  1  0  0  0
  9 28  1  0  0  0
 11 12  1  0  0  0
 13 29  1  0  0  0
 14 11  1  0  0  0
 15 30  1  0  0  0
 15 28  1  0  0  0
 16 17  1  0  0  0
 16 18  1  0  0  0
 16 26  1  0  0  0
 18 19  1  0  0  0
 28 10  1  0  0  0
 29 14  1  0  0  0
 31 24  1  0  0  0
 31 16  1  0  0  0
 31 27  1  0  0  0
 10 11  2  0  0  0
 12 13  2  0  0  0
 14 30  2  0  0  0
 15 21  2  0  0  0
 31 25  2  0  0  0
M  END
> <rmsd>
0.75713408

$$$$
PubChem-89575751


 27 31  0  0  0  0  0  0  0  0999 V2000
    0.9928   25.9921   62.2314 C   0  0  0  0  0
    0.8632   28.9575   63.2903 C   0  0  0  0  0
    0.8175   30.0019   62.1872 C   0  0  0  0  0
    0.8576   29.3425   60.8191 C   0  0  0  0  0
   -0.5034   28.7678   60.4755 C   0  0  0  0  0
   -0.3320   27.9344   59.2236 C   0  0  0  0  0
    0.3610   28.7166   58.1016 C   0  0  0  0  0
    1.4550   29.6841   58.5935 C   0  0  0  0  0
    2.6647   28.8041   58.5783 C   0  0  0  0  0
    2.3804   28.0449   57.2970 C   0  0  0  0  0
    2.7340   28.9441   56.1018 C   0  0  0  0  0
    2.0240   30.2805   56.1319 C   0  0  0  0  0
    1.6775   30.7954   57.5508 C   0  0  0  0  0
    4.1782   30.5494   55.5631 C   0  0  0  0  0
    5.1160   31.3486   56.4772 C   0  0  0  0  0
    5.3781   32.7487   55.9244 C   0  0  0  0  0
    5.9761   32.6564   54.5251 C   0  0  0  0  0
    5.0252   31.9055   53.6001 C   0  0  0  0  0
    4.7609   30.5021   54.1441 C   0  0  0  0  0
    1.8611   26.7200   63.6041 S   0  0  0  0  0
    3.1884   26.0320   63.7511 O   0  0  0  0  0
    1.0684   26.5250   64.8672 O   0  0  0  0  0
    2.1281   28.3630   63.3306 O   0  0  0  0  0
    1.2123   30.2989   59.8507 O   0  0  0  0  0
    0.9905   27.7764   57.2523 O   0  0  0  0  0
    2.9069   31.1734   55.5311 O   0  0  0  0  0
    4.0940   29.2313   56.0587 O   0  0  0  0  0
  1 20  1  0  0  0
  2 23  1  0  0  0
  2  3  1  0  0  0
  4  3  1  0  0  0
  4  5  1  0  0  0
  4 24  1  0  0  0
  5  6  1  0  0  0
  7  6  1  0  0  0
  7  8  1  0  0  0
  7 25  1  0  0  0
  8 24  1  0  0  0
  8  9  1  0  0  0
 10  9  1  0  0  0
 10 25  1  0  0  0
 10 11  1  0  0  0
 11 12  1  0  0  0
 11 27  1  0  0  0
 12 13  1  0  0  0
 12 26  1  0  0  0
 13  8  1  0  0  0
 14 26  1  0  0  0
 14 27  1  0  0  0
 14 15  1  0  0  0
 15 16  1  0  0  0
 16 17  1  0  0  0
 17 18  1  0  0  0
 18 19  1  0  0  0
 19 14  1  0  0  0
 20 23  1  0  0  0
 20 21  2  0  0  0
 20 22  2  0  0  0
M  END
> <rmsd>
0.646867037

$$$$
PubChem-141048520


 31 32  0  0  0  0  0  0  0  0999 V2000
    8.8841   29.3982   59.5659 C   0  0  0  0  0
    7.6675   28.8472   60.2327 C   0  0  0  0  0
    6.5483   29.6582   60.5341 C   0  0  0  0  0
    5.4388   29.0845   61.2102 C   0  0  0  0  0
    5.4790   27.7288   61.5644 C   0  0  0  0  0
    6.5854   26.9401   61.2573 C   0  0  0  0  0
    7.6747   27.4988   60.5937 C   0  0  0  0  0
    3.6215   30.7189   60.5480 C   0  0  0  0  0
    3.0817   29.9083   59.3822 C   0  0  0  0  0
    2.7341   30.8478   58.2420 C   0  0  0  0  0
    3.7700   29.9053   62.9043 C   0  0  0  0  0
    3.0256   28.6328   63.2711 C   0  0  0  0  0
    2.8781   28.5562   64.7790 C   0  0  0  0  0
    6.5734   31.1037   60.2107 C   0  0  0  0  0
    6.6598   32.0286   61.2607 C   0  0  0  0  0
    6.6770   33.4000   60.9970 C   0  0  0  0  0
    6.6055   33.8589   59.6803 C   0  0  0  0  0
    6.5151   32.9469   58.6262 C   0  0  0  0  0
    6.4993   31.5720   58.8804 C   0  0  0  0  0
    6.3737   30.6373   57.7247 C   0  0  0  0  0
    4.2597   29.8504   61.5316 N   0  0  0  0  0
    2.4913   29.9419   56.7262 S   0  0  0  0  0
    2.4434   26.9032   65.2816 S   0  0  0  0  0
    3.6918   29.0820   56.4481 O   0  0  0  0  0
    1.2700   29.0740   56.8408 O   0  0  0  0  0
    2.2825   31.0286   55.4630 O   0  0  0  0  0
    1.9437   29.2075   59.7822 O   0  0  0  0  0
    1.0732   26.5579   64.7703 O   0  0  0  0  0
    2.4483   26.8248   66.7817 O   0  0  0  0  0
    3.5625   25.8129   64.6642 O   0  0  0  0  0
    1.7647   28.6378   62.6739 O   0  0  0  0  0
  1  2  1  0  0  0
  3  4  1  0  0  0
  3 14  1  0  0  0
  4 21  1  0  0  0
  5  6  1  0  0  0
  7  2  1  0  0  0
  8 21  1  0  0  0
  8  9  1  0  0  0
  9 10  1  0  0  0
  9 27  1  0  0  0
 10 22  1  0  0  0
 11 21  1  0  0  0
 11 12  1  0  0  0
 12 13  1  0  0  0
 12 31  1  0  0  0
 13 23  1  0  0  0
 15 16  1  0  0  0
 17 18  1  0  0  0
 19 14  1  0  0  0
 20 19  1  0  0  0
 22 26  1  0  0  0
 23 30  1  0  0  0
  2  3  2  0  0  0
  4  5  2  0  0  0
  6  7  2  0  0  0
 14 15  2  0  0  0
 16 17  2  0  0  0
 18 19  2  0  0  0
 22 24  2  0  0  0
 22 25  2  0  0  0
 23 28  2  0  0  0
 23 29  2  0  0  0
M  END
> <rmsd>
0.787825882

$$$$
PubChem-6437356 CHEMBL224678


 16 16  0  0  0  0  0  0  0  0999 V2000
    3.0918   30.8092   56.0233 O   0  0  0  0  0
    4.1797   28.7929   56.0643 O   0  0  0  0  0
    2.1906   28.5941   64.2390 O   0  0  0  0  0
    1.0782   26.3063   64.8476 O   0  0  0  0  0
    3.5324   26.4426   63.5917 O   0  0  0  0  0
    3.1022   29.6044   56.3916 C   0  0  0  0  0
    1.9731   29.0450   57.1899 C   0  0  0  0  0
    1.9230   29.7046   58.5742 C   0  0  0  0  0
    1.0718   27.8235   59.7948 C   0  0  0  0  0
    1.7587   27.8111   61.1184 C   0  0  0  0  0
    1.1974   27.1934   62.1528 C   0  0  0  0  0
   -0.4600   29.2521   58.6409 C   0  0  0  0  0
   -0.3430   28.6010   57.2583 C   0  0  0  0  0
    0.8056   29.1993   59.3860 N   0  0  0  0  0
    0.7096   29.2560   56.4907 N   0  0  0  0  0
    2.0165   27.1770   63.7430 P   0  0  0  0  0
  6  2  1  0  0  0
  7  6  1  0  0  0
  7  8  1  0  0  0
  7 15  1  0  0  0
  8 14  1  0  0  0
  9 14  1  0  0  0
  9 10  1  0  0  0
 12 14  1  0  0  0
 12 13  1  0  0  0
 13 15  1  0  0  0
 16 11  1  0  0  0
 16  4  1  0  0  0
 16  5  1  0  0  0
  6  1  2  0  0  0
 10 11  2  0  0  0
 16  3  2  0  0  0
M  END
> <rmsd>
0.768080711

$$$$
PubChem-153429723


 16 15  0  0  0  0  0  0  0  0999 V2000
    5.2268   29.1994   59.2623 C   0  0  0  0  0
    4.6081   29.7143   57.9784 C   0  0  0  0  0
    5.7037   29.9598   56.9607 C   0  0  0  0  0
    1.6505   29.0756   59.7203 C   0  0  0  0  0
    1.9913   29.4830   61.1377 C   0  0  0  0  0
    1.9270   28.2683   62.0380 C   0  0  0  0  0
    3.7104   28.7664   57.4795 O   0  0  0  0  0
    2.3047   30.6907   56.3704 O   0  0  0  0  0
    1.0418   28.4577   56.8361 O   0  0  0  0  0
    1.7566   30.1842   58.8795 O   0  0  0  0  0
    2.2548   28.6386   63.3432 O   0  0  0  0  0
    1.0246   26.5060   64.2672 O   0  0  0  0  0
    3.4942   26.1562   63.4660 O   0  0  0  0  0
    2.8935   27.5219   65.7826 O   0  0  0  0  0
    2.2109   29.5588   57.3693 P   0  0  0  0  0
    2.3747   27.1853   64.2089 P   0  0  0  0  0
  1  2  1  0  0  0
  2  3  1  0  0  0
  2  7  1  0  0  0
  4 10  1  0  0  0
  4  5  1  0  0  0
  5  6  1  0  0  0
  6 11  1  0  0  0
 15  7  1  0  0  0
 15  9  1  0  0  0
 15 10  1  0  0  0
 16 11  1  0  0  0
 16 13  1  0  0  0
 16 14  1  0  0  0
 15  8  2  0  0  0
 16 12  2  0  0  0
M  END
> <rmsd>
0.769761682

$$$$
PubChem-121371238


 31 33  0  0  0  0  0  0  0  0999 V2000
    4.8314   31.2174   57.6541 C   0  0  0  0  0
    3.4644   31.7212   58.0937 C   0  0  0  0  0
    2.3176   31.1547   57.2561 C   0  0  0  0  0
    1.0624   31.9487   57.6202 C   0  0  0  0  0
   -0.1062   31.6833   56.6820 C   0  0  0  0  0
    1.1755   27.9830   59.6718 C   0  0  0  0  0
    1.9473   26.7730   59.1425 C   0  0  0  0  0
   -0.2698   27.9034   59.2036 C   0  0  0  0  0
    1.1298   27.8908   61.1976 C   0  0  0  0  0
    2.4635   28.2187   61.8684 C   0  0  0  0  0
    3.3437   26.9864   61.9454 C   0  0  0  0  0
    3.2671   26.6028   63.3947 C   0  0  0  0  0
    2.9177   27.9029   64.0722 C   0  0  0  0  0
    2.4303   27.9675   66.5379 C   0  0  0  0  0
    0.4926   27.1011   66.6343 C   0  0  0  0  0
    0.8824   27.1219   65.3423 C   0  0  0  0  0
   -1.1199   26.1439   64.6582 C   0  0  0  0  0
   -0.7496   26.5846   66.9756 C   0  0  0  0  0
    2.6009   31.3128   55.8955 O   0  0  0  0  0
    0.9332   28.8415   56.8050 O   0  0  0  0  0
    3.4855   28.5295   57.2493 O   0  0  0  0  0
    1.7565   29.2326   59.3195 O   0  0  0  0  0
    2.2207   28.7211   63.1639 O   0  0  0  0  0
    4.4832   26.1099   63.8745 O   0  0  0  0  0
    4.6466   27.3420   61.5844 O   0  0  0  0  0
    2.0754   29.3806   57.6380 P   0  0  0  0  0
    2.1037   27.6625   65.2571 N   0  0  0  0  0
    1.4485   27.6291   67.4219 N   0  0  0  0  0
    0.1062   26.6554   64.3340 N   0  0  0  0  0
   -1.5380   26.1110   65.9652 N   0  0  0  0  0
   -1.3036   26.5353   68.6378 Cl  0  0  0  0  0
  1  2  1  0  0  0
  2  3  1  0  0  0
  3  4  1  0  0  0
  3 19  1  0  0  0
  3 26  1  0  0  0
  4  5  1  0  0  0
  6 22  1  0  0  0
  6  7  1  0  0  0
  6  8  1  0  0  0
  6  9  1  0  0  0
 10  9  1  0  0  0
 10 11  1  0  0  0
 10 23  1  0  0  0
 11 12  1  0  0  0
 11 25  1  0  0  0
 12 13  1  0  0  0
 12 24  1  0  0  0
 13 23  1  0  0  0
 13 27  1  0  0  0
 15 28  1  0  0  0
 16 29  1  0  0  0
 16 27  1  0  0  0
 17 30  1  0  0  0
 18 31  1  0  0  0
 18 15  1  0  0  0
 26 21  1  0  0  0
 26 22  1  0  0  0
 27 14  1  0  0  0
 14 28  2  0  0  0
 15 16  2  0  0  0
 17 29  2  0  0  0
 18 30  2  0  0  0
 26 20  2  0  0  0
M  END
> <rmsd>
0.601291001

$$$$
PubChem-58841792


 25 24  0  0  0  0  0  0  0  0999 V2000
    8.2832   20.3928   55.4227 C   0  0  0  0  0
    8.0795   21.2160   56.2792 C   0  0  0  0  0
    7.8410   22.1803   57.2826 C   0  0  0  0  0
    7.6373   23.0035   58.1390 C   0  0  0  0  0
    7.3987   23.9677   59.1421 C   0  0  0  0  0
    7.1947   24.7909   59.9983 C   0  0  0  0  0
    6.9549   25.7554   61.0006 C   0  0  0  0  0
    6.7479   26.5796   61.8553 C   0  0  0  0  0
    6.1573   28.8380   62.4597 C   0  0  0  0  0
    4.7710   29.1704   62.9869 C   0  0  0  0  0
    3.7075   28.3491   62.2669 C   0  0  0  0  0
    3.4727   28.8450   60.8411 C   0  0  0  0  0
    2.8857   30.2498   60.8143 C   0  0  0  0  0
    2.6606   30.6929   59.3810 C   0  0  0  0  0
    6.5085   27.5135   62.8229 O   0  0  0  0  0
    1.6122   29.9629   58.8144 O   0  0  0  0  0
    2.2574   30.8336   56.4355 O   0  0  0  0  0
    1.0921   28.6878   56.6133 O   0  0  0  0  0
    3.5901   28.7696   57.3035 O   0  0  0  0  0
    2.5140   28.3640   62.9952 O   0  0  0  0  0
    1.0031   26.6974   64.2940 O   0  0  0  0  0
    1.9090   25.9691   62.1391 O   0  0  0  0  0
    3.5201   26.0834   64.1834 O   0  0  0  0  0
    2.1177   29.5796   57.2532 S   0  0  0  0  0
    2.1997   26.7544   63.3877 S   0  0  0  0  0
  2  3  1  0  0  0
  4  5  1  0  0  0
  6  7  1  0  0  0
  8 15  1  0  0  0
  9 15  1  0  0  0
  9 10  1  0  0  0
 11 10  1  0  0  0
 11 12  1  0  0  0
 11 20  1  0  0  0
 12 13  1  0  0  0
 13 14  1  0  0  0
 14 16  1  0  0  0
 24 16  1  0  0  0
 24 19  1  0  0  0
 25 20  1  0  0  0
 25 23  1  0  0  0
 24 17  2  0  0  0
 24 18  2  0  0  0
 25 21  2  0  0  0
 25 22  2  0  0  0
  1  2  3  0  0  0
  3  4  3  0  0  0
  5  6  3  0  0  0
  7  8  3  0  0  0
M  END
> <rmsd>
0.737392664

$$$$
PubChem-153321784


 19 18  0  0  0  0  0  0  0  0999 V2000
    2.4010   27.1361   57.5878 C   0  0  0  0  0
    2.0289   28.6102   57.6217 C   0  0  0  0  0
    1.9654   29.0888   59.0576 C   0  0  0  0  0
    3.1493   28.9417   59.9658 C   0  0  0  0  0
    2.8304   27.9792   61.0927 C   0  0  0  0  0
    4.0385   27.8446   61.9996 C   0  0  0  0  0
    3.7379   26.9088   63.1314 C   0  0  0  0  0
    2.7672   27.2711   64.2400 C   0  0  0  0  0
    3.4355   27.0675   65.5910 C   0  0  0  0  0
    1.5411   26.4007   64.1537 C   0  0  0  0  0
    3.0506   29.4055   56.8505 C   0  0  0  0  0
    0.9531   29.6227   59.4887 O   0  0  0  0  0
    4.3076   25.8278   63.1538 O   0  0  0  0  0
    1.6378   25.1512   64.2895 O   0  0  0  0  0
    0.2902   26.9613   63.9188 O   0  0  0  0  0
    4.2722   29.3375   57.1538 O   0  0  0  0  0
    2.6603   30.2253   55.7970 O   0  0  0  0  0
    2.3816   28.6725   64.1403 N   0  0  0  0  0
    0.7232   28.7566   56.9915 N   0  0  0  0  0
  2  1  1  0  0  0
  2  3  1  0  0  0
  2 11  1  0  0  0
  2 19  1  0  0  0
  4  3  1  0  0  0
  4  5  1  0  0  0
  5  6  1  0  0  0
  6  7  1  0  0  0
  8  7  1  0  0  0
  8  9  1  0  0  0
  8 10  1  0  0  0
  8 18  1  0  0  0
 10 15  1  0  0  0
 11 17  1  0  0  0
  3 12  2  0  0  0
  7 13  2  0  0  0
 10 14  2  0  0  0
 11 16  2  0  0  0
M  END
> <rmsd>
0.735017002

$$$$
PubChem-130080


 33 38  0  0  0  0  0  0  0  0999 V2000
    4.8485   27.6596   63.3439 C   0  0  0  0  0
    2.7946   26.6725   63.0942 C   0  0  0  0  0
    1.7133   25.9235   63.8263 C   0  0  0  0  0
    2.1226   25.2003   65.1322 C   0  0  0  0  0
    2.7844   23.8561   64.7785 C   0  0  0  0  0
    1.8076   22.9772   63.9754 C   0  0  0  0  0
    0.5456   22.7218   64.8137 C   0  0  0  0  0
   -0.1333   24.0563   65.1553 C   0  0  0  0  0
    0.8525   24.9233   65.9622 C   0  0  0  0  0
   -0.5200   24.7746   63.8493 C   0  0  0  0  0
    0.7371   25.0506   63.0016 C   0  0  0  0  0
    1.4087   23.7011   62.6782 C   0  0  0  0  0
    2.8240   26.5144   61.5852 C   0  0  0  0  0
    3.4642   25.4103   61.0054 C   0  0  0  0  0
    3.5054   25.2701   59.6170 C   0  0  0  0  0
    2.9191   26.2385   58.7994 C   0  0  0  0  0
    2.2897   27.3641   59.3584 C   0  0  0  0  0
    2.2602   27.4934   60.7542 C   0  0  0  0  0
    1.7081   28.4560   58.4728 C   0  0  0  0  0
    2.8429   29.3441   57.9204 C   0  0  0  0  0
    2.2601   30.3669   56.9413 C   0  0  0  0  0
    1.2965   29.7176   55.9280 C   0  0  0  0  0
    0.9168   27.8731   57.2806 C   0  0  0  0  0
    1.9223   29.1312   54.6565 C   0  0  0  0  0
    4.0652   26.5543   63.7060 O   0  0  0  0  0
    1.1539   27.1723   64.1181 O   0  0  0  0  0
    2.1305   27.8443   63.4952 O   0  0  0  0  0
    0.3076   28.8990   56.5192 O   0  0  0  0  0
   -0.0768   26.9986   57.7333 O   0  0  0  0  0
    2.5207   27.8935   54.8996 O   0  0  0  0  0
    3.2682   31.0934   56.2990 O   0  0  0  0  0
    3.8222   28.5797   57.2773 O   0  0  0  0  0
    0.8417   29.2587   59.2290 O   0  0  0  0  0
  1 25  1  0  0  0
  2 25  1  0  0  0
  2  3  1  0  0  0
  2 13  1  0  0  0
  2 27  1  0  0  0
  3  4  1  0  0  0
  3 26  1  0  0  0
  4  5  1  0  0  0
  6  5  1  0  0  0
  6  7  1  0  0  0
  8  7  1  0  0  0
  8  9  1  0  0  0
  8 10  1  0  0  0
  9  4  1  0  0  0
 11 10  1  0  0  0
 11 12  1  0  0  0
 11  3  1  0  0  0
 12  6  1  0  0  0
 14 15  1  0  0  0
 16 17  1  0  0  0
 18 13  1  0  0  0
 19 17  1  0  0  0
 19 20  1  0  0  0
 19 33  1  0  0  0
 20 21  1  0  0  0
 20 32  1  0  0  0
 21 22  1  0  0  0
 21 31  1  0  0  0
 22 28  1  0  0  0
 22 24  1  0  0  0
 23 28  1  0  0  0
 23 29  1  0  0  0
 23 19  1  0  0  0
 24 30  1  0  0  0
 26 27  1  0  0  0
 13 14  2  0  0  0
 15 16  2  0  0  0
 17 18  2  0  0  0
M  END
> <rmsd>
0.705706775

$$$$
PubChem-163055045


 29 32  0  0  0  0  0  0  0  0999 V2000
    1.2850   26.7085   65.3020 O   0  0  0  0  0
    3.6266   28.3947   59.6434 O   0  0  0  0  0
    4.1347   28.9693   57.4188 O   0  0  0  0  0
    2.9367   31.0406   55.6792 O   0  0  0  0  0
    0.5583   28.6333   56.9006 O   0  0  0  0  0
    1.1139   29.5674   59.4221 O   0  0  0  0  0
    2.6520   31.1016   58.4991 O   0  0  0  0  0
    0.0869   27.3040   64.9800 N   0  0  0  0  0
    2.1319   27.5244   62.8973 N   0  0  0  0  0
    4.6257   26.3629   63.3420 N   0  0  0  0  0
   -0.1223   27.9071   63.8488 C   0  0  0  0  0
    0.8760   28.0361   62.7728 C   0  0  0  0  0
    3.0747   27.6257   61.9175 C   0  0  0  0  0
    4.4091   27.0245   62.1690 C   0  0  0  0  0
    5.8230   25.7915   63.6420 C   0  0  0  0  0
    6.8821   25.8713   62.7375 C   0  0  0  0  0
    6.6942   26.5425   61.5299 C   0  0  0  0  0
    5.4578   27.1214   61.2423 C   0  0  0  0  0
    2.7309   28.2802   60.7139 C   0  0  0  0  0
    3.1229   28.6840   58.3454 C   0  0  0  0  0
    3.5442   28.7399   56.1587 C   0  0  0  0  0
    4.6055   28.7531   55.0741 C   0  0  0  0  0
    2.4134   29.7552   55.8578 C   0  0  0  0  0
    2.4473   31.4583   54.4407 C   0  0  0  0  0
    1.3753   29.7629   57.0019 C   0  0  0  0  0
    2.0690   29.8121   58.3739 C   0  0  0  0  0
    1.4469   28.8432   60.5793 C   0  0  0  0  0
    0.5178   28.7116   61.6074 C   0  0  0  0  0
    3.1819   31.2858   59.7855 C   0  0  0  0  0
  1  8  1  0  0  0
 11 12  1  0  0  0
 13  9  1  0  0  0
 13 14  1  0  0  0
 15 10  1  0  0  0
 16 17  1  0  0  0
 18 14  1  0  0  0
 19  2  1  0  0  0
 20  2  1  0  0  0
 20  3  1  0  0  0
 21  3  1  0  0  0
 21 22  1  0  0  0
 21 23  1  0  0  0
 23  4  1  0  0  0
 23 25  1  0  0  0
 24  4  1  0  0  0
 25  5  1  0  0  0
 25 26  1  0  0  0
 26  6  1  0  0  0
 26  7  1  0  0  0
 26 20  1  0  0  0
 27  6  1  0  0  0
 27 19  1  0  0  0
 28 12  1  0  0  0
 29  7  1  0  0  0
 11  8  2  0  0  0
 12  9  2  0  0  0
 13 19  2  0  0  0
 14 10  2  0  0  0
 15 16  2  0  0  0
 17 18  2  0  0  0
 27 28  2  0  0  0
M  END
> <rmsd>
0.6889835

$$$$
PubChem-163055045


 29 32  0  0  0  0  0  0  0  0999 V2000
    0.8168   26.9628   65.2364 O   0  0  0  0  0
    3.4706   28.3970   59.6465 O   0  0  0  0  0
    4.0972   28.8973   57.4341 O   0  0  0  0  0
    3.0938   31.0023   55.6140 O   0  0  0  0  0
    0.5295   28.7651   56.7814 O   0  0  0  0  0
    1.0435   29.7129   59.3066 O   0  0  0  0  0
    2.7055   31.1346   58.4190 O   0  0  0  0  0
   -0.3300   27.6223   64.8574 N   0  0  0  0  0
    1.8027   27.6803   62.8534 N   0  0  0  0  0
    4.2032   26.3810   63.4155 N   0  0  0  0  0
   -0.4590   28.2149   63.7088 C   0  0  0  0  0
    0.5857   28.2633   62.6708 C   0  0  0  0  0
    2.7868   27.7063   61.9099 C   0  0  0  0  0
    4.0718   27.0316   62.2238 C   0  0  0  0  0
    5.3515   25.7451   63.7720 C   0  0  0  0  0
    6.4473   25.7443   62.9087 C   0  0  0  0  0
    6.3465   26.4020   61.6834 C   0  0  0  0  0
    5.1592   27.0479   61.3376 C   0  0  0  0  0
    2.5293   28.3568   60.6827 C   0  0  0  0  0
    3.0353   28.6907   58.3249 C   0  0  0  0  0
    3.5426   28.6792   56.1559 C   0  0  0  0  0
    4.6435   28.6083   55.1138 C   0  0  0  0  0
    2.4874   29.7541   55.7936 C   0  0  0  0  0
    2.6782   31.4245   54.3502 C   0  0  0  0  0
    1.4087   29.8457   56.8956 C   0  0  0  0  0
    2.0511   29.8800   58.2928 C   0  0  0  0  0
    1.2877   28.9925   60.4881 C   0  0  0  0  0
    0.3137   28.9365   61.4809 C   0  0  0  0  0
    3.1960   31.3117   59.7219 C   0  0  0  0  0
  1  8  1  0  0  0
 11 12  1  0  0  0
 13  9  1  0  0  0
 13 14  1  0  0  0
 15 10  1  0  0  0
 16 17  1  0  0  0
 18 14  1  0  0  0
 19  2  1  0  0  0
 20  2  1  0  0  0
 20  3  1  0  0  0
 21  3  1  0  0  0
 21 22  1  0  0  0
 21 23  1  0  0  0
 23  4  1  0  0  0
 23 25  1  0  0  0
 24  4  1  0  0  0
 25  5  1  0  0  0
 25 26  1  0  0  0
 26  6  1  0  0  0
 26  7  1  0  0  0
 26 20  1  0  0  0
 27  6  1  0  0  0
 27 19  1  0  0  0
 28 12  1  0  0  0
 29  7  1  0  0  0
 11  8  2  0  0  0
 12  9  2  0  0  0
 13 19  2  0  0  0
 14 10  2  0  0  0
 15 16  2  0  0  0
 17 18  2  0  0  0
 27 28  2  0  0  0
M  END
> <rmsd>
0.678385019

$$$$
PubChem-164942902


 31 34  0  0  0  0  0  0  0  0999 V2000
    0.4812   29.4217   54.2925 C   0  0  0  0  0
    1.1635   28.3583   55.1616 C   0  0  0  0  0
    0.8743   30.8353   54.7505 C   0  0  0  0  0
    0.5968   31.8416   53.6828 C   0  0  0  0  0
    1.2776   31.8097   52.4588 C   0  0  0  0  0
    0.0902   33.7232   51.7067 C   0  0  0  0  0
   -0.6083   33.7915   52.9144 C   0  0  0  0  0
   -0.3498   32.8436   53.9060 C   0  0  0  0  0
    1.8101   30.6051   59.2972 C   0  0  0  0  0
    2.0147   28.8537   60.8802 C   0  0  0  0  0
    1.4124   31.0175   61.6198 C   0  0  0  0  0
    1.4696   31.4933   60.3122 C   0  0  0  0  0
    1.5893   29.2985   63.3010 C   0  0  0  0  0
    0.2778   28.6138   63.6335 C   0  0  0  0  0
    0.6746   27.7716   64.8046 C   0  0  0  0  0
    2.1631   27.5123   64.5783 C   0  0  0  0  0
    2.4530   26.1170   64.0337 C   0  0  0  0  0
    1.1867   28.7345   56.5139 O   0  0  0  0  0
    3.6938   29.4837   56.7985 O   0  0  0  0  0
    2.2189   30.9031   55.1516 O   0  0  0  0  0
    2.2631   27.6403   61.1126 O   0  0  0  0  0
    2.6711   28.4787   63.6826 O   0  0  0  0  0
    3.8298   25.8962   64.0044 O   0  0  0  0  0
   -0.0867   26.6002   64.8910 O   0  0  0  0  0
    2.2949   30.0232   56.6049 P   0  0  0  0  0
    1.0113   32.7426   51.5053 N   0  0  0  0  0
    1.8735   31.0701   57.9483 N   0  0  0  0  0
    2.0740   29.3066   59.6006 N   0  0  0  0  0
    1.6855   29.7138   61.8976 N   0  0  0  0  0
   -0.1812   27.8334   62.5830 F   0  0  0  0  0
   -0.6800   29.5405   63.9990 F   0  0  0  0  0
  1  2  1  0  0  0
  2 18  1  0  0  0
  3 20  1  0  0  0
  3  4  1  0  0  0
  3  1  1  0  0  0
  5 26  1  0  0  0
  6  7  1  0  0  0
  8  4  1  0  0  0
 10 28  1  0  0  0
 10 29  1  0  0  0
 12  9  1  0  0  0
 13 29  1  0  0  0
 13 14  1  0  0  0
 13 22  1  0  0  0
 14 15  1  0  0  0
 14 30  1  0  0  0
 14 31  1  0  0  0
 15 16  1  0  0  0
 15 24  1  0  0  0
 16 22  1  0  0  0
 16 17  1  0  0  0
 17 23  1  0  0  0
 25 18  1  0  0  0
 25 20  1  0  0  0
 25 27  1  0  0  0
 27  9  1  0  0  0
 29 11  1  0  0  0
  4  5  2  0  0  0
  6 26  2  0  0  0
  7  8  2  0  0  0
  9 28  2  0  0  0
 10 21  2  0  0  0
 11 12  2  0  0  0
 25 19  2  0  0  0
M  END
> <rmsd>
0.752900541

$$$$
PubChem-88598315


 28 30  0  0  0  0  0  0  0  0999 V2000
    4.1366   25.6503   68.0606 C   0  0  0  0  0
    3.1221   26.4943   67.6011 C   0  0  0  0  0
    2.9277   26.6689   66.2281 C   0  0  0  0  0
    3.7477   25.9995   65.3044 C   0  0  0  0  0
    4.7609   25.1566   65.7737 C   0  0  0  0  0
    4.9560   24.9817   67.1472 C   0  0  0  0  0
    2.4089   26.9493   61.4106 C   0  0  0  0  0
    3.7823   27.3192   60.8842 C   0  0  0  0  0
    3.8093   27.2273   59.3676 C   0  0  0  0  0
    3.3816   28.5399   58.7254 C   0  0  0  0  0
    1.8754   28.6731   58.7142 C   0  0  0  0  0
    1.5712   29.2925   57.3867 C   0  0  0  0  0
    2.8984   29.3055   56.6574 C   0  0  0  0  0
    3.3798   30.7324   56.4420 C   0  0  0  0  0
    0.3143   25.3815   63.7168 C   0  0  0  0  0
   -0.9610   25.1184   64.2285 C   0  0  0  0  0
   -1.4987   23.8296   64.1602 C   0  0  0  0  0
   -0.7616   22.7943   63.5786 C   0  0  0  0  0
    0.5130   23.0475   63.0651 C   0  0  0  0  0
    1.0498   24.3360   63.1337 C   0  0  0  0  0
    3.5810   26.1457   63.9234 O   0  0  0  0  0
    2.6304   28.5889   63.5696 O   0  0  0  0  0
    3.8507   28.5862   57.4019 O   0  0  0  0  0
    2.5646   31.3755   55.5102 O   0  0  0  0  0
    0.6683   28.4852   56.6959 O   0  0  0  0  0
    1.4718   29.5342   59.7344 O   0  0  0  0  0
    0.8194   26.6829   63.8072 O   0  0  0  0  0
    2.3691   27.1428   63.2141 P   0  0  0  0  0
  2  3  1  0  0  0
  4  5  1  0  0  0
  4 21  1  0  0  0
  6  1  1  0  0  0
  7  8  1  0  0  0
  8  9  1  0  0  0
 10  9  1  0  0  0
 10 11  1  0  0  0
 10 23  1  0  0  0
 11 12  1  0  0  0
 11 26  1  0  0  0
 12 13  1  0  0  0
 12 25  1  0  0  0
 13 23  1  0  0  0
 13 14  1  0  0  0
 14 24  1  0  0  0
 15 27  1  0  0  0
 16 17  1  0  0  0
 18 19  1  0  0  0
 20 15  1  0  0  0
 28 21  1  0  0  0
 28  7  1  0  0  0
 28 27  1  0  0  0
  1  2  2  0  0  0
  3  4  2  0  0  0
  5  6  2  0  0  0
 15 16  2  0  0  0
 17 18  2  0  0  0
 19 20  2  0  0  0
 28 22  2  0  0  0
M  END
> <rmsd>
0.597618103

$$$$
PubChem-14285122


 21 22  0  0  0  0  0  0  0  0999 V2000
    3.7386   27.6252   63.9472 C   0  0  0  0  0
    1.4338   27.7239   64.2869 C   0  0  0  0  0
    1.4009   26.4355   64.6880 C   0  0  0  0  0
    2.5736   25.6948   64.7305 C   0  0  0  0  0
   -0.5802   27.2006   64.7470 C   0  0  0  0  0
   -0.2371   29.5620   63.9319 C   0  0  0  0  0
   -0.7779   29.5600   62.5067 C   0  0  0  0  0
    0.3251   29.3021   61.4916 C   0  0  0  0  0
    1.2394   30.5106   61.3777 C   0  0  0  0  0
    2.3786   30.2142   60.4208 C   0  0  0  0  0
    2.9266   29.5331   58.3945 C   0  0  0  0  0
    2.5770   28.3471   63.9099 N   0  0  0  0  0
    3.7321   26.3140   64.3545 N   0  0  0  0  0
    2.5788   24.3341   65.1479 N   0  0  0  0  0
    0.1408   26.0682   64.9892 N   0  0  0  0  0
    0.1973   28.2278   64.3197 N   0  0  0  0  0
    1.8963   30.1382   59.1134 O   0  0  0  0  0
    1.2218   28.7015   56.4400 O   0  0  0  0  0
    3.7489   28.7606   55.7646 O   0  0  0  0  0
    2.2697   31.0713   56.0691 O   0  0  0  0  0
    2.4957   29.4928   56.6322 P   0  0  0  0  0
  1 13  1  0  0  0
  2 12  1  0  0  0
  3  4  1  0  0  0
  3 15  1  0  0  0
  4 14  1  0  0  0
  5 16  1  0  0  0
  6 16  1  0  0  0
  6  7  1  0  0  0
  7  8  1  0  0  0
  8  9  1  0  0  0
  9 10  1  0  0  0
 10 17  1  0  0  0
 11 17  1  0  0  0
 11 21  1  0  0  0
 16  2  1  0  0  0
 21 19  1  0  0  0
 21 20  1  0  0  0
  1 12  2  0  0  0
  2  3  2  0  0  0
  4 13  2  0  0  0
  5 15  2  0  0  0
 21 18  2  0  0  0
M  END
> <rmsd>
0.771589577

$$$$
PubChem-87771190


 17 17  0  0  0  0  0  0  0  0999 V2000
   -0.3190   28.5465   57.2474 C   0  0  0  0  0
   -0.4475   29.1829   58.6359 C   0  0  0  0  0
    1.9279   29.6734   58.5760 C   0  0  0  0  0
    1.9898   29.0272   57.1856 C   0  0  0  0  0
    3.1093   29.6105   56.3907 C   0  0  0  0  0
    1.1054   27.7681   59.7782 C   0  0  0  0  0
    1.7901   27.7542   61.1028 C   0  0  0  0  0
    1.2364   27.1182   62.1301 C   0  0  0  0  0
    0.8179   29.1432   59.3817 N   0  0  0  0  0
    0.7239   29.2251   56.4871 N   0  0  0  0  0
    3.1211   30.8373   56.1042 O   0  0  0  0  0
    4.1446   28.7923   55.9602 O   0  0  0  0  0
    3.4205   26.4641   63.5918 O   0  0  0  0  0
    2.2382   28.6922   64.2603 O   0  0  0  0  0
    1.1208   26.2463   64.8575 O   0  0  0  0  0
    2.0537   27.0990   63.7244 P   0  0  0  0  0
    1.0437   24.6263   64.2827 S   0  0  0  0  0
  1  2  1  0  0  0
  1 10  1  0  0  0
  2  9  1  0  0  0
  3  9  1  0  0  0
  3  4  1  0  0  0
  4 10  1  0  0  0
  4  5  1  0  0  0
  5 12  1  0  0  0
  6  9  1  0  0  0
  6  7  1  0  0  0
 15 17  1  0  0  0
 16  8  1  0  0  0
 16 14  1  0  0  0
 16 15  1  0  0  0
  5 11  2  0  0  0
  7  8  2  0  0  0
 16 13  2  0  0  0
M  END
> <rmsd>
0.81945616

$$$$
PubChem-57198550


 21 22  0  0  0  0  0  0  0  0999 V2000
    6.0680   29.6555   65.0309 C   0  0  0  0  0
    4.3949   28.2897   64.1575 C   0  0  0  0  0
    5.2471   27.2478   64.0525 C   0  0  0  0  0
    6.5686   27.3955   64.4481 C   0  0  0  0  0
    3.3431   26.6185   63.3472 C   0  0  0  0  0
    0.8115   28.2342   63.1533 C   0  0  0  0  0
    0.9191   27.8882   61.6765 C   0  0  0  0  0
    1.1792   29.1407   60.8627 C   0  0  0  0  0
    1.7561   29.9723   58.9041 C   0  0  0  0  0
    4.7667   29.5003   64.6382 N   0  0  0  0  0
    6.9553   28.6121   64.9352 N   0  0  0  0  0
    7.4977   26.3215   64.3530 N   0  0  0  0  0
    4.6168   26.1710   63.5433 N   0  0  0  0  0
    3.1927   27.9167   63.7196 N   0  0  0  0  0
    2.0575   28.7050   63.6659 O   0  0  0  0  0
    1.3145   28.8009   59.5180 O   0  0  0  0  0
    1.0093   29.0995   56.4356 O   0  0  0  0  0
    3.4439   28.4618   57.1524 O   0  0  0  0  0
    2.7610   31.0423   56.4485 O   0  0  0  0  0
    0.3834   27.1199   63.8757 O   0  0  0  0  0
    2.2139   29.6218   57.1844 P   0  0  0  0  0
  1 11  1  0  0  0
  2 10  1  0  0  0
  3  4  1  0  0  0
  3 13  1  0  0  0
  4 12  1  0  0  0
  5 14  1  0  0  0
  6 15  1  0  0  0
  6  7  1  0  0  0
  6 20  1  0  0  0
  7  8  1  0  0  0
  8 16  1  0  0  0
  9 16  1  0  0  0
  9 21  1  0  0  0
 14 15  1  0  0  0
 14  2  1  0  0  0
 21 18  1  0  0  0
 21 19  1  0  0  0
  1 10  2  0  0  0
  2  3  2  0  0  0
  4 11  2  0  0  0
  5 13  2  0  0  0
 21 17  2  0  0  0
M  END
> <rmsd>
0.792806625

$$$$
PubChem-16403047


 34 37  0  0  0  0  0  0  0  0999 V2000
    3.1429   26.3202   68.8633 C   0  0  0  0  0
    2.7372   27.1261   67.6408 C   0  0  0  0  0
    1.6625   28.1096   68.0636 C   0  0  0  0  0
    1.2725   28.9667   66.8790 C   0  0  0  0  0
    0.6527   28.1014   65.7724 C   0  0  0  0  0
    0.2540   28.9710   64.5737 C   0  0  0  0  0
    1.5270   29.4603   63.8763 C   0  0  0  0  0
    2.7542   27.6018   64.4138 C   0  0  0  0  0
    1.6180   26.9821   65.3062 C   0  0  0  0  0
    2.2128   26.2087   66.5253 C   0  0  0  0  0
    3.2907   25.1736   66.1374 C   0  0  0  0  0
    3.0139   24.4288   64.8261 C   0  0  0  0  0
    2.8405   25.3954   63.6386 C   0  0  0  0  0
    3.3829   24.7159   62.3990 C   0  0  0  0  0
    1.6803   31.6562   62.7749 C   0  0  0  0  0
    1.3652   32.5182   61.6007 C   0  0  0  0  0
    2.4257   32.3512   60.5179 C   0  0  0  0  0
    2.2358   31.1194   59.6839 C   0  0  0  0  0
    3.1293   29.6111   57.8545 C   0  0  0  0  0
    4.4984   29.2578   57.2726 C   0  0  0  0  0
    5.4801   28.9322   58.3838 C   0  0  0  0  0
    2.1340   29.8763   56.7667 C   0  0  0  0  0
   -0.6602   30.1196   64.9825 C   0  0  0  0  0
    2.2161   28.3570   63.3471 O   0  0  0  0  0
    3.5843   26.5890   63.8620 O   0  0  0  0  0
    1.4671   25.7006   63.4154 O   0  0  0  0  0
    0.8679   26.0163   64.5728 O   0  0  0  0  0
    1.1991   30.3476   62.8157 O   0  0  0  0  0
    2.4061   32.1070   63.7018 O   0  0  0  0  0
    1.2128   30.3930   59.8191 O   0  0  0  0  0
    4.3920   28.1503   56.4292 O   0  0  0  0  0
    2.3101   30.8227   55.9541 O   0  0  0  0  0
    1.0055   29.0754   56.6580 O   0  0  0  0  0
    3.2359   30.7792   58.7223 N   0  0  0  0  0
  2  1  1  0  0  0
  2  3  1  0  0  0
  3  4  1  0  0  0
  5  4  1  0  0  0
  5  6  1  0  0  0
  6  7  1  0  0  0
  6 23  1  0  0  0
  7 24  1  0  0  0
  7 28  1  0  0  0
  8 24  1  0  0  0
  8  9  1  0  0  0
  8 25  1  0  0  0
  9 10  1  0  0  0
  9  5  1  0  0  0
  9 27  1  0  0  0
 10 11  1  0  0  0
 10  2  1  0  0  0
 11 12  1  0  0  0
 12 13  1  0  0  0
 13 25  1  0  0  0
 13 26  1  0  0  0
 13 14  1  0  0  0
 15 28  1  0  0  0
 16 15  1  0  0  0
 16 17  1  0  0  0
 17 18  1  0  0  0
 18 34  1  0  0  0
 19 34  1  0  0  0
 19 20  1  0  0  0
 19 22  1  0  0  0
 20 21  1  0  0  0
 20 31  1  0  0  0
 22 33  1  0  0  0
 26 27  1  0  0  0
 15 29  2  0  0  0
 18 30  2  0  0  0
 22 32  2  0  0  0
M  END
> <rmsd>
0.687729061

$$$$
PubChem-164942896


 32 35  0  0  0  0  0  0  0  0999 V2000
    4.6235   31.1560   55.4541 C   0  0  0  0  0
    4.6339   30.4419   56.8058 C   0  0  0  0  0
    3.2598   31.8340   55.2826 C   0  0  0  0  0
    3.2710   32.7521   54.1048 C   0  0  0  0  0
    3.4476   32.2567   52.8044 C   0  0  0  0  0
    3.4480   33.1319   51.7146 C   0  0  0  0  0
    3.2701   34.5033   51.9191 C   0  0  0  0  0
    3.0911   34.9998   53.2137 C   0  0  0  0  0
    3.0906   34.1251   54.3046 C   0  0  0  0  0
    1.6976   30.5824   59.2939 C   0  0  0  0  0
    1.9585   28.8410   60.8795 C   0  0  0  0  0
    1.3004   30.9890   61.6177 C   0  0  0  0  0
    1.3384   31.4633   60.3087 C   0  0  0  0  0
    1.5329   29.2792   63.3014 C   0  0  0  0  0
    0.2430   28.5588   63.6421 C   0  0  0  0  0
    0.6691   27.7307   64.8130 C   0  0  0  0  0
    2.1630   27.5128   64.5797 C   0  0  0  0  0
    2.4891   26.1249   64.0366 C   0  0  0  0  0
    3.7396   29.3576   56.8311 O   0  0  0  0  0
    1.1802   28.8831   56.4772 O   0  0  0  0  0
    2.2170   30.8981   55.1526 O   0  0  0  0  0
    2.2417   27.6355   61.1133 O   0  0  0  0  0
    2.6392   28.4910   63.6793 O   0  0  0  0  0
    3.8715   25.9427   64.0007 O   0  0  0  0  0
   -0.0587   26.5387   64.9057 O   0  0  0  0  0
    2.1842   30.0060   56.5995 P   0  0  0  0  0
    3.6706   32.5102   50.0940 Cl  0  0  0  0  0
    1.7467   31.0471   57.9445 N   0  0  0  0  0
    1.9991   29.2925   59.5987 N   0  0  0  0  0
    1.6105   29.6939   61.8968 N   0  0  0  0  0
   -0.7386   29.4591   64.0105 F   0  0  0  0  0
   -0.1993   27.7635   62.5955 F   0  0  0  0  0
  1  2  1  0  0  0
  2 19  1  0  0  0
  3 21  1  0  0  0
  3  4  1  0  0  0
  3  1  1  0  0  0
  5  6  1  0  0  0
  6 27  1  0  0  0
  7  8  1  0  0  0
  9  4  1  0  0  0
 11 29  1  0  0  0
 11 30  1  0  0  0
 13 10  1  0  0  0
 14 30  1  0  0  0
 14 15  1  0  0  0
 14 23  1  0  0  0
 15 16  1  0  0  0
 15 31  1  0  0  0
 15 32  1  0  0  0
 16 17  1  0  0  0
 16 25  1  0  0  0
 17 23  1  0  0  0
 17 18  1  0  0  0
 18 24  1  0  0  0
 26 19  1  0  0  0
 26 21  1  0  0  0
 26 28  1  0  0  0
 28 10  1  0  0  0
 30 12  1  0  0  0
  4  5  2  0  0  0
  6  7  2  0  0  0
  8  9  2  0  0  0
 10 29  2  0  0  0
 11 22  2  0  0  0
 12 13  2  0  0  0
 26 20  2  0  0  0
M  END
> <rmsd>
0.734720647

$$$$
PubChem-87207661


 15 14  0  0  0  0  0  0  0  0999 V2000
    1.8577   27.1362   60.3371 C   0  0  0  0  0
    2.3940   26.1430   61.3530 C   0  0  0  0  0
    1.1494   28.0904   63.8706 C   0  0  0  0  0
    2.9554   27.5589   59.3780 C   0  0  0  0  0
    3.4056   30.1878   56.1739 C   0  0  0  0  0
    3.3082   26.9782   62.6377 S   0  0  0  0  0
    2.3356   28.7807   58.2432 S   0  0  0  0  0
    3.6144   26.0043   63.7403 O   0  0  0  0  0
    4.5974   27.5077   62.0762 O   0  0  0  0  0
    2.3908   28.2778   63.2624 O   0  0  0  0  0
    0.6462   26.9417   63.9897 O   0  0  0  0  0
    1.1938   28.2030   57.4547 O   0  0  0  0  0
    1.8599   29.9834   59.0092 O   0  0  0  0  0
    3.5913   29.2395   57.1799 O   0  0  0  0  0
    2.2923   30.7524   56.0051 O   0  0  0  0  0
  1  2  1  0  0  0
  1  4  1  0  0  0
  2  6  1  0  0  0
  3 10  1  0  0  0
  4  7  1  0  0  0
  5 14  1  0  0  0
  6 10  1  0  0  0
  7 14  1  0  0  0
  3 11  2  0  0  0
  5 15  2  0  0  0
  6  8  2  0  0  0
  6  9  2  0  0  0
  7 12  2  0  0  0
  7 13  2  0  0  0
M  END
> <rmsd>
0.65408659

$$$$
PubChem-140693355


 27 29  0  0  0  0  0  0  0  0999 V2000
    0.6539   34.2972   57.5368 C   0  0  0  0  0
    1.2059   31.9919   58.1923 C   0  0  0  0  0
    2.2478   30.9400   58.3918 C   0  0  0  0  0
    3.1490   30.4614   60.3624 C   0  0  0  0  0
    2.7556   31.0894   61.6805 C   0  0  0  0  0
    3.7693   30.5921   62.6901 C   0  0  0  0  0
    4.3668   29.3179   62.1127 C   0  0  0  0  0
    3.7950   29.1402   60.7169 C   0  0  0  0  0
    4.9431   27.3542   63.5704 C   0  0  0  0  0
    3.0299   26.5848   64.0789 C   0  0  0  0  0
    1.9281   25.8877   64.5535 C   0  0  0  0  0
    0.5353   27.4292   63.3801 C   0  0  0  0  0
    2.8540   27.6623   63.2853 C   0  0  0  0  0
    4.6900   29.3707   57.1575 C   0  0  0  0  0
    2.4925   29.7085   54.5253 C   0  0  0  0  0
    1.5960   33.2595   57.7608 O   0  0  0  0  0
   -0.0118   31.7234   58.3866 O   0  0  0  0  0
    2.0128   30.2419   59.5805 O   0  0  0  0  0
    0.9302   29.0617   56.9345 O   0  0  0  0  0
    3.5000   28.6413   57.1905 O   0  0  0  0  0
    2.4897   30.6587   55.5481 O   0  0  0  0  0
    4.0495   28.1661   62.9509 N   0  0  0  0  0
    4.3411   26.3586   64.2820 N   0  0  0  0  0
    0.6885   26.3311   64.1891 N   0  0  0  0  0
    1.6282   28.1091   62.9175 N   0  0  0  0  0
    2.0749   24.7469   65.3918 N   0  0  0  0  0
    2.2599   29.7823   56.9845 P   0  0  0  0  0
  1 16  1  0  0  0
  2 16  1  0  0  0
  3  2  1  0  0  0
  3 18  1  0  0  0
  3 27  1  0  0  0
  4 18  1  0  0  0
  4  5  1  0  0  0
  5  6  1  0  0  0
  6  7  1  0  0  0
  7  8  1  0  0  0
  7 22  1  0  0  0
  8  4  1  0  0  0
 10 23  1  0  0  0
 11 24  1  0  0  0
 11 26  1  0  0  0
 12 25  1  0  0  0
 13 22  1  0  0  0
 13 10  1  0  0  0
 14 20  1  0  0  0
 15 21  1  0  0  0
 22  9  1  0  0  0
 27 20  1  0  0  0
 27 21  1  0  0  0
  2 17  2  0  0  0
  9 23  2  0  0  0
 10 11  2  0  0  0
 12 24  2  0  0  0
 13 25  2  0  0  0
 27 19  2  0  0  0
M  END
> <rmsd>
0.676279604

$$$$
PubChem-140693355


 27 29  0  0  0  0  0  0  0  0999 V2000
    0.6443   34.3176   57.5640 C   0  0  0  0  0
    1.2187   32.0089   58.1873 C   0  0  0  0  0
    2.2720   30.9676   58.3829 C   0  0  0  0  0
    3.1678   30.4887   60.3560 C   0  0  0  0  0
    2.7590   31.1104   61.6725 C   0  0  0  0  0
    3.7697   30.6207   62.6884 C   0  0  0  0  0
    4.3806   29.3512   62.1145 C   0  0  0  0  0
    3.8242   29.1732   60.7126 C   0  0  0  0  0
    4.9533   27.3881   63.5743 C   0  0  0  0  0
    3.0395   26.6055   64.0603 C   0  0  0  0  0
    1.9370   25.9005   64.5212 C   0  0  0  0  0
    0.5474   27.4358   63.3359 C   0  0  0  0  0
    2.8655   27.6838   63.2672 C   0  0  0  0  0
    0.9226   28.0928   55.8619 C   0  0  0  0  0
    4.7288   29.3967   57.1792 C   0  0  0  0  0
    1.5971   33.2883   57.7812 O   0  0  0  0  0
    0.0024   31.7218   58.3637 O   0  0  0  0  0
    2.0391   30.2596   59.5660 O   0  0  0  0  0
    2.5239   30.5972   55.6918 O   0  0  0  0  0
    0.8003   29.0244   56.8940 O   0  0  0  0  0
    3.5352   28.6718   57.1827 O   0  0  0  0  0
    4.0614   28.1957   62.9469 N   0  0  0  0  0
    4.3498   26.3871   64.2772 N   0  0  0  0  0
    0.6986   26.3368   64.1442 N   0  0  0  0  0
    1.6410   28.1236   62.8868 N   0  0  0  0  0
    2.0818   24.7588   65.3585 N   0  0  0  0  0
    2.2982   29.8170   56.9701 P   0  0  0  0  0
  1 16  1  0  0  0
  2 16  1  0  0  0
  3  2  1  0  0  0
  3 18  1  0  0  0
  3 27  1  0  0  0
  4 18  1  0  0  0
  4  5  1  0  0  0
  5  6  1  0  0  0
  6  7  1  0  0  0
  7  8  1  0  0  0
  7 22  1  0  0  0
  8  4  1  0  0  0
 10 23  1  0  0  0
 11 24  1  0  0  0
 11 26  1  0  0  0
 12 25  1  0  0  0
 13 22  1  0  0  0
 13 10  1  0  0  0
 14 20  1  0  0  0
 15 21  1  0  0  0
 22  9  1  0  0  0
 27 20  1  0  0  0
 27 21  1  0  0  0
  2 17  2  0  0  0
  9 23  2  0  0  0
 10 11  2  0  0  0
 12 24  2  0  0  0
 13 25  2  0  0  0
 27 19  2  0  0  0
M  END
> <rmsd>
0.680544019

$$$$
PubChem-16760248


 30 34  0  0  0  0  0  0  0  0999 V2000
    3.3298   27.5347   56.8181 C   0  0  0  0  0
    2.7762   28.0009   58.1675 C   0  0  0  0  0
    1.8322   29.1959   58.0118 C   0  0  0  0  0
    0.8202   28.9725   59.0938 C   0  0  0  0  0
    1.1354   27.5749   59.6333 C   0  0  0  0  0
    2.7701   28.0664   61.5125 C   0  0  0  0  0
    1.7369   27.2574   63.1874 C   0  0  0  0  0
    0.9738   27.0755   62.0858 C   0  0  0  0  0
   -0.7448   26.1395   63.3505 C   0  0  0  0  0
    1.2611   26.8562   64.4373 C   0  0  0  0  0
    3.4181   27.0017   65.7965 C   0  0  0  0  0
    4.0523   27.5241   67.0195 C   0  0  0  0  0
    5.4444   27.4578   67.1817 C   0  0  0  0  0
    6.0454   27.9556   68.3416 C   0  0  0  0  0
    5.2592   28.5240   69.3475 C   0  0  0  0  0
    3.8721   28.5946   69.1937 C   0  0  0  0  0
    3.2710   28.0967   68.0338 C   0  0  0  0  0
    2.0860   26.9559   58.8005 O   0  0  0  0  0
    4.1274   26.4684   64.9002 O   0  0  0  0  0
    0.9380   29.9640   60.0714 O   0  0  0  0  0
    1.1747   29.1964   56.7677 O   0  0  0  0  0
    2.6793   30.9419   55.4969 O   0  0  0  0  0
    3.7839   28.6251   56.0614 O   0  0  0  0  0
    1.8475   28.8924   54.0961 O   0  0  0  0  0
    1.6030   27.5763   61.0195 N   0  0  0  0  0
    2.8787   27.8927   62.8595 N   0  0  0  0  0
   -0.2627   26.5245   62.1313 N   0  0  0  0  0
    0.0079   26.3131   64.4840 N   0  0  0  0  0
    1.9923   27.0516   65.6546 N   0  0  0  0  0
    2.3798   29.4634   55.5960 P   0  0  0  0  0
  1 23  1  0  0  0
  2  1  1  0  0  0
  2  3  1  0  0  0
  2 18  1  0  0  0
  3  4  1  0  0  0
  3 21  1  0  0  0
  4  5  1  0  0  0
  4 20  1  0  0  0
  5 18  1  0  0  0
  5 25  1  0  0  0
  7 26  1  0  0  0
  8 27  1  0  0  0
  8 25  1  0  0  0
  9 28  1  0  0  0
 10 29  1  0  0  0
 10  7  1  0  0  0
 11 12  1  0  0  0
 13 14  1  0  0  0
 15 16  1  0  0  0
 17 12  1  0  0  0
 25  6  1  0  0  0
 29 11  1  0  0  0
 30 21  1  0  0  0
 30 23  1  0  0  0
 30 24  1  0  0  0
  6 26  2  0  0  0
  7  8  2  0  0  0
  9 27  2  0  0  0
 10 28  2  0  0  0
 11 19  2  0  0  0
 12 13  2  0  0  0
 14 15  2  0  0  0
 16 17  2  0  0  0
 30 22  2  0  0  0
M  CHG  1  24  -1
M  END
> <rmsd>
0.738582253

$$$$
PubChem-164745927


 22 24  0  0  0  0  0  0  0  0999 V2000
    1.9332   25.6045   65.1954 C   0  0  0  0  0
    3.2586   25.4010   64.4561 C   0  0  0  0  0
    1.5952   26.9051   61.6234 C   0  0  0  0  0
    3.7663   27.2907   60.4073 C   0  0  0  0  0
    4.2531   28.2262   59.5230 C   0  0  0  0  0
    2.2543   28.7631   60.0618 C   0  0  0  0  0
    3.3663   30.2874   58.3930 C   0  0  0  0  0
    2.7667   27.5745   55.7800 C   0  0  0  0  0
    1.4948   27.7751   56.6092 C   0  0  0  0  0
    3.5656   26.5399   63.7053 O   0  0  0  0  0
    1.9811   28.6274   63.7248 O   0  0  0  0  0
    1.0236   26.2751   64.3711 O   0  0  0  0  0
    1.1533   29.3760   60.1038 O   0  0  0  0  0
    2.8650   30.9424   55.7775 O   0  0  0  0  0
    3.7415   28.5017   56.1633 O   0  0  0  0  0
    1.2574   29.1405   56.7963 O   0  0  0  0  0
    5.5065   28.2181   58.9231 O   0  0  0  0  0
    4.4354   26.1589   60.8570 O   0  0  0  0  0
    2.0406   27.1598   63.3678 P   0  0  0  0  0
    2.8112   29.7774   56.7390 P   0  0  0  0  0
    2.5104   27.6338   60.7562 N   0  0  0  0  0
    3.3046   29.1586   59.3104 N   0  0  0  0  0
  1  2  1  0  0  0
  1 12  1  0  0  0
  2 10  1  0  0  0
  3 21  1  0  0  0
  4 18  1  0  0  0
  5 22  1  0  0  0
  5 17  1  0  0  0
  6 21  1  0  0  0
  7 22  1  0  0  0
  7 20  1  0  0  0
  8 15  1  0  0  0
  8  9  1  0  0  0
  9 16  1  0  0  0
 19 10  1  0  0  0
 19 12  1  0  0  0
 19  3  1  0  0  0
 20 15  1  0  0  0
 20 16  1  0  0  0
 21  4  1  0  0  0
 22  6  1  0  0  0
  4  5  2  0  0  0
  6 13  2  0  0  0
 19 11  2  0  0  0
 20 14  2  0  0  0
M  END
> <rmsd>
0.631851196

$$$$
PubChem-154659074


 34 38  0  0  0  0  0  0  0  0999 V2000
   13.1605   29.2714   66.5421 C   0  0  0  0  0
   12.5307   29.4104   65.1581 C   0  0  0  0  0
   11.0663   29.8314   65.2763 C   0  0  0  0  0
   10.3011   28.8639   66.1768 C   0  0  0  0  0
   10.9559   28.5968   67.5310 C   0  0  0  0  0
   12.4223   28.2068   67.3495 C   0  0  0  0  0
    8.8567   29.1819   66.2813 C   0  0  0  0  0
    9.8177   27.6414   65.4837 C   0  0  0  0  0
    7.1456   27.3730   65.2148 C   0  0  0  0  0
    5.9380   25.5894   64.1818 C   0  0  0  0  0
    4.7733   27.3732   65.1291 C   0  0  0  0  0
    5.9271   27.9752   65.5023 C   0  0  0  0  0
    5.5637   29.1558   66.1264 C   0  0  0  0  0
    2.3262   27.8699   65.2440 C   0  0  0  0  0
    1.8812   28.5917   63.9767 C   0  0  0  0  0
    0.3866   28.5130   63.7416 C   0  0  0  0  0
    0.3313   28.7622   62.2617 C   0  0  0  0  0
    1.6551   28.2195   61.7594 C   0  0  0  0  0
    2.2508   29.1435   60.7115 C   0  0  0  0  0
    1.8526   30.2168   58.8246 C   0  0  0  0  0
    8.3863   27.9676   65.5925 N   0  0  0  0  0
    7.1212   26.1777   64.5530 N   0  0  0  0  0
    4.7441   26.1902   64.4698 N   0  0  0  0  0
    4.2040   29.2157   66.1018 N   0  0  0  0  0
    3.7345   28.1275   65.5014 N   0  0  0  0  0
    2.5464   28.0861   62.8434 O   0  0  0  0  0
    1.5131   29.0627   59.5297 O   0  0  0  0  0
    2.5529   31.0471   56.3308 O   0  0  0  0  0
    3.4932   28.7059   57.0283 O   0  0  0  0  0
    0.8287   29.0797   56.4037 O   0  0  0  0  0
   -0.7365   28.0926   61.6587 O   0  0  0  0  0
   -0.0899   27.2290   64.0392 O   0  0  0  0  0
    2.1979   29.7921   57.0952 P   0  0  0  0  0
    5.9576   24.0604   63.3313 Cl  0  0  0  0  0
  1  2  1  0  0  0
  2  3  1  0  0  0
  3  4  1  0  0  0
  4  5  1  0  0  0
  4  7  1  0  0  0
  5  6  1  0  0  0
  6  1  1  0  0  0
  7 21  1  0  0  0
  8 21  1  0  0  0
  8  4  1  0  0  0
 10 22  1  0  0  0
 10 34  1  0  0  0
 11 23  1  0  0  0
 12 13  1  0  0  0
 12  9  1  0  0  0
 14 25  1  0  0  0
 15 14  1  0  0  0
 15 16  1  0  0  0
 15 26  1  0  0  0
 16 17  1  0  0  0
 16 32  1  0  0  0
 17 18  1  0  0  0
 17 31  1  0  0  0
 18 26  1  0  0  0
 18 19  1  0  0  0
 19 27  1  0  0  0
 20 27  1  0  0  0
 20 33  1  0  0  0
 21  9  1  0  0  0
 25 24  1  0  0  0
 25 11  1  0  0  0
 33 29  1  0  0  0
 33 30  1  0  0  0
  9 22  2  0  0  0
 10 23  2  0  0  0
 11 12  2  0  0  0
 13 24  2  0  0  0
 33 28  2  0  0  0
M  END
> <rmsd>
0.781490207

$$$$
PubChem-141388081


 28 30  0  0  0  0  0  0  0  0999 V2000
    2.9745   23.3356   65.5078 C   0  0  0  0  0
    2.5855   24.6118   66.2337 C   0  0  0  0  0
    1.3656   24.3270   67.0835 C   0  0  0  0  0
    3.7168   25.0493   67.1478 C   0  0  0  0  0
    3.1505   26.1680   64.3501 C   0  0  0  0  0
    2.7036   27.2593   63.4285 C   0  0  0  0  0
    1.4099   26.8942   62.6762 C   0  0  0  0  0
    0.1702   28.3853   64.1220 C   0  0  0  0  0
    1.4154   28.5905   64.9721 C   0  0  0  0  0
    1.2929   27.5738   61.3432 C   0  0  0  0  0
    1.2274   28.9677   61.2255 C   0  0  0  0  0
    1.0851   28.8086   58.8540 C   0  0  0  0  0
    1.1557   27.4118   58.9351 C   0  0  0  0  0
    1.2589   26.7981   60.1837 C   0  0  0  0  0
    0.8130   30.8803   57.4573 C   0  0  0  0  0
    2.2614   25.6447   65.3010 O   0  0  0  0  0
    4.3346   25.7445   64.2685 O   0  0  0  0  0
    2.4133   30.9550   55.7401 O   0  0  0  0  0
    2.7060   28.7455   54.3412 O   0  0  0  0  0
    3.7597   28.8429   56.5674 O   0  0  0  0  0
    1.1480   28.7028   56.4425 O   0  0  0  0  0
    0.2035   27.0623   63.4991 N   0  0  0  0  0
    2.6054   28.5490   64.1234 N   0  0  0  0  0
    1.1273   29.5467   59.9995 N   0  0  0  0  0
    0.9931   29.4518   57.5704 N   0  0  0  0  0
    1.5070   31.5596   56.5915 N   0  0  0  0  0
   -0.0830   31.5658   58.3269 N   0  0  0  0  0
    2.5724   29.2605   55.7460 S   0  0  0  0  0
  1  2  1  0  0  0
  2  3  1  0  0  0
  2  4  1  0  0  0
  2 16  1  0  0  0
  5 16  1  0  0  0
  6  5  1  0  0  0
  6  7  1  0  0  0
  6 23  1  0  0  0
  7 22  1  0  0  0
  7 10  1  0  0  0
  8 22  1  0  0  0
  8  9  1  0  0  0
  9 23  1  0  0  0
 11 24  1  0  0  0
 12 13  1  0  0  0
 12 25  1  0  0  0
 14 10  1  0  0  0
 15 27  1  0  0  0
 25 15  1  0  0  0
 25 21  1  0  0  0
 26 18  1  0  0  0
 28 18  1  0  0  0
 28 21  1  0  0  0
  5 17  2  0  0  0
 10 11  2  0  0  0
 12 24  2  0  0  0
 13 14  2  0  0  0
 15 26  2  0  0  0
 28 19  2  0  0  0
 28 20  2  0  0  0
M  END
> <rmsd>
0.68059063

$$$$
PubChem-123634287


 31 33  0  0  0  0  0  0  0  0999 V2000
    4.4687   28.1985   60.7686 C   0  0  0  0  0
    3.4657   29.1124   60.0765 C   0  0  0  0  0
    2.0988   28.4546   59.7778 C   0  0  0  0  0
    2.2546   27.0252   59.2043 C   0  0  0  0  0
    0.9192   26.4008   58.8253 C   0  0  0  0  0
    1.2876   28.4089   61.0878 C   0  0  0  0  0
    1.8640   27.5121   62.1810 C   0  0  0  0  0
    1.3586   27.9535   63.5289 C   0  0  0  0  0
    1.3164   26.6816   64.3083 C   0  0  0  0  0
    1.2730   25.6062   63.2428 C   0  0  0  0  0
    2.0231   23.2623   63.7521 C   0  0  0  0  0
    4.1370   23.4661   63.8078 C   0  0  0  0  0
    3.6025   24.6773   63.5446 C   0  0  0  0  0
    5.7165   25.6552   63.4416 C   0  0  0  0  0
    5.5146   23.3199   63.8960 C   0  0  0  0  0
    2.1586   31.2024   56.9118 C   0  0  0  0  0
    0.7766   31.8212   56.9618 C   0  0  0  0  0
    3.0598   31.9129   57.9003 C   0  0  0  0  0
    1.4846   26.1748   61.9714 O   0  0  0  0  0
    0.1515   26.6357   65.0729 O   0  0  0  0  0
    2.2687   28.8352   64.1111 O   0  0  0  0  0
    1.3536   29.2870   58.8998 O   0  0  0  0  0
    1.1664   28.7413   56.3329 O   0  0  0  0  0
    2.6816   31.3425   55.6270 O   0  0  0  0  0
    3.6103   28.7680   57.2417 O   0  0  0  0  0
    2.2685   24.5738   63.5068 N   0  0  0  0  0
    3.1659   22.5439   63.9458 N   0  0  0  0  0
    4.3579   25.7866   63.3570 N   0  0  0  0  0
    6.2831   24.4340   63.7082 N   0  0  0  0  0
    6.2583   21.7695   64.2344 Cl  0  0  0  0  0
    2.0568   29.4381   57.3367 P   0  0  0  0  0
  1  2  1  0  0  0
  2  3  1  0  0  0
  3  4  1  0  0  0
  3  6  1  0  0  0
  3 22  1  0  0  0
  4  5  1  0  0  0
  6  7  1  0  0  0
  7  8  1  0  0  0
  7 19  1  0  0  0
  8  9  1  0  0  0
  8 21  1  0  0  0
  9 10  1  0  0  0
  9 20  1  0  0  0
 10 19  1  0  0  0
 10 26  1  0  0  0
 12 27  1  0  0  0
 13 28  1  0  0  0
 13 26  1  0  0  0
 14 29  1  0  0  0
 15 30  1  0  0  0
 15 12  1  0  0  0
 16 17  1  0  0  0
 16 18  1  0  0  0
 16 24  1  0  0  0
 26 11  1  0  0  0
 31 22  1  0  0  0
 31 16  1  0  0  0
 31 25  1  0  0  0
 11 27  2  0  0  0
 12 13  2  0  0  0
 14 28  2  0  0  0
 15 29  2  0  0  0
 31 23  2  0  0  0
M  END
> <rmsd>
0.781611741

$$$$
PubChem-53949188


 19 18  0  0  0  0  0  0  0  0999 V2000
   -0.8787   28.8338   64.6324 C   0  0  0  0  0
    0.2082   28.0197   63.9636 C   0  0  0  0  0
    1.5591   28.6483   64.2556 C   0  0  0  0  0
    3.3103   29.0611   62.7604 C   0  0  0  0  0
    3.6531   27.6980   60.8265 C   0  0  0  0  0
    3.9130   30.0462   60.7184 C   0  0  0  0  0
    1.7066   29.1379   60.9753 C   0  0  0  0  0
    1.3895   28.9421   59.4901 C   0  0  0  0  0
    1.2692   31.5872   56.1796 C   0  0  0  0  0
    3.5277   27.4137   64.4101 C   0  0  0  0  0
    2.5924   28.0001   63.4642 N   0  0  0  0  0
    3.1301   28.9722   61.3093 N   0  0  0  0  0
    1.7030   30.0980   58.7717 O   0  0  0  0  0
    3.4613   28.7545   57.3585 O   0  0  0  0  0
    0.9792   28.5913   56.5498 O   0  0  0  0  0
    2.4800   30.8958   56.2349 O   0  0  0  0  0
    4.1959   26.3454   63.8114 O   0  0  0  0  0
    0.1761   26.7145   64.4548 O   0  0  0  0  0
    2.1871   29.5601   57.2363 P   0  0  0  0  0
  2  1  1  0  0  0
  2  3  1  0  0  0
  2 18  1  0  0  0
  3 11  1  0  0  0
  4 11  1  0  0  0
  4 12  1  0  0  0
  7  8  1  0  0  0
  8 13  1  0  0  0
  9 16  1  0  0  0
 10 11  1  0  0  0
 10 17  1  0  0  0
 12  5  1  0  0  0
 12  6  1  0  0  0
 12  7  1  0  0  0
 19 13  1  0  0  0
 19 15  1  0  0  0
 19 16  1  0  0  0
 19 14  2  0  0  0
M  CHG  2  12   1  15  -1
M  END
> <rmsd>
0.664107561

$$$$
PubChem-130375711


 34 38  0  0  0  0  0  0  0  0999 V2000
   -0.4552   27.6451   60.8238 C   0  0  0  0  0
   -0.8670   28.2301   62.1587 C   0  0  0  0  0
   -1.1300   27.5641   64.2546 C   0  0  0  0  0
   -2.3943   27.6682   65.0850 C   0  0  0  0  0
    0.9580   27.1606   64.8854 C   0  0  0  0  0
    1.8970   26.5542   63.8289 C   0  0  0  0  0
    3.0385   25.8969   64.5648 C   0  0  0  0  0
    2.7076   26.1524   65.9803 C   0  0  0  0  0
    3.8441   27.3909   63.1077 C   0  0  0  0  0
    4.5297   28.7709   63.2456 C   0  0  0  0  0
    6.0597   28.5986   63.2699 C   0  0  0  0  0
    6.5335   27.9337   61.9679 C   0  0  0  0  0
    5.8614   26.5592   61.8248 C   0  0  0  0  0
    4.3311   26.7239   61.7946 C   0  0  0  0  0
    3.9565   27.6075   60.5918 C   0  0  0  0  0
    4.6102   28.9974   60.7312 C   0  0  0  0  0
    6.1367   28.8177   60.7743 C   0  0  0  0  0
    4.1577   29.6624   62.0474 C   0  0  0  0  0
    2.9690   30.1985   59.2726 C   0  0  0  0  0
    2.7351   30.9906   58.0255 C   0  0  0  0  0
   -1.4639   27.2373   62.9380 O   0  0  0  0  0
   -0.3048   26.5704   64.7891 O   0  0  0  0  0
    3.4139   25.7722   66.9499 O   0  0  0  0  0
    1.5344   26.8504   66.1394 O   0  0  0  0  0
    4.1958   26.5884   64.2138 O   0  0  0  0  0
    2.4465   27.5752   63.0581 O   0  0  0  0  0
    4.2756   29.8195   59.6124 O   0  0  0  0  0
    1.9873   29.8345   59.9767 O   0  0  0  0  0
    1.2918   29.0238   56.8848 O   0  0  0  0  0
    3.7098   29.0174   56.4729 O   0  0  0  0  0
    2.2615   30.7909   55.2468 O   0  0  0  0  0
    1.6127   31.7863   58.1735 F   0  0  0  0  0
    3.8272   31.8021   57.7775 F   0  0  0  0  0
    2.4972   29.8886   56.6438 S   0  0  0  0  0
  1  2  1  0  0  0
  2 21  1  0  0  0
  3 21  1  0  0  0
  3  4  1  0  0  0
  3 22  1  0  0  0
  5 22  1  0  0  0
  5  6  1  0  0  0
  5 24  1  0  0  0
  6  7  1  0  0  0
  6 26  1  0  0  0
  7  8  1  0  0  0
  7 25  1  0  0  0
  8 24  1  0  0  0
  9 25  1  0  0  0
  9 26  1  0  0  0
  9 10  1  0  0  0
 10 11  1  0  0  0
 11 12  1  0  0  0
 12 13  1  0  0  0
 13 14  1  0  0  0
 14 15  1  0  0  0
 14  9  1  0  0  0
 15 16  1  0  0  0
 16 17  1  0  0  0
 16 18  1  0  0  0
 16 27  1  0  0  0
 17 12  1  0  0  0
 18 10  1  0  0  0
 19 27  1  0  0  0
 20 19  1  0  0  0
 20 32  1  0  0  0
 20 33  1  0  0  0
 20 34  1  0  0  0
 34 31  1  0  0  0
  8 23  2  0  0  0
 19 28  2  0  0  0
 34 29  2  0  0  0
 34 30  2  0  0  0
M  END
> <rmsd>
0.725976825

$$$$
PubChem-144654192 PubChem-144654193


 30 32  0  0  0  0  0  0  0  0999 V2000
    2.8559   33.2759   54.5692 C   0  0  0  0  0
    2.5522   31.8550   54.1425 C   0  0  0  0  0
    2.1489   30.0771   55.7955 C   0  0  0  0  0
   -0.0368   29.1882   56.1735 C   0  0  0  0  0
    1.7729   28.3710   57.4005 C   0  0  0  0  0
    2.6222   29.2085   56.7678 C   0  0  0  0  0
    3.7272   28.1043   58.2024 C   0  0  0  0  0
    1.9317   26.6832   59.2856 C   0  0  0  0  0
    2.8357   25.4580   59.2955 C   0  0  0  0  0
    1.8921   27.2957   60.7012 C   0  0  0  0  0
    1.0961   28.6254   60.8266 C   0  0  0  0  0
    0.8150   28.9087   62.3181 C   0  0  0  0  0
    1.4264   26.9254   65.5473 C   0  0  0  0  0
    0.2674   27.7102   66.1281 C   0  0  0  0  0
    1.8812   25.8877   66.5533 C   0  0  0  0  0
    1.0791   30.8144   60.1289 C   0  0  0  0  0
    3.0132   30.9527   55.1366 O   0  0  0  0  0
    1.9263   28.6112   63.1209 O   0  0  0  0  0
    3.4397   26.4728   63.3573 O   0  0  0  0  0
    1.4585   26.3414   61.6395 O   0  0  0  0  0
    1.0175   26.2893   64.3725 O   0  0  0  0  0
    1.8766   29.6676   60.2755 O   0  0  0  0  0
    0.8096   30.0443   55.5154 N   0  0  0  0  0
    0.4445   28.3407   57.1324 N   0  0  0  0  0
    3.8700   29.0666   57.2481 N   0  0  0  0  0
    2.4473   27.6528   58.3104 N   0  0  0  0  0
   -1.4238   29.1854   55.8596 N   0  0  0  0  0
    2.0083   26.9126   63.1428 P   0  0  0  0  0
   -0.1209   28.4948   60.1663 F   0  0  0  0  0
    0.6626   26.2614   58.9231 F   0  0  0  0  0
  1  2  1  0  0  0
  2 17  1  0  0  0
  3 17  1  0  0  0
  4 23  1  0  0  0
  4 27  1  0  0  0
  5 24  1  0  0  0
  6 25  1  0  0  0
  6  3  1  0  0  0
  7 26  1  0  0  0
  8 26  1  0  0  0
  8  9  1  0  0  0
  8 10  1  0  0  0
  8 30  1  0  0  0
 10 11  1  0  0  0
 10 20  1  0  0  0
 11 12  1  0  0  0
 11 22  1  0  0  0
 11 29  1  0  0  0
 12 18  1  0  0  0
 13 21  1  0  0  0
 13 14  1  0  0  0
 13 15  1  0  0  0
 16 22  1  0  0  0
 26  5  1  0  0  0
 28 18  1  0  0  0
 28 20  1  0  0  0
 28 21  1  0  0  0
  3 23  2  0  0  0
  4 24  2  0  0  0
  5  6  2  0  0  0
  7 25  2  0  0  0
 28 19  2  0  0  0
M  END
> <rmsd>
0.739509881

$$$$
PubChem-20686759


 25 27  0  0  0  0  0  0  0  0999 V2000
    4.8643   32.9818   60.7257 C   0  0  0  0  0
    3.9042   31.1126   61.4343 C   0  0  0  0  0
    2.9518   30.1974   60.6866 C   0  0  0  0  0
    4.4275   28.8170   61.6933 C   0  0  0  0  0
    4.4878   30.1438   62.4258 C   0  0  0  0  0
    5.8017   30.5784   64.1521 C   0  0  0  0  0
    4.7945   26.6576   62.9261 C   0  0  0  0  0
    2.9763   26.4392   64.0022 C   0  0  0  0  0
    2.9089   27.5821   63.2874 C   0  0  0  0  0
    0.7656   28.0298   64.0895 C   0  0  0  0  0
    1.9065   26.0579   64.7991 C   0  0  0  0  0
    2.6018   30.7061   59.2950 C   0  0  0  0  0
    4.9022   31.5948   60.5744 O   0  0  0  0  0
    3.5098   28.9065   60.6264 O   0  0  0  0  0
    5.8068   30.4636   62.7615 O   0  0  0  0  0
    1.6189   29.8939   58.7261 O   0  0  0  0  0
    1.1662   28.6695   56.4605 O   0  0  0  0  0
    3.6595   28.7502   57.2368 O   0  0  0  0  0
    2.3511   30.9916   56.2865 O   0  0  0  0  0
    4.0467   27.7419   62.6011 N   0  0  0  0  0
    4.1570   25.8254   63.7986 N   0  0  0  0  0
    1.8257   28.3966   63.3069 N   0  0  0  0  0
    0.8101   26.8722   64.8259 N   0  0  0  0  0
    1.9412   24.8597   65.5664 N   0  0  0  0  0
    2.1722   29.5536   57.1605 P   0  0  0  0  0
  1 13  1  0  0  0
  2 13  1  0  0  0
  2  3  1  0  0  0
  3 14  1  0  0  0
  3 12  1  0  0  0
  4 14  1  0  0  0
  4  5  1  0  0  0
  4 20  1  0  0  0
  5 15  1  0  0  0
  5  2  1  0  0  0
  6 15  1  0  0  0
  8 21  1  0  0  0
  9 22  1  0  0  0
  9 20  1  0  0  0
 10 23  1  0  0  0
 11 24  1  0  0  0
 11  8  1  0  0  0
 12 16  1  0  0  0
 20  7  1  0  0  0
 25 16  1  0  0  0
 25 18  1  0  0  0
 25 19  1  0  0  0
  7 21  2  0  0  0
  8  9  2  0  0  0
 10 22  2  0  0  0
 11 23  2  0  0  0
 25 17  2  0  0  0
M  CHG  1  19  -1
M  END
> <rmsd>
0.680381656

$$$$
PubChem-77425865


 34 37  0  0  0  0  0  0  0  0999 V2000
    3.2953   33.0392   52.0898 C   0  0  0  0  0
    3.5589   32.0159   53.1739 C   0  0  0  0  0
    2.2816   31.2530   53.4693 C   0  0  0  0  0
    2.5202   30.2387   54.5717 C   0  0  0  0  0
    4.1769   27.7582   57.6772 C   0  0  0  0  0
    4.2077   26.3346   57.1505 C   0  0  0  0  0
    4.2314   25.3440   58.3008 C   0  0  0  0  0
    5.6017   25.3153   58.9516 C   0  0  0  0  0
    0.9087   27.8183   57.8444 C   0  0  0  0  0
    0.0265   26.8753   57.5184 C   0  0  0  0  0
   -0.3447   25.8105   58.3859 C   0  0  0  0  0
    0.2423   25.5756   59.5546 C   0  0  0  0  0
    1.4326   26.4316   59.9368 C   0  0  0  0  0
    1.4136   27.8521   59.2829 C   0  0  0  0  0
    0.6609   28.8783   60.1116 C   0  0  0  0  0
    0.5414   27.3620   62.1505 C   0  0  0  0  0
    1.5660   26.5222   61.4201 C   0  0  0  0  0
    2.6366   25.9896   62.0253 C   0  0  0  0  0
    2.8347   26.1024   63.5084 C   0  0  0  0  0
    2.2615   27.4138   64.0498 C   0  0  0  0  0
    0.7857   27.5367   63.6588 C   0  0  0  0  0
   -1.5928   25.6348   56.4741 C   0  0  0  0  0
    2.6981   30.8939   55.7923 O   0  0  0  0  0
    2.9351   30.3032   58.3144 O   0  0  0  0  0
    4.0799   28.6499   56.6080 O   0  0  0  0  0
    1.2819   28.7728   56.8929 O   0  0  0  0  0
    0.3350   29.9819   59.5993 O   0  0  0  0  0
    0.0287   26.6026   64.3668 O   0  0  0  0  0
    2.9797   28.5093   63.5619 O   0  0  0  0  0
    4.1896   25.9899   63.8204 O   0  0  0  0  0
   -1.3450   25.0810   57.7764 O   0  0  0  0  0
   -0.6948   26.7489   56.3474 O   0  0  0  0  0
    2.7589   29.6632   56.9550 P   0  0  0  0  0
    0.4058   28.6631   61.5061 N   0  0  0  0  0
  1  2  1  0  0  0
  2  3  1  0  0  0
  3  4  1  0  0  0
  4 23  1  0  0  0
  5 25  1  0  0  0
  5  6  1  0  0  0
  6  7  1  0  0  0
  7  8  1  0  0  0
  9 26  1  0  0  0
 10 11  1  0  0  0
 10 32  1  0  0  0
 11 31  1  0  0  0
 13 12  1  0  0  0
 13 14  1  0  0  0
 13 17  1  0  0  0
 14 15  1  0  0  0
 14  9  1  0  0  0
 15 34  1  0  0  0
 16 34  1  0  0  0
 16 17  1  0  0  0
 19 18  1  0  0  0
 19 20  1  0  0  0
 19 30  1  0  0  0
 20 21  1  0  0  0
 20 29  1  0  0  0
 21 28  1  0  0  0
 21 16  1  0  0  0
 22 31  1  0  0  0
 22 32  1  0  0  0
 33 23  1  0  0  0
 33 25  1  0  0  0
 33 26  1  0  0  0
  9 10  2  0  0  0
 11 12  2  0  0  0
 15 27  2  0  0  0
 17 18  2  0  0  0
 33 24  2  0  0  0
M  END
> <rmsd>
0.593897343

$$$$
PubChem-57298652


 22 23  0  0  0  0  0  0  0  0999 V2000
    2.6754   30.9039   62.4554 C   0  0  0  0  0
    1.5072   29.9434   62.2977 C   0  0  0  0  0
    1.9637   28.5607   61.8206 C   0  0  0  0  0
    0.7403   27.6504   61.7400 C   0  0  0  0  0
    0.9516   26.6231   62.8063 C   0  0  0  0  0
    2.4479   26.6986   63.0037 C   0  0  0  0  0
    2.8943   26.2087   64.3737 C   0  0  0  0  0
    3.9131   28.2574   60.3629 C   0  0  0  0  0
    4.5699   28.3258   59.1450 C   0  0  0  0  0
    3.8742   28.8060   58.0359 C   0  0  0  0  0
    1.9465   29.1346   59.3858 C   0  0  0  0  0
    5.9885   27.8772   59.0508 C   0  0  0  0  0
    2.8513   28.0253   62.7876 O   0  0  0  0  0
    4.2871   26.1627   64.4285 O   0  0  0  0  0
    0.2734   27.0298   63.9593 O   0  0  0  0  0
    4.4489   28.8500   56.9128 O   0  0  0  0  0
    0.7525   29.5306   59.4987 O   0  0  0  0  0
    2.4274   30.4452   56.2147 O   0  0  0  0  0
    0.5467   29.3562   56.8423 O   0  0  0  0  0
    2.6152   28.6531   60.4889 N   0  0  0  0  0
    2.5710   29.2081   58.1650 N   0  0  0  0  0
    1.8658   29.6956   57.0409 N   0  0  0  0  0
  1  2  1  0  0  0
  3  2  1  0  0  0
  3  4  1  0  0  0
  3 20  1  0  0  0
  3 13  1  0  0  0
  4  5  1  0  0  0
  5  6  1  0  0  0
  5 15  1  0  0  0
  6 13  1  0  0  0
  6  7  1  0  0  0
  7 14  1  0  0  0
  9 10  1  0  0  0
 10 21  1  0  0  0
 11 20  1  0  0  0
 12  9  1  0  0  0
 20  8  1  0  0  0
 21 11  1  0  0  0
 21 22  1  0  0  0
 22 19  1  0  0  0
  8  9  2  0  0  0
 10 16  2  0  0  0
 11 17  2  0  0  0
 22 18  2  0  0  0
M  CHG  2  22   1  19  -1
M  END
> <rmsd>
0.75376159

$$$$
PubChem-156451625


 23 25  0  0  0  0  0  0  0  0999 V2000
   -0.3928   32.1327   63.0720 C   0  0  0  0  0
   -0.1973   30.8261   62.3290 C   0  0  0  0  0
   -0.1027   31.0886   60.8570 C   0  0  0  0  0
    1.3109   30.6848   60.5069 C   0  0  0  0  0
    1.1453   30.2303   62.6895 C   0  0  0  0  0
    0.9421   29.0279   63.5942 C   0  0  0  0  0
    0.7001   28.7276   58.8902 C   0  0  0  0  0
    1.9065   29.5544   57.1041 C   0  0  0  0  0
    2.0611   30.4037   58.0789 C   0  0  0  0  0
    3.6110   31.7470   56.7082 C   0  0  0  0  0
    2.5619   29.7513   55.7701 C   0  0  0  0  0
    3.9361   28.5720   54.2870 C   0  0  0  0  0
    1.7990   29.8356   61.5108 O   0  0  0  0  0
    2.1796   28.5246   64.0029 O   0  0  0  0  0
    2.0253   26.6385   62.1762 O   0  0  0  0  0
    0.7922   26.1576   64.4370 O   0  0  0  0  0
    3.5409   26.1378   64.2435 O   0  0  0  0  0
    2.1254   26.8623   63.6688 P   0  0  0  0  0
    1.3377   30.0020   59.2224 N   0  0  0  0  0
    1.0862   28.4617   57.4983 N   0  0  0  0  0
    2.8248   31.5978   57.9343 N   0  0  0  0  0
    2.8861   31.1780   55.5568 N   0  0  0  0  0
    3.7669   28.9393   55.6821 N   0  0  0  0  0
  2  1  1  0  0  0
  2  3  1  0  0  0
  3  4  1  0  0  0
  4 13  1  0  0  0
  4 19  1  0  0  0
  5 13  1  0  0  0
  5  6  1  0  0  0
  5  2  1  0  0  0
  6 14  1  0  0  0
  7 19  1  0  0  0
  7 20  1  0  0  0
  9 21  1  0  0  0
  9 19  1  0  0  0
 10 21  1  0  0  0
 10 22  1  0  0  0
 11 22  1  0  0  0
 11 23  1  0  0  0
 11  8  1  0  0  0
 12 23  1  0  0  0
 18 14  1  0  0  0
 18 16  1  0  0  0
 18 17  1  0  0  0
 20  8  1  0  0  0
  8  9  2  0  0  0
 18 15  2  0  0  0
M  END
> <rmsd>
0.589543104

$$$$
PubChem-159992959


 29 30  0  0  0  0  0  0  0  0999 V2000
   -7.4313   25.7809   59.0879 C   0  0  0  0  0
   -6.1631   25.2297   58.8796 C   0  0  0  0  0
   -5.0188   25.9778   59.1732 C   0  0  0  0  0
   -5.1418   27.2770   59.6794 C   0  0  0  0  0
   -6.4118   27.8293   59.8824 C   0  0  0  0  0
   -7.5557   27.0807   59.5884 C   0  0  0  0  0
   -3.9235   28.0795   59.9752 C   0  0  0  0  0
   -3.5048   28.8688   58.7455 C   0  0  0  0  0
   -2.2376   29.6522   59.0318 C   0  0  0  0  0
   -1.0376   28.7218   59.0466 C   0  0  0  0  0
    0.1859   29.4585   59.4863 C   0  0  0  0  0
    0.9478   28.4754   61.9520 C   0  0  0  0  0
   -0.1859   27.4584   62.1114 C   0  0  0  0  0
    0.3898   26.1224   62.5782 C   0  0  0  0  0
    1.3759   26.2988   63.7398 C   0  0  0  0  0
    2.3155   27.4999   63.5282 C   0  0  0  0  0
    3.4748   27.1986   62.5788 C   0  0  0  0  0
    1.2044   29.5935   58.6979 N   0  0  0  0  0
    1.2000   29.0841   57.4190 O   0  0  0  0  0
    2.8401   30.7408   56.2232 O   0  0  0  0  0
    3.7541   28.6236   57.0612 O   0  0  0  0  0
    2.2682   28.5600   54.9294 O   0  0  0  0  0
    1.6167   28.6806   63.1771 O   0  0  0  0  0
    4.2998   26.2180   63.1300 O   0  0  0  0  0
    0.6734   26.4592   64.9346 O   0  0  0  0  0
    1.0211   25.4804   61.5117 O   0  0  0  0  0
   -1.1322   27.9173   63.0310 O   0  0  0  0  0
    2.5633   29.2771   56.4191 S   0  0  0  0  0
    0.2792   30.1718   61.2665 Se  0  0  0  0  0
  2  3  1  0  0  0
  4  5  1  0  0  0
  6  1  1  0  0  0
  7  4  1  0  0  0
  7  8  1  0  0  0
  8  9  1  0  0  0
  9 10  1  0  0  0
 10 11  1  0  0  0
 11 29  1  0  0  0
 12 29  1  0  0  0
 12 13  1  0  0  0
 12 23  1  0  0  0
 13 14  1  0  0  0
 13 27  1  0  0  0
 14 15  1  0  0  0
 14 26  1  0  0  0
 15 16  1  0  0  0
 15 25  1  0  0  0
 16 23  1  0  0  0
 16 17  1  0  0  0
 17 24  1  0  0  0
 18 19  1  0  0  0
 28 19  1  0  0  0
 28 22  1  0  0  0
  1  2  2  0  0  0
  3  4  2  0  0  0
  5  6  2  0  0  0
 11 18  2  0  0  0
 28 20  2  0  0  0
 28 21  2  0  0  0
M  END
> <rmsd>
0.748782098

$$$$
PubChem-59052259


 33 37  0  0  0  0  0  0  0  0999 V2000
    2.6742   20.1460   64.7222 C   0  0  0  0  0
    2.9324   21.4625   64.0834 C   0  0  0  0  0
    2.5341   21.6886   62.7625 C   0  0  0  0  0
    2.7767   22.9275   62.1616 C   0  0  0  0  0
    3.4175   23.9423   62.8806 C   0  0  0  0  0
    3.8170   23.7135   64.2025 C   0  0  0  0  0
    3.5743   22.4747   64.8033 C   0  0  0  0  0
    1.1909   26.5070   62.0697 C   0  0  0  0  0
    1.0314   25.8515   63.4375 C   0  0  0  0  0
    0.9792   27.8956   64.5360 C   0  0  0  0  0
    1.3198   28.0097   62.2334 C   0  0  0  0  0
    2.2854   28.4314   61.1531 C   0  0  0  0  0
    2.6901   27.1481   60.4106 C   0  0  0  0  0
    2.0811   27.0029   59.0156 C   0  0  0  0  0
    4.1487   27.5862   57.6898 C   0  0  0  0  0
    3.4353   29.1663   56.4634 C   0  0  0  0  0
    2.4208   28.7534   57.2525 C   0  0  0  0  0
    0.9668   30.3099   56.3042 C   0  0  0  0  0
    3.2288   30.1923   55.5526 C   0  0  0  0  0
   -0.0204   29.0060   64.8087 C   0  0  0  0  0
    1.7894   27.6932   65.8037 C   0  0  0  0  0
    3.7139   25.4967   62.1214 S   0  0  0  0  0
    4.8756   25.3459   61.1788 O   0  0  0  0  0
    4.0678   26.5164   63.1689 O   0  0  0  0  0
    0.2586   26.6974   64.2549 O   0  0  0  0  0
    1.8651   28.3130   63.4988 O   0  0  0  0  0
    1.6855   29.3774   60.3185 O   0  0  0  0  0
    2.2949   26.0069   61.2303 N   0  0  0  0  0
    2.8487   27.7630   58.0394 N   0  0  0  0  0
    4.5476   28.4494   56.7121 N   0  0  0  0  0
    1.1805   29.2970   57.1985 N   0  0  0  0  0
    1.9830   30.7495   55.4924 N   0  0  0  0  0
    4.2737   30.6543   54.7039 N   0  0  0  0  0
  1  2  1  0  0  0
  3  4  1  0  0  0
  5  6  1  0  0  0
  7  2  1  0  0  0
  8 28  1  0  0  0
  8  9  1  0  0  0
  9 25  1  0  0  0
 10 25  1  0  0  0
 10 26  1  0  0  0
 10 20  1  0  0  0
 10 21  1  0  0  0
 11 26  1  0  0  0
 11 12  1  0  0  0
 11  8  1  0  0  0
 12 13  1  0  0  0
 12 27  1  0  0  0
 13 14  1  0  0  0
 13 28  1  0  0  0
 14 29  1  0  0  0
 16 30  1  0  0  0
 17 31  1  0  0  0
 17 29  1  0  0  0
 18 32  1  0  0  0
 19 33  1  0  0  0
 19 16  1  0  0  0
 22  5  1  0  0  0
 22 28  1  0  0  0
 29 15  1  0  0  0
  2  3  2  0  0  0
  4  5  2  0  0  0
  6  7  2  0  0  0
 15 30  2  0  0  0
 16 17  2  0  0  0
 18 31  2  0  0  0
 19 32  2  0  0  0
 22 23  2  0  0  0
 22 24  2  0  0  0
M  END
> <rmsd>
0.767255425

$$$$
PubChem-101991929


 29 31  0  0  0  0  0  0  0  0999 V2000
    1.0004   33.2052   56.0437 C   0  0  0  0  0
    0.7393   32.1215   57.0741 C   0  0  0  0  0
    2.0145   31.4108   57.5607 C   0  0  0  0  0
    3.2905   32.3040   57.6356 C   0  0  0  0  0
    3.3088   33.5874   56.7943 C   0  0  0  0  0
    1.9395   34.2244   56.6508 C   0  0  0  0  0
    3.5077   32.5282   59.0930 C   0  0  0  0  0
    1.7961   31.0394   58.9977 C   0  0  0  0  0
    2.7026   31.5785   61.3217 C   0  0  0  0  0
    2.5900   30.2908   61.8628 C   0  0  0  0  0
    2.6671   30.0800   63.2483 C   0  0  0  0  0
    2.8561   31.1785   64.0988 C   0  0  0  0  0
    2.9547   32.4667   63.5677 C   0  0  0  0  0
    2.8787   32.6720   62.1880 C   0  0  0  0  0
    2.3654   27.6360   62.9939 C   0  0  0  0  0
    2.2907   26.4366   63.8687 C   0  0  0  0  0
    2.0318   35.3306   55.8079 O   0  0  0  0  0
    4.4606   33.2065   59.5614 O   0  0  0  0  0
    0.9228   30.2156   59.3839 O   0  0  0  0  0
    2.5588   28.7958   63.7924 O   0  0  0  0  0
    1.1748   26.0263   64.2799 O   0  0  0  0  0
    3.4552   25.7943   64.2667 O   0  0  0  0  0
    2.6914   30.3811   55.1635 O   0  0  0  0  0
    1.1420   29.0696   56.5364 O   0  0  0  0  0
    3.6467   29.1181   57.2214 O   0  0  0  0  0
    2.6234   31.7646   59.8985 N   0  0  0  0  0
    2.9305   33.9391   61.7087 F   0  0  0  0  0
    2.9594   30.9632   65.8369 Cl  0  0  0  0  0
    2.3504   29.9629   56.5661 S   0  0  0  0  0
  1  2  1  0  0  0
  2  3  1  0  0  0
  3  4  1  0  0  0
  3 29  1  0  0  0
  3  8  1  0  0  0
  4  5  1  0  0  0
  4  7  1  0  0  0
  5  6  1  0  0  0
  6 17  1  0  0  0
  6  1  1  0  0  0
  7 26  1  0  0  0
 10 11  1  0  0  0
 11 20  1  0  0  0
 12 13  1  0  0  0
 12 28  1  0  0  0
 14 27  1  0  0  0
 14  9  1  0  0  0
 15 20  1  0  0  0
 15 16  1  0  0  0
 16 22  1  0  0  0
 26  8  1  0  0  0
 26  9  1  0  0  0
 29 25  1  0  0  0
  7 18  2  0  0  0
  8 19  2  0  0  0
  9 10  2  0  0  0
 11 12  2  0  0  0
 13 14  2  0  0  0
 16 21  2  0  0  0
 29 23  2  0  0  0
 29 24  2  0  0  0
M  END
> <rmsd>
0.838257194

$$$$
PubChem-17861522


 15 14  0  0  0  0  0  0  0  0999 V2000
    4.8396   29.1963   63.0361 C   0  0  0  0  0
    3.7948   28.3355   62.3472 C   0  0  0  0  0
    3.5764   28.7861   60.9054 C   0  0  0  0  0
    2.9589   30.1764   60.8267 C   0  0  0  0  0
    2.7237   30.5609   59.3783 C   0  0  0  0  0
    1.6848   29.7951   58.8443 O   0  0  0  0  0
    1.0319   28.7088   56.5574 O   0  0  0  0  0
    3.5793   28.7058   57.1373 O   0  0  0  0  0
    2.2461   31.0180   56.4188 O   0  0  0  0  0
    2.5942   28.3705   63.0640 O   0  0  0  0  0
    0.9583   26.7016   64.2398 O   0  0  0  0  0
    2.0647   25.8500   62.0315 O   0  0  0  0  0
    3.4970   26.1013   64.3817 O   0  0  0  0  0
    2.1071   29.5358   57.2234 P   0  0  0  0  0
    2.2454   26.7554   63.4497 P   0  0  0  0  0
  1  2  1  0  0  0
  2  3  1  0  0  0
  2 10  1  0  0  0
  3  4  1  0  0  0
  4  5  1  0  0  0
  5  6  1  0  0  0
 14  6  1  0  0  0
 14  8  1  0  0  0
 14  9  1  0  0  0
 15 10  1  0  0  0
 15 12  1  0  0  0
 15 13  1  0  0  0
 14  7  2  0  0  0
 15 11  2  0  0  0
M  CHG  2   8  -1   9  -1
M  END
> <rmsd>
0.722321749

$$$$
PubChem-11165767


 28 29  0  0  0  0  0  0  0  0999 V2000
    1.9794   28.4029   54.7668 C   0  0  0  0  0
    2.0989   29.3507   55.9804 C   0  0  0  0  0
    3.4456   29.1071   56.7468 C   0  0  0  0  0
    2.3050   27.5080   58.0950 C   0  0  0  0  0
    1.0128   27.8289   57.3399 C   0  0  0  0  0
    2.3406   27.9316   59.5676 C   0  0  0  0  0
    1.7441   26.8366   60.4506 C   0  0  0  0  0
    2.1949   26.9630   61.9046 C   0  0  0  0  0
    1.5311   28.1430   62.6178 C   0  0  0  0  0
    1.7612   27.0662   64.6509 C   0  0  0  0  0
    2.4202   25.8500   63.9189 C   0  0  0  0  0
    2.0398   24.5609   64.6591 C   0  0  0  0  0
    4.4324   24.9942   63.1586 C   0  0  0  0  0
    2.3832   27.1992   66.0475 C   0  0  0  0  0
   -0.2631   27.9777   65.3068 C   0  0  0  0  0
    3.6140   30.1860   57.8164 C   0  0  0  0  0
    4.8993   28.0792   55.2350 C   0  0  0  0  0
    0.8425   31.0258   54.9954 C   0  0  0  0  0
    3.4922   27.8268   57.3849 O   0  0  0  0  0
    1.0144   29.1605   56.8812 O   0  0  0  0  0
    2.0403   28.2587   63.9278 O   0  0  0  0  0
    1.9094   25.7658   62.5945 O   0  0  0  0  0
    3.8338   26.0136   63.9212 O   0  0  0  0  0
    0.3605   26.8411   64.7610 O   0  0  0  0  0
    0.3490   26.8023   60.3513 O   0  0  0  0  0
    1.6838   29.1502   59.7705 O   0  0  0  0  0
    4.5482   29.2859   55.8661 O   0  0  0  0  0
    2.1074   30.6905   55.5116 O   0  0  0  0  0
  2  1  1  0  0  0
  2  3  1  0  0  0
  2 28  1  0  0  0
  2 20  1  0  0  0
  3 19  1  0  0  0
  3 16  1  0  0  0
  3 27  1  0  0  0
  4 19  1  0  0  0
  4  5  1  0  0  0
  4  6  1  0  0  0
  5 20  1  0  0  0
  6  7  1  0  0  0
  6 26  1  0  0  0
  7  8  1  0  0  0
  7 25  1  0  0  0
  8  9  1  0  0  0
  8 22  1  0  0  0
  9 21  1  0  0  0
 10 21  1  0  0  0
 10 11  1  0  0  0
 10 14  1  0  0  0
 10 24  1  0  0  0
 11 22  1  0  0  0
 11 12  1  0  0  0
 11 23  1  0  0  0
 13 23  1  0  0  0
 15 24  1  0  0  0
 17 27  1  0  0  0
 18 28  1  0  0  0
M  END
> <rmsd>
0.700957596

$$$$
PubChem-67281692


 24 25  0  0  0  0  0  0  0  0999 V2000
    2.8441   24.5499   60.7277 C   0  0  0  0  0
    3.5125   25.8959   60.4595 C   0  0  0  0  0
    2.5409   27.0366   60.7828 C   0  0  0  0  0
    2.0175   26.9769   62.2292 C   0  0  0  0  0
    1.3878   25.5952   62.4869 C   0  0  0  0  0
    2.3715   24.4590   62.1771 C   0  0  0  0  0
    0.7751   25.4918   63.8548 C   0  0  0  0  0
    3.0561   27.3454   63.2553 C   0  0  0  0  0
    3.0250   28.4264   60.3434 C   0  0  0  0  0
    4.4332   28.7721   60.8580 C   0  0  0  0  0
    5.4914   28.4704   59.8072 C   0  0  0  0  0
    5.2954   29.3499   58.5714 C   0  0  0  0  0
    3.8235   29.6471   58.2389 C   0  0  0  0  0
    2.8526   28.6003   58.8218 C   0  0  0  0  0
    1.4273   28.9484   58.5211 C   0  0  0  0  0
    3.6715   29.7913   56.7566 C   0  0  0  0  0
    1.1894   24.6451   64.6911 O   0  0  0  0  0
   -0.2660   26.3423   64.2035 O   0  0  0  0  0
    2.8745   28.3536   63.9856 O   0  0  0  0  0
    4.2105   26.5864   63.4075 O   0  0  0  0  0
    0.7271   28.1674   57.8265 O   0  0  0  0  0
    0.8733   30.1279   59.0044 O   0  0  0  0  0
    3.8973   28.8163   55.9913 O   0  0  0  0  0
    3.2731   31.0089   56.2224 O   0  0  0  0  0
  1  2  1  0  0  0
  3  2  1  0  0  0
  3  4  1  0  0  0
  3  9  1  0  0  0
  4  5  1  0  0  0
  4  8  1  0  0  0
  5  6  1  0  0  0
  5  7  1  0  0  0
  6  1  1  0  0  0
  7 18  1  0  0  0
  8 20  1  0  0  0
  9 10  1  0  0  0
 10 11  1  0  0  0
 11 12  1  0  0  0
 12 13  1  0  0  0
 13 14  1  0  0  0
 13 16  1  0  0  0
 14 15  1  0  0  0
 14  9  1  0  0  0
 15 22  1  0  0  0
 16 24  1  0  0  0
  7 17  2  0  0  0
  8 19  2  0  0  0
 15 21  2  0  0  0
 16 23  2  0  0  0
M  END
> <rmsd>
0.767377615

$$$$
PubChem-59524445


 16 15  0  0  0  0  0  0  0  0999 V2000
    4.6169   29.6858   57.5664 C   0  0  0  0  0
    1.9683   28.9662   59.7250 C   0  0  0  0  0
    2.3742   29.3823   61.1251 C   0  0  0  0  0
    2.2957   28.1796   62.0443 C   0  0  0  0  0
   -0.0838   27.3947   64.4799 C   0  0  0  0  0
    3.6638   28.7201   57.2395 O   0  0  0  0  0
    1.0691   28.5563   56.9319 O   0  0  0  0  0
    2.1593   30.8250   56.2517 O   0  0  0  0  0
    1.8910   30.0903   58.8992 O   0  0  0  0  0
    2.5114   28.5774   63.3660 O   0  0  0  0  0
    3.4469   26.1831   63.9047 O   0  0  0  0  0
    2.5491   27.5569   65.9306 O   0  0  0  0  0
    0.8463   26.4475   64.0491 O   0  0  0  0  0
    3.6801   29.8751   61.1081 O   0  0  0  0  0
    2.1687   29.5174   57.3259 P   0  0  0  0  0
    2.3642   27.1647   64.2948 P   0  0  0  0  0
  1  6  1  0  0  0
  2  9  1  0  0  0
  3  2  1  0  0  0
  3  4  1  0  0  0
  3 14  1  0  0  0
  4 10  1  0  0  0
  5 13  1  0  0  0
 15  6  1  0  0  0
 15  8  1  0  0  0
 15  9  1  0  0  0
 16 10  1  0  0  0
 16 12  1  0  0  0
 16 13  1  0  0  0
 15  7  2  0  0  0
 16 11  2  0  0  0
M  END
> <rmsd>
0.715825558

$$$$
PubChem-20686760


 25 27  0  0  0  0  0  0  0  0999 V2000
    4.8643   32.9818   60.7257 C   0  0  0  0  0
    3.9042   31.1126   61.4343 C   0  0  0  0  0
    2.9518   30.1974   60.6866 C   0  0  0  0  0
    4.4275   28.8170   61.6933 C   0  0  0  0  0
    4.4878   30.1438   62.4258 C   0  0  0  0  0
    5.8017   30.5784   64.1521 C   0  0  0  0  0
    4.7945   26.6576   62.9261 C   0  0  0  0  0
    2.9763   26.4392   64.0022 C   0  0  0  0  0
    2.9089   27.5821   63.2874 C   0  0  0  0  0
    0.7656   28.0298   64.0895 C   0  0  0  0  0
    1.9065   26.0579   64.7991 C   0  0  0  0  0
    2.6018   30.7061   59.2950 C   0  0  0  0  0
    4.9022   31.5948   60.5744 O   0  0  0  0  0
    3.5098   28.9065   60.6264 O   0  0  0  0  0
    5.8068   30.4636   62.7615 O   0  0  0  0  0
    1.6189   29.8939   58.7261 O   0  0  0  0  0
    1.1662   28.6695   56.4605 O   0  0  0  0  0
    3.6595   28.7502   57.2368 O   0  0  0  0  0
    2.3511   30.9916   56.2865 O   0  0  0  0  0
    4.0467   27.7419   62.6011 N   0  0  0  0  0
    4.1570   25.8254   63.7986 N   0  0  0  0  0
    1.8257   28.3966   63.3069 N   0  0  0  0  0
    0.8101   26.8722   64.8259 N   0  0  0  0  0
    1.9412   24.8597   65.5664 N   0  0  0  0  0
    2.1722   29.5536   57.1605 P   0  0  0  0  0
  1 13  1  0  0  0
  2 13  1  0  0  0
  2  3  1  0  0  0
  3 14  1  0  0  0
  3 12  1  0  0  0
  4 14  1  0  0  0
  4  5  1  0  0  0
  4 20  1  0  0  0
  5 15  1  0  0  0
  5  2  1  0  0  0
  6 15  1  0  0  0
  8 21  1  0  0  0
  9 22  1  0  0  0
  9 20  1  0  0  0
 10 23  1  0  0  0
 11 24  1  0  0  0
 11  8  1  0  0  0
 12 16  1  0  0  0
 20  7  1  0  0  0
 25 16  1  0  0  0
 25 18  1  0  0  0
 25 19  1  0  0  0
  7 21  2  0  0  0
  8  9  2  0  0  0
 10 22  2  0  0  0
 11 23  2  0  0  0
 25 17  2  0  0  0
M  END
> <rmsd>
0.680381656

$$$$
PubChem-15472890


 26 26  0  0  0  0  0  0  0  0999 V2000
   -0.2469   31.0086   59.9905 C   0  0  0  0  0
    1.5552   29.8898   60.9530 C   0  0  0  0  0
    3.0198   29.6270   60.6294 C   0  0  0  0  0
    3.2231   28.2003   60.1377 C   0  0  0  0  0
    4.2059   26.1225   60.7703 C   0  0  0  0  0
    3.4048   25.2423   59.8031 C   0  0  0  0  0
    3.2988   26.2308   57.6153 C   0  0  0  0  0
    1.7886   25.9850   57.5284 C   0  0  0  0  0
    1.1266   27.0549   56.6752 C   0  0  0  0  0
   -0.1232   28.4955   58.0350 C   0  0  0  0  0
    0.0953   28.7449   59.5208 C   0  0  0  0  0
    1.1925   29.3583   56.3181 C   0  0  0  0  0
    3.8811   23.9393   57.8999 C   0  0  0  0  0
    2.1833   26.8739   61.8185 C   0  0  0  0  0
    0.7789   30.0140   59.7286 N   0  0  0  0  0
    3.4637   27.2938   61.2555 N   0  0  0  0  0
    4.0037   25.2708   58.4739 N   0  0  0  0  0
    1.1549   28.3419   57.3558 N   0  0  0  0  0
    2.8298   30.1431   56.2765 P   0  0  0  0  0
    2.2505   26.9567   63.6303 P   0  0  0  0  0
    3.1033   30.8226   57.5982 O   0  0  0  0  0
    4.0167   28.9741   55.9871 O   0  0  0  0  0
    2.8642   31.2940   55.0384 O   0  0  0  0  0
    2.5367   28.3766   64.0625 O   0  0  0  0  0
    0.7643   26.4639   64.2684 O   0  0  0  0  0
    3.4729   25.9365   64.1997 O   0  0  0  0  0
  1 15  1  0  0  0
  2 15  1  0  0  0
  2  3  1  0  0  0
  3  4  1  0  0  0
  4 16  1  0  0  0
  5 16  1  0  0  0
  5  6  1  0  0  0
  6 17  1  0  0  0
  7 17  1  0  0  0
  7  8  1  0  0  0
  8  9  1  0  0  0
  9 18  1  0  0  0
 10 18  1  0  0  0
 10 11  1  0  0  0
 11 15  1  0  0  0
 12 18  1  0  0  0
 12 19  1  0  0  0
 13 17  1  0  0  0
 14 16  1  0  0  0
 14 20  1  0  0  0
 19 22  1  0  0  0
 19 23  1  0  0  0
 20 25  1  0  0  0
 20 26  1  0  0  0
 19 21  2  0  0  0
 20 24  2  0  0  0
M  END
> <rmsd>
0.598731577

$$$$
PubChem-57947337


 23 26  0  0  0  0  0  0  0  0999 V2000
    0.9361   31.2548   61.2052 C   0  0  0  0  0
    0.7744   30.6730   62.5942 C   0  0  0  0  0
    0.1160   29.3119   62.3766 C   0  0  0  0  0
    0.4962   28.8322   60.9873 C   0  0  0  0  0
    0.8580   30.0904   60.2244 C   0  0  0  0  0
   -0.4606   29.3963   59.9486 C   0  0  0  0  0
    1.7620   30.7420   58.2854 C   0  0  0  0  0
   -0.3942   27.8697   64.3681 C   0  0  0  0  0
    1.4228   26.8098   64.6572 C   0  0  0  0  0
    1.5823   27.6423   63.6066 C   0  0  0  0  0
    3.7642   26.8893   63.2661 C   0  0  0  0  0
    2.4637   25.9797   65.0474 C   0  0  0  0  0
    1.9275   29.8527   59.3523 O   0  0  0  0  0
    2.0393   30.8808   55.5840 O   0  0  0  0  0
    3.8412   29.4359   56.8130 O   0  0  0  0  0
    1.2391   28.5652   56.5021 O   0  0  0  0  0
    2.0362   30.5488   63.1799 O   0  0  0  0  0
    2.2231   29.9204   56.7362 P   0  0  0  0  0
    0.4479   28.3288   63.4080 N   0  0  0  0  0
    0.1826   26.9264   65.1661 N   0  0  0  0  0
    2.7312   27.7025   62.8889 N   0  0  0  0  0
    3.6276   26.0393   64.3350 N   0  0  0  0  0
    2.3301   25.0876   66.1482 N   0  0  0  0  0
  1  2  1  0  0  0
  2  3  1  0  0  0
  2 17  1  0  0  0
  3  4  1  0  0  0
  3 19  1  0  0  0
  4  5  1  0  0  0
  5  6  1  0  0  0
  5 13  1  0  0  0
  5  1  1  0  0  0
  6  4  1  0  0  0
  7 13  1  0  0  0
  7 18  1  0  0  0
  9 20  1  0  0  0
 10 21  1  0  0  0
 10 19  1  0  0  0
 11 22  1  0  0  0
 12 23  1  0  0  0
 12  9  1  0  0  0
 18 15  1  0  0  0
 18 16  1  0  0  0
 19  8  1  0  0  0
  8 20  2  0  0  0
  9 10  2  0  0  0
 11 21  2  0  0  0
 12 22  2  0  0  0
 18 14  2  0  0  0
M  END
> <rmsd>
0.775114

$$$$
PubChem-11246074


 24 25  0  0  0  0  0  0  0  0999 V2000
    1.2740   26.6008   61.3190 C   0  0  0  0  0
    0.9610   27.9858   61.9066 C   0  0  0  0  0
   -0.4010   27.9686   62.6232 C   0  0  0  0  0
   -1.4461   28.7942   60.8049 C   0  0  0  0  0
    0.7951   29.0001   60.7560 C   0  0  0  0  0
    2.0441   29.1136   59.8891 C   0  0  0  0  0
   -2.7241   28.8016   60.0190 C   0  0  0  0  0
   -3.9327   29.0434   60.6843 C   0  0  0  0  0
   -5.1377   29.0614   59.9754 C   0  0  0  0  0
   -5.1405   28.8393   58.5955 C   0  0  0  0  0
   -3.9385   28.5999   57.9239 C   0  0  0  0  0
   -2.7337   28.5818   58.6325 C   0  0  0  0  0
   -1.4513   27.7227   61.7180 O   0  0  0  0  0
   -0.3235   28.6882   59.9602 O   0  0  0  0  0
    1.8991   30.1657   58.9818 O   0  0  0  0  0
    1.1916   28.4714   57.0991 O   0  0  0  0  0
    3.7674   28.7739   57.4688 O   0  0  0  0  0
    2.2222   30.7349   56.3025 O   0  0  0  0  0
    1.9824   28.4732   62.7658 O   0  0  0  0  0
    3.0691   28.1186   65.1289 O   0  0  0  0  0
    3.4856   26.2184   63.3965 O   0  0  0  0  0
    1.0408   26.5626   64.6256 O   0  0  0  0  0
    2.2393   29.5013   57.4585 P   0  0  0  0  0
    2.3981   27.3618   64.0062 P   0  0  0  0  0
  2  1  1  0  0  0
  2  3  1  0  0  0
  2 19  1  0  0  0
  3 13  1  0  0  0
  4 13  1  0  0  0
  4 14  1  0  0  0
  4  7  1  0  0  0
  5 14  1  0  0  0
  5  6  1  0  0  0
  5  2  1  0  0  0
  6 15  1  0  0  0
  8  9  1  0  0  0
 10 11  1  0  0  0
 12  7  1  0  0  0
 23 15  1  0  0  0
 23 17  1  0  0  0
 23 18  1  0  0  0
 24 19  1  0  0  0
 24 21  1  0  0  0
 24 22  1  0  0  0
  7  8  2  0  0  0
  9 10  2  0  0  0
 11 12  2  0  0  0
 23 16  2  0  0  0
 24 20  2  0  0  0
M  END
> <rmsd>
0.807493865

$$$$
PubChem-11246074


 24 25  0  0  0  0  0  0  0  0999 V2000
    1.2069   26.6155   61.3308 C   0  0  0  0  0
    0.9699   28.0110   61.9296 C   0  0  0  0  0
   -0.3732   28.0529   62.6800 C   0  0  0  0  0
   -1.4232   28.9320   60.8878 C   0  0  0  0  0
    0.8214   29.0358   60.7861 C   0  0  0  0  0
    2.0529   29.0983   59.8896 C   0  0  0  0  0
   -2.6938   29.0202   60.0952 C   0  0  0  0  0
   -2.8879   30.1112   59.2384 C   0  0  0  0  0
   -4.0631   30.2204   58.4891 C   0  0  0  0  0
   -5.0525   29.2388   58.5935 C   0  0  0  0  0
   -4.8674   28.1481   59.4474 C   0  0  0  0  0
   -3.6922   28.0388   60.1967 C   0  0  0  0  0
   -1.4558   27.8584   61.8008 O   0  0  0  0  0
   -0.3289   28.7764   60.0169 O   0  0  0  0  0
    1.9345   30.1632   58.9934 O   0  0  0  0  0
    1.1491   28.5095   57.1055 O   0  0  0  0  0
    2.2442   30.7450   56.3153 O   0  0  0  0  0
    3.7377   28.7240   57.4463 O   0  0  0  0  0
    2.0330   28.4487   62.7645 O   0  0  0  0  0
    3.4239   26.3163   63.4525 O   0  0  0  0  0
    1.0659   26.4912   64.5668 O   0  0  0  0  0
    3.1383   28.1479   65.2833 O   0  0  0  0  0
    2.2344   29.5013   57.4607 P   0  0  0  0  0
    2.4281   27.3167   63.9936 P   0  0  0  0  0
  2  1  1  0  0  0
  2  3  1  0  0  0
  2 19  1  0  0  0
  3 13  1  0  0  0
  4 13  1  0  0  0
  4 14  1  0  0  0
  4  7  1  0  0  0
  5 14  1  0  0  0
  5  6  1  0  0  0
  5  2  1  0  0  0
  6 15  1  0  0  0
  8  9  1  0  0  0
 10 11  1  0  0  0
 12  7  1  0  0  0
 23 15  1  0  0  0
 23 17  1  0  0  0
 23 18  1  0  0  0
 24 19  1  0  0  0
 24 21  1  0  0  0
 24 22  1  0  0  0
  7  8  2  0  0  0
  9 10  2  0  0  0
 11 12  2  0  0  0
 23 16  2  0  0  0
 24 20  2  0  0  0
M  END
> <rmsd>
0.808163881

$$$$
PubChem-160135174 PubChem-59524444


 16 15  0  0  0  0  0  0  0  0999 V2000
    4.6169   29.6858   57.5664 C   0  0  0  0  0
    1.9683   28.9662   59.7250 C   0  0  0  0  0
    2.3742   29.3823   61.1251 C   0  0  0  0  0
    2.2957   28.1796   62.0443 C   0  0  0  0  0
   -0.0838   27.3947   64.4799 C   0  0  0  0  0
    3.6638   28.7201   57.2395 O   0  0  0  0  0
    1.0691   28.5563   56.9319 O   0  0  0  0  0
    2.1593   30.8250   56.2517 O   0  0  0  0  0
    1.8910   30.0903   58.8992 O   0  0  0  0  0
    2.5114   28.5774   63.3660 O   0  0  0  0  0
    3.4469   26.1831   63.9047 O   0  0  0  0  0
    2.5491   27.5569   65.9306 O   0  0  0  0  0
    0.8463   26.4475   64.0491 O   0  0  0  0  0
    3.6801   29.8751   61.1081 O   0  0  0  0  0
    2.1687   29.5174   57.3259 P   0  0  0  0  0
    2.3642   27.1647   64.2948 P   0  0  0  0  0
  1  6  1  0  0  0
  2  9  1  0  0  0
  3  2  1  0  0  0
  3  4  1  0  0  0
  3 14  1  0  0  0
  4 10  1  0  0  0
  5 13  1  0  0  0
 15  6  1  0  0  0
 15  8  1  0  0  0
 15  9  1  0  0  0
 16 10  1  0  0  0
 16 12  1  0  0  0
 16 13  1  0  0  0
 15  7  2  0  0  0
 16 11  2  0  0  0
M  CHG  2   8  -1  12  -1
M  END
> <rmsd>
0.715825558

$$$$
PubChem-20400417


 27 27  0  0  0  0  0  0  0  0999 V2000
    0.9935   26.4874   56.4755 C   0  0  0  0  0
    1.1510   27.9274   56.8208 C   0  0  0  0  0
    2.3483   28.3707   57.6095 C   0  0  0  0  0
    1.9692   28.9299   58.9533 C   0  0  0  0  0
    2.3900   28.2370   60.1992 C   0  0  0  0  0
    2.0741   28.7324   61.4864 C   0  0  0  0  0
    2.4620   28.0058   62.6352 C   0  0  0  0  0
    3.2465   26.8412   62.5041 C   0  0  0  0  0
    3.5695   26.3772   61.2242 C   0  0  0  0  0
    3.1396   27.0595   60.0910 C   0  0  0  0  0
    4.4524   25.0041   63.7131 C   0  0  0  0  0
    4.8785   24.4778   65.0355 C   0  0  0  0  0
    1.4966   27.6611   64.8909 C   0  0  0  0  0
    1.3184   28.2089   66.2603 C   0  0  0  0  0
    1.6792   30.9758   62.4575 C   0  0  0  0  0
    0.7142   32.0856   62.6681 C   0  0  0  0  0
    3.2183   29.3108   56.8360 C   0  0  0  0  0
    0.3048   28.7313   56.4610 O   0  0  0  0  0
    1.2869   29.9898   59.0044 O   0  0  0  0  0
    3.7063   26.1903   63.6623 O   0  0  0  0  0
    4.7642   24.3694   62.6707 O   0  0  0  0  0
    2.0624   28.4679   63.8979 O   0  0  0  0  0
    1.0952   26.4948   64.6327 O   0  0  0  0  0
    1.3331   29.9171   61.6111 O   0  0  0  0  0
    2.8110   31.0250   63.0097 O   0  0  0  0  0
    4.4042   28.9847   56.5708 O   0  0  0  0  0
    2.7314   30.5420   56.4127 O   0  0  0  0  0
  1  2  1  0  0  0
  3  2  1  0  0  0
  3  4  1  0  0  0
  3 17  1  0  0  0
  4  5  1  0  0  0
  6  7  1  0  0  0
  6 24  1  0  0  0
  7 22  1  0  0  0
  8  9  1  0  0  0
  8 20  1  0  0  0
 10  5  1  0  0  0
 11 20  1  0  0  0
 12 11  1  0  0  0
 13 22  1  0  0  0
 14 13  1  0  0  0
 15 24  1  0  0  0
 16 15  1  0  0  0
 17 27  1  0  0  0
  2 18  2  0  0  0
  4 19  2  0  0  0
  5  6  2  0  0  0
  7  8  2  0  0  0
  9 10  2  0  0  0
 11 21  2  0  0  0
 13 23  2  0  0  0
 15 25  2  0  0  0
 17 26  2  0  0  0
M  CHG  1  27  -1
M  END
> <rmsd>
0.677872956

$$$$
PubChem-20400417


 27 27  0  0  0  0  0  0  0  0999 V2000
    1.0567   26.4763   56.4015 C   0  0  0  0  0
    1.1832   27.9144   56.7672 C   0  0  0  0  0
    2.3578   28.3677   57.5838 C   0  0  0  0  0
    1.9435   28.9040   58.9266 C   0  0  0  0  0
    2.3476   28.2002   60.1718 C   0  0  0  0  0
    1.9749   28.6586   61.4573 C   0  0  0  0  0
    2.3951   27.9540   62.6082 C   0  0  0  0  0
    3.1848   26.7920   62.4769 C   0  0  0  0  0
    3.5215   26.3376   61.1970 C   0  0  0  0  0
    3.1088   27.0305   60.0640 C   0  0  0  0  0
    4.3900   24.9522   63.6822 C   0  0  0  0  0
    4.8411   24.4385   65.0013 C   0  0  0  0  0
    1.5685   27.7065   64.9319 C   0  0  0  0  0
    1.4872   28.3071   66.2882 C   0  0  0  0  0
    0.0329   29.9182   62.3280 C   0  0  0  0  0
   -0.5796   31.2502   62.5678 C   0  0  0  0  0
    3.2264   29.3315   56.8384 C   0  0  0  0  0
    0.3303   28.7084   56.4012 O   0  0  0  0  0
    1.2463   29.9541   58.9773 O   0  0  0  0  0
    3.6522   26.1438   63.6334 O   0  0  0  0  0
    4.6704   24.3007   62.6413 O   0  0  0  0  0
    2.0733   28.4692   63.8729 O   0  0  0  0  0
    1.1362   26.5376   64.7448 O   0  0  0  0  0
    1.2136   29.8295   61.5831 O   0  0  0  0  0
   -0.5414   28.8841   62.7625 O   0  0  0  0  0
    4.4228   29.0291   56.5935 O   0  0  0  0  0
    2.7265   30.5588   56.4188 O   0  0  0  0  0
  1  2  1  0  0  0
  3  2  1  0  0  0
  3  4  1  0  0  0
  3 17  1  0  0  0
  4  5  1  0  0  0
  6  7  1  0  0  0
  6 24  1  0  0  0
  7 22  1  0  0  0
  8  9  1  0  0  0
  8 20  1  0  0  0
 10  5  1  0  0  0
 11 20  1  0  0  0
 12 11  1  0  0  0
 13 22  1  0  0  0
 14 13  1  0  0  0
 15 24  1  0  0  0
 16 15  1  0  0  0
 17 27  1  0  0  0
  2 18  2  0  0  0
  4 19  2  0  0  0
  5  6  2  0  0  0
  7  8  2  0  0  0
  9 10  2  0  0  0
 11 21  2  0  0  0
 13 23  2  0  0  0
 15 25  2  0  0  0
 17 26  2  0  0  0
M  CHG  1  27  -1
M  END
> <rmsd>
0.701625049

$$$$
PubChem-20111982


 23 24  0  0  0  0  0  0  0  0999 V2000
   -0.5747   25.7089   64.8176 C   0  0  0  0  0
   -1.5966   26.3313   64.1084 C   0  0  0  0  0
    0.0067   27.5330   62.8266 C   0  0  0  0  0
    1.0475   26.9282   63.5766 C   0  0  0  0  0
    2.4728   27.2824   63.4286 C   0  0  0  0  0
    0.2445   28.4233   61.6741 C   0  0  0  0  0
    1.7228   29.0381   59.7693 C   0  0  0  0  0
    2.9594   28.7225   59.0286 C   0  0  0  0  0
    5.1849   27.8936   59.1611 C   0  0  0  0  0
    5.4075   28.2561   57.8371 C   0  0  0  0  0
    3.1735   29.0555   57.6657 C   0  0  0  0  0
    2.1171   29.5724   56.7732 C   0  0  0  0  0
   -1.2831   27.2218   63.1335 N   0  0  0  0  0
    0.7157   26.0221   64.5377 N   0  0  0  0  0
    3.9735   28.1360   59.7222 N   0  0  0  0  0
    4.4015   28.8232   57.1245 N   0  0  0  0  0
    3.3598   26.4321   63.7038 O   0  0  0  0  0
    2.8570   28.5701   63.0739 O   0  0  0  0  0
   -0.6204   29.2938   61.3826 O   0  0  0  0  0
    1.3779   28.2417   60.8696 O   0  0  0  0  0
    1.0371   30.0521   59.4661 O   0  0  0  0  0
    2.4295   30.2890   55.7859 O   0  0  0  0  0
    0.7874   29.2097   56.9511 O   0  0  0  0  0
  1 14  1  0  0  0
  2 13  1  0  0  0
  3  4  1  0  0  0
  3  6  1  0  0  0
  4  5  1  0  0  0
  5 18  1  0  0  0
  6 20  1  0  0  0
  7 20  1  0  0  0
  7  8  1  0  0  0
  9 15  1  0  0  0
 10 16  1  0  0  0
 11 12  1  0  0  0
 11  8  1  0  0  0
 12 23  1  0  0  0
  1  2  2  0  0  0
  3 13  2  0  0  0
  4 14  2  0  0  0
  5 17  2  0  0  0
  6 19  2  0  0  0
  7 21  2  0  0  0
  8 15  2  0  0  0
  9 10  2  0  0  0
 11 16  2  0  0  0
 12 22  2  0  0  0
M  END
> <rmsd>
0.772742093

$$$$
PubChem-20111982


 23 24  0  0  0  0  0  0  0  0999 V2000
    5.3990   28.2662   57.8152 C   0  0  0  0  0
    5.1762   27.9079   59.1404 C   0  0  0  0  0
    2.9526   28.7418   59.0068 C   0  0  0  0  0
    3.1667   29.0706   57.6428 C   0  0  0  0  0
    2.1111   29.5876   56.7495 C   0  0  0  0  0
    1.7173   29.0625   59.7473 C   0  0  0  0  0
    0.2379   28.4560   61.6539 C   0  0  0  0  0
   -0.0018   27.5703   62.8097 C   0  0  0  0  0
   -1.6086   26.3699   64.0886 C   0  0  0  0  0
   -0.5892   25.7580   64.8100 C   0  0  0  0  0
    1.0370   26.9760   63.5730 C   0  0  0  0  0
    2.4641   27.3288   63.4368 C   0  0  0  0  0
    3.9658   28.1547   59.7014 N   0  0  0  0  0
    4.3938   28.8336   57.1017 N   0  0  0  0  0
   -1.2922   27.2547   63.1097 N   0  0  0  0  0
    0.7017   26.0756   64.5376 N   0  0  0  0  0
    2.4247   30.3004   55.7600 O   0  0  0  0  0
    0.7807   29.2286   56.9293 O   0  0  0  0  0
    1.0340   30.0776   59.4419 O   0  0  0  0  0
    1.3709   28.2698   60.8498 O   0  0  0  0  0
   -0.6258   29.3265   61.3592 O   0  0  0  0  0
    2.8177   28.4809   63.0719 O   0  0  0  0  0
    3.4367   26.4059   63.8008 O   0  0  0  0  0
  1 14  1  0  0  0
  2 13  1  0  0  0
  3  4  1  0  0  0
  3  6  1  0  0  0
  4  5  1  0  0  0
  5 18  1  0  0  0
  6 20  1  0  0  0
  7 20  1  0  0  0
  7  8  1  0  0  0
  9 15  1  0  0  0
 10 16  1  0  0  0
 11 12  1  0  0  0
 11  8  1  0  0  0
 12 23  1  0  0  0
  1  2  2  0  0  0
  3 13  2  0  0  0
  4 14  2  0  0  0
  5 17  2  0  0  0
  6 19  2  0  0  0
  7 21  2  0  0  0
  8 15  2  0  0  0
  9 10  2  0  0  0
 11 16  2  0  0  0
 12 22  2  0  0  0
M  END
> <rmsd>
0.738888323

$$$$
PubChem-157232585 PubChem-57558339


 28 28  0  0  0  0  0  0  0  0999 V2000
    2.3796   26.4962   53.2243 C   0  0  0  0  0
    2.7611   27.6555   54.1203 C   0  0  0  0  0
    1.5555   30.5357   57.9907 C   0  0  0  0  0
    2.2314   30.3847   59.3443 C   0  0  0  0  0
    2.0359   29.6748   61.5503 C   0  0  0  0  0
    1.3496   28.6995   62.4843 C   0  0  0  0  0
    3.2971   26.1476   62.1323 C   0  0  0  0  0
    4.1944   26.8766   61.1531 C   0  0  0  0  0
    4.2689   27.6225   58.9483 C   0  0  0  0  0
    3.6905   27.4541   57.5589 C   0  0  0  0  0
    1.0905   24.8750   64.3251 C   0  0  0  0  0
    0.0072   23.9163   63.8785 C   0  0  0  0  0
    3.5595   27.8158   66.1684 C   0  0  0  0  0
    3.8374   27.8163   67.6567 C   0  0  0  0  0
    3.6805   31.1528   55.6208 C   0  0  0  0  0
    3.7943   32.4807   54.9028 C   0  0  0  0  0
    1.8220   27.7804   55.1449 O   0  0  0  0  0
    1.2782   29.2826   57.4356 O   0  0  0  0  0
    1.9756   28.7336   63.7313 O   0  0  0  0  0
    3.6573   26.4811   63.4389 O   0  0  0  0  0
    3.9399   28.6006   56.8033 O   0  0  0  0  0
    0.8544   26.1341   63.7719 O   0  0  0  0  0
    2.4345   27.0337   65.9054 O   0  0  0  0  0
    2.5271   30.4913   55.1961 O   0  0  0  0  0
    2.4065   29.0520   56.1477 Si  0  0  0  0  0
    2.2277   27.0899   64.1965 Si  0  0  0  0  0
    1.3596   29.6784   60.2666 N   0  0  0  0  0
    3.7907   26.5492   59.7989 N   0  0  0  0  0
  1  2  1  0  0  0
  2 17  1  0  0  0
  3 18  1  0  0  0
  3  4  1  0  0  0
  4 27  1  0  0  0
  5 27  1  0  0  0
  5  6  1  0  0  0
  6 19  1  0  0  0
  7 20  1  0  0  0
  7  8  1  0  0  0
  8 28  1  0  0  0
  9 28  1  0  0  0
  9 10  1  0  0  0
 10 21  1  0  0  0
 11 22  1  0  0  0
 11 12  1  0  0  0
 13 23  1  0  0  0
 13 14  1  0  0  0
 15 24  1  0  0  0
 15 16  1  0  0  0
 25 17  1  0  0  0
 25 18  1  0  0  0
 25 24  1  0  0  0
 25 21  1  0  0  0
 26 19  1  0  0  0
 26 20  1  0  0  0
 26 22  1  0  0  0
 26 23  1  0  0  0
M  END
> <rmsd>
0.778836727

$$$$
PubChem-3298152 MCULE-5667549958 MolPort-002-514-374


 17 16  0  0  0  0  0  0  0  0999 V2000
    4.0514   26.5025   63.9225 N   0  0  0  0  0
    3.1705   27.1182   62.9437 C   0  0  0  0  0
    3.1055   26.2631   61.6855 C   0  0  0  0  0
    4.3959   26.3659   60.8813 C   0  0  0  0  0
    4.5362   27.7361   60.2360 C   0  0  0  0  0
    3.5449   27.8898   59.0942 C   0  0  0  0  0
    3.5737   29.3101   58.5528 C   0  0  0  0  0
    2.9054   30.2560   59.4997 C   0  0  0  0  0
    1.8069   27.2912   63.5240 C   0  0  0  0  0
    1.5780   30.0698   59.8684 O   0  0  0  0  0
    3.5542   31.2241   59.9737 O   0  0  0  0  0
    1.1580   28.8594   57.0590 O   0  0  0  0  0
    3.5859   28.3374   55.8578 O   0  0  0  0  0
    2.8065   30.7756   56.3843 O   0  0  0  0  0
    1.2585   28.5627   63.6195 O   0  0  0  0  0
    1.1506   26.2949   63.9291 O   0  0  0  0  0
    2.7668   29.3639   56.9233 P   0  0  0  0  0
  2  1  1  0  0  0
  2  3  1  0  0  0
  2  9  1  0  0  0
  3  4  1  0  0  0
  4  5  1  0  0  0
  5  6  1  0  0  0
  7  6  1  0  0  0
  7  8  1  0  0  0
  7 17  1  0  0  0
  8 10  1  0  0  0
  9 15  1  0  0  0
 17 12  1  0  0  0
 17 13  1  0  0  0
  8 11  2  0  0  0
  9 16  2  0  0  0
 17 14  2  0  0  0
M  END
> <rmsd>
0.745864332

$$$$
PubChem-101138046


 21 22  0  0  0  0  0  0  0  0999 V2000
    5.9609   25.2287   62.2304 C   0  0  0  0  0
    2.8567   26.6834   63.4319 C   0  0  0  0  0
    1.7973   26.2641   64.3795 C   0  0  0  0  0
    1.8986   25.1024   65.1473 C   0  0  0  0  0
   -0.1992   26.4274   65.4437 C   0  0  0  0  0
    2.7714   27.9975   62.7402 C   0  0  0  0  0
    3.3965   29.4814   60.7865 C   0  0  0  0  0
    4.1905   29.3965   59.5971 C   0  0  0  0  0
    2.1782   29.4915   59.9193 C   0  0  0  0  0
    4.9129   26.1651   62.3986 O   0  0  0  0  0
    2.0653   28.9213   63.2285 O   0  0  0  0  0
    0.9375   29.5492   60.1220 O   0  0  0  0  0
    3.9992   28.7636   56.3525 O   0  0  0  0  0
    1.6022   28.4406   56.7298 O   0  0  0  0  0
    2.4815   30.8738   56.4319 O   0  0  0  0  0
    3.8562   25.8734   63.2310 N   0  0  0  0  0
    0.6470   26.9769   64.5470 N   0  0  0  0  0
    3.4756   28.2238   61.5153 N   0  0  0  0  0
    3.0380   29.3991   58.7257 N   0  0  0  0  0
    0.4826   25.0205   66.0475 S   0  0  0  0  0
    2.7781   29.3292   57.0205 S   0  0  0  0  0
  1 10  1  0  0  0
  2  3  1  0  0  0
  2  6  1  0  0  0
  3 17  1  0  0  0
  4 20  1  0  0  0
  5 20  1  0  0  0
  6 18  1  0  0  0
  7 18  1  0  0  0
  7  8  1  0  0  0
  7  9  1  0  0  0
  8 19  1  0  0  0
 10 16  1  0  0  0
 19  9  1  0  0  0
 21 19  1  0  0  0
 21 15  1  0  0  0
  2 16  2  0  0  0
  3  4  2  0  0  0
  5 17  2  0  0  0
  6 11  2  0  0  0
  9 12  2  0  0  0
 21 13  2  0  0  0
 21 14  2  0  0  0
M  END
> <rmsd>
0.700901031

$$$$
PubChem-70465362


 27 29  0  0  0  0  0  0  0  0999 V2000
   -1.9877   29.4047   57.7161 C   0  0  0  0  0
   -1.5047   29.0295   56.3226 C   0  0  0  0  0
    0.0127   29.1624   56.2807 C   0  0  0  0  0
    0.2735   28.6706   58.5202 C   0  0  0  0  0
   -1.2381   28.5870   58.7635 C   0  0  0  0  0
    1.8920   29.7385   59.6141 C   0  0  0  0  0
    3.0953   30.4492   59.0068 C   0  0  0  0  0
    3.9157   28.6182   57.4701 C   0  0  0  0  0
    3.7302   29.5521   55.5708 C   0  0  0  0  0
    3.3311   30.4310   56.5138 C   0  0  0  0  0
    2.8374   32.0373   54.8985 C   0  0  0  0  0
    3.6877   29.9095   54.2307 C   0  0  0  0  0
    1.6309   30.2747   61.0119 C   0  0  0  0  0
    1.9039   29.1427   62.8868 C   0  0  0  0  0
    0.6108   28.2757   57.2020 O   0  0  0  0  0
    0.7643   29.9510   58.8159 O   0  0  0  0  0
    2.6121   29.8137   61.8912 O   0  0  0  0  0
    2.8008   28.5219   63.7588 O   0  0  0  0  0
    3.4908   26.0915   64.4408 O   0  0  0  0  0
    0.9348   26.4953   64.0710 O   0  0  0  0  0
    2.7163   26.4000   61.9640 O   0  0  0  0  0
    3.4352   29.8645   57.7178 N   0  0  0  0  0
    4.1098   28.3918   56.1394 N   0  0  0  0  0
    2.8802   31.6737   56.2162 N   0  0  0  0  0
    3.2359   31.1606   53.9202 N   0  0  0  0  0
    4.0803   29.0015   53.2064 N   0  0  0  0  0
    2.5144   26.8601   63.5804 P   0  0  0  0  0
  1  2  1  0  0  0
  2  3  1  0  0  0
  3 15  1  0  0  0
  4 15  1  0  0  0
  4  5  1  0  0  0
  4 16  1  0  0  0
  5  1  1  0  0  0
  6 16  1  0  0  0
  6  7  1  0  0  0
  6 13  1  0  0  0
  7 22  1  0  0  0
  9 23  1  0  0  0
 10 24  1  0  0  0
 10 22  1  0  0  0
 11 25  1  0  0  0
 12 26  1  0  0  0
 12  9  1  0  0  0
 13 17  1  0  0  0
 14 17  1  0  0  0
 14 18  1  0  0  0
 22  8  1  0  0  0
 27 18  1  0  0  0
 27 20  1  0  0  0
 27 21  1  0  0  0
  8 23  2  0  0  0
  9 10  2  0  0  0
 11 24  2  0  0  0
 12 25  2  0  0  0
 27 19  2  0  0  0
M  END
> <rmsd>
0.699386954

$$$$
PubChem-59010995


 19 19  0  0  0  0  0  0  0  0999 V2000
    0.3242   24.3911   60.4964 C   0  0  0  0  0
    0.4563   26.5866   60.2511 C   0  0  0  0  0
   -0.6408   27.4042   59.5734 C   0  0  0  0  0
   -0.0497   28.6359   58.8783 C   0  0  0  0  0
    1.8198   28.6566   60.2408 C   0  0  0  0  0
    1.3297   27.4999   61.1078 C   0  0  0  0  0
    0.6875   28.2765   57.5896 C   0  0  0  0  0
   -0.1241   25.5943   61.0437 O   0  0  0  0  0
    0.7319   29.4205   59.7635 O   0  0  0  0  0
    2.4296   26.7860   61.5923 O   0  0  0  0  0
    3.6297   26.3414   63.8523 O   0  0  0  0  0
    1.1819   26.3122   63.8418 O   0  0  0  0  0
    2.3925   28.6121   63.6633 O   0  0  0  0  0
    1.0460   29.4416   56.9068 O   0  0  0  0  0
    3.5582   28.7943   57.2604 O   0  0  0  0  0
    2.4243   27.9633   55.2429 O   0  0  0  0  0
    3.0492   30.4771   55.3549 O   0  0  0  0  0
    2.4013   26.9782   63.2676 S   0  0  0  0  0
    2.5421   29.1173   56.1998 S   0  0  0  0  0
  1  8  1  0  0  0
  2  8  1  0  0  0
  2  3  1  0  0  0
  3  4  1  0  0  0
  4  9  1  0  0  0
  4  7  1  0  0  0
  5  9  1  0  0  0
  5  6  1  0  0  0
  6 10  1  0  0  0
  6  2  1  0  0  0
  7 14  1  0  0  0
 18 10  1  0  0  0
 18 13  1  0  0  0
 19 14  1  0  0  0
 19 17  1  0  0  0
 18 11  2  0  0  0
 18 12  2  0  0  0
 19 15  2  0  0  0
 19 16  2  0  0  0
M  CHG  2  13  -1  17  -1
M  END
> <rmsd>
0.775363266

$$$$
PubChem-129829725


 21 21  0  0  0  0  0  0  0  0999 V2000
   -1.3829   29.7649   59.0981 C   0  0  0  0  0
    0.7889   29.3565   59.0232 C   0  0  0  0  0
    1.7224   29.4575   57.8100 C   0  0  0  0  0
    2.7271   28.3033   57.8611 C   0  0  0  0  0
    3.3544   28.1695   59.2498 C   0  0  0  0  0
    2.2534   28.2249   60.3158 C   0  0  0  0  0
    2.8619   28.1251   61.7049 C   0  0  0  0  0
    2.1874   25.1655   62.4745 C   0  0  0  0  0
    0.3107   30.7880   54.2855 C   0  0  0  0  0
   -0.1424   30.3963   59.0012 O   0  0  0  0  0
    1.5438   29.4345   60.2066 O   0  0  0  0  0
    1.8487   27.9883   62.6578 O   0  0  0  0  0
    1.1993   26.4162   64.6183 O   0  0  0  0  0
    3.5824   26.7285   64.1626 O   0  0  0  0  0
    4.0372   26.9539   59.3308 O   0  0  0  0  0
    3.7283   28.5009   56.9095 O   0  0  0  0  0
    0.9767   29.3745   56.6280 O   0  0  0  0  0
    0.8031   31.9923   56.6195 O   0  0  0  0  0
    2.7070   30.9593   55.4563 O   0  0  0  0  0
    2.2228   26.5961   63.5336 S   0  0  0  0  0
    1.2488   30.8174   55.7939 S   0  0  0  0  0
  1 10  1  0  0  0
  2 10  1  0  0  0
  2  3  1  0  0  0
  2 11  1  0  0  0
  3  4  1  0  0  0
  3 17  1  0  0  0
  4  5  1  0  0  0
  4 16  1  0  0  0
  5  6  1  0  0  0
  5 15  1  0  0  0
  6 11  1  0  0  0
  6  7  1  0  0  0
  7 12  1  0  0  0
 20 12  1  0  0  0
 20  8  1  0  0  0
 21 17  1  0  0  0
 21  9  1  0  0  0
 20 13  2  0  0  0
 20 14  2  0  0  0
 21 18  2  0  0  0
 21 19  2  0  0  0
M  END
> <rmsd>
0.76021558

$$$$
PubChem-71488929


 32 35  0  0  0  0  0  0  0  0999 V2000
    7.2840   25.9159   48.1479 C   0  0  0  0  0
    7.7803   26.4458   49.3574 C   0  0  0  0  0
    6.9090   26.7198   50.4262 C   0  0  0  0  0
    5.5483   26.4532   50.2459 C   0  0  0  0  0
    5.0738   25.9361   49.0709 C   0  0  0  0  0
    5.9117   25.6527   47.9947 C   0  0  0  0  0
    3.7109   25.7660   49.1866 C   0  0  0  0  0
    3.4143   26.2058   50.4782 C   0  0  0  0  0
    4.5783   27.1232   52.4721 C   0  0  0  0  0
    5.7726   27.6004   53.0324 C   0  0  0  0  0
    5.8106   28.0701   54.3483 C   0  0  0  0  0
    4.6451   28.0729   55.1283 C   0  0  0  0  0
    3.4479   27.5982   54.5724 C   0  0  0  0  0
    3.4153   27.1296   53.2576 C   0  0  0  0  0
    3.5546   28.6131   57.2918 C   0  0  0  0  0
    2.9576   30.0267   57.2409 C   0  0  0  0  0
    1.7204   30.0922   58.1419 C   0  0  0  0  0
    2.0426   29.5023   59.5208 C   0  0  0  0  0
    2.7495   28.1442   59.3564 C   0  0  0  0  0
    3.1099   27.5533   60.7093 C   0  0  0  0  0
    4.5346   26.6251   51.1190 N   0  0  0  0  0
    4.6999   28.5314   56.4502 O   0  0  0  0  0
    3.9324   28.3141   58.6132 O   0  0  0  0  0
    1.9975   26.9214   61.2698 O   0  0  0  0  0
    1.0338   26.4106   63.6463 O   0  0  0  0  0
    3.6394   26.5226   63.4728 O   0  0  0  0  0
    2.0648   28.7911   63.3145 O   0  0  0  0  0
    0.8700   29.3703   60.2695 O   0  0  0  0  0
    0.6574   29.3966   57.5546 O   0  0  0  0  0
    2.6219   30.3786   55.9317 O   0  0  0  0  0
    2.1551   27.1415   62.9430 P   0  0  0  0  0
    7.3349   28.6402   55.0057 Cl  0  0  0  0  0
  2  3  1  0  0  0
  4  5  1  0  0  0
  5  7  1  0  0  0
  6  1  1  0  0  0
  8 21  1  0  0  0
 10 11  1  0  0  0
 11 32  1  0  0  0
 12 13  1  0  0  0
 12 22  1  0  0  0
 14  9  1  0  0  0
 15 22  1  0  0  0
 15 16  1  0  0  0
 15 23  1  0  0  0
 16 17  1  0  0  0
 16 30  1  0  0  0
 17 18  1  0  0  0
 17 29  1  0  0  0
 18 19  1  0  0  0
 18 28  1  0  0  0
 19 23  1  0  0  0
 19 20  1  0  0  0
 20 24  1  0  0  0
 21  9  1  0  0  0
 21  4  1  0  0  0
 31 24  1  0  0  0
 31 26  1  0  0  0
 31 27  1  0  0  0
  1  2  2  0  0  0
  3  4  2  0  0  0
  5  6  2  0  0  0
  7  8  2  0  0  0
  9 10  2  0  0  0
 11 12  2  0  0  0
 13 14  2  0  0  0
 31 25  2  0  0  0
M  END
> <rmsd>
0.855333805

$$$$
PubChem-23298066


 25 26  0  0  0  0  0  0  0  0999 V2000
    0.6912   31.4621   58.3668 C   0  0  0  0  0
    1.8465   30.5098   58.6090 C   0  0  0  0  0
    1.9717   29.8417   60.8537 C   0  0  0  0  0
    3.1386   28.9721   61.2005 C   0  0  0  0  0
    4.3196   29.0725   60.4547 C   0  0  0  0  0
    5.4331   28.2763   60.7575 C   0  0  0  0  0
    5.3612   27.3723   61.8275 C   0  0  0  0  0
    4.1920   27.2674   62.5831 C   0  0  0  0  0
    3.0744   28.0689   62.2739 C   0  0  0  0  0
    1.8775   27.0706   64.0661 C   0  0  0  0  0
    2.9903   26.2758   64.3705 C   0  0  0  0  0
    4.0289   24.5464   65.7841 C   0  0  0  0  0
   -0.4411   27.7392   64.5602 C   0  0  0  0  0
    1.4408   29.4768   59.5485 N   0  0  0  0  0
    1.9471   27.9471   63.0254 N   0  0  0  0  0
    4.1214   26.3942   63.6202 N   0  0  0  0  0
    6.6307   28.3881   59.9771 N   0  0  0  0  0
    2.9296   25.3741   65.4350 O   0  0  0  0  0
    0.7131   26.9573   64.8284 O   0  0  0  0  0
    7.6282   27.6851   60.2413 O   0  0  0  0  0
    6.6927   29.2708   58.9231 O   0  0  0  0  0
    3.5058   28.8063   57.2795 O   0  0  0  0  0
    2.8134   30.9459   55.9471 O   0  0  0  0  0
    1.0463   28.8726   56.3932 O   0  0  0  0  0
    2.3444   29.7432   57.0396 P   0  0  0  0  0
  2  1  1  0  0  0
  2 14  1  0  0  0
  2 25  1  0  0  0
  3 14  1  0  0  0
  3  4  1  0  0  0
  5  6  1  0  0  0
  6 17  1  0  0  0
  7  8  1  0  0  0
  8 16  1  0  0  0
  9 15  1  0  0  0
  9  4  1  0  0  0
 10 11  1  0  0  0
 10 19  1  0  0  0
 11 18  1  0  0  0
 12 18  1  0  0  0
 13 19  1  0  0  0
 17 21  1  0  0  0
 25 23  1  0  0  0
 25 24  1  0  0  0
  4  5  2  0  0  0
  6  7  2  0  0  0
  8  9  2  0  0  0
 10 15  2  0  0  0
 11 16  2  0  0  0
 17 20  2  0  0  0
 25 22  2  0  0  0
M  CHG  2  17   1  21  -1
M  END
> <rmsd>
0.586749613

$$$$
PubChem-16760249


 30 34  0  0  0  0  0  0  0  0999 V2000
    3.3298   27.5347   56.8181 C   0  0  0  0  0
    2.7762   28.0009   58.1675 C   0  0  0  0  0
    1.8322   29.1959   58.0118 C   0  0  0  0  0
    0.8202   28.9725   59.0938 C   0  0  0  0  0
    1.1354   27.5749   59.6333 C   0  0  0  0  0
    2.7701   28.0664   61.5125 C   0  0  0  0  0
    1.7369   27.2574   63.1874 C   0  0  0  0  0
    0.9738   27.0755   62.0858 C   0  0  0  0  0
   -0.7448   26.1395   63.3505 C   0  0  0  0  0
    1.2611   26.8562   64.4373 C   0  0  0  0  0
    3.4181   27.0017   65.7965 C   0  0  0  0  0
    4.0523   27.5241   67.0195 C   0  0  0  0  0
    5.4444   27.4578   67.1817 C   0  0  0  0  0
    6.0454   27.9556   68.3416 C   0  0  0  0  0
    5.2592   28.5240   69.3475 C   0  0  0  0  0
    3.8721   28.5946   69.1937 C   0  0  0  0  0
    3.2710   28.0967   68.0338 C   0  0  0  0  0
    2.0860   26.9559   58.8005 O   0  0  0  0  0
    4.1274   26.4684   64.9002 O   0  0  0  0  0
    0.9380   29.9640   60.0714 O   0  0  0  0  0
    1.1747   29.1964   56.7677 O   0  0  0  0  0
    2.6793   30.9419   55.4969 O   0  0  0  0  0
    3.7839   28.6251   56.0614 O   0  0  0  0  0
    1.8475   28.8924   54.0961 O   0  0  0  0  0
    1.6030   27.5763   61.0195 N   0  0  0  0  0
    2.8787   27.8927   62.8595 N   0  0  0  0  0
   -0.2627   26.5245   62.1313 N   0  0  0  0  0
    0.0079   26.3131   64.4840 N   0  0  0  0  0
    1.9923   27.0516   65.6546 N   0  0  0  0  0
    2.3798   29.4634   55.5960 P   0  0  0  0  0
  1 23  1  0  0  0
  2  1  1  0  0  0
  2  3  1  0  0  0
  2 18  1  0  0  0
  3  4  1  0  0  0
  3 21  1  0  0  0
  4  5  1  0  0  0
  4 20  1  0  0  0
  5 18  1  0  0  0
  5 25  1  0  0  0
  7 26  1  0  0  0
  8 27  1  0  0  0
  8 25  1  0  0  0
  9 28  1  0  0  0
 10 29  1  0  0  0
 10  7  1  0  0  0
 11 12  1  0  0  0
 13 14  1  0  0  0
 15 16  1  0  0  0
 17 12  1  0  0  0
 25  6  1  0  0  0
 29 11  1  0  0  0
 30 21  1  0  0  0
 30 23  1  0  0  0
 30 24  1  0  0  0
  6 26  2  0  0  0
  7  8  2  0  0  0
  9 27  2  0  0  0
 10 28  2  0  0  0
 11 19  2  0  0  0
 12 13  2  0  0  0
 14 15  2  0  0  0
 16 17  2  0  0  0
 30 22  2  0  0  0
M  END
> <rmsd>
0.738582253

$$$$
PubChem-129780241


 23 23  0  0  0  0  0  0  0  0999 V2000
   -0.3180   29.9082   62.6629 C   0  0  0  0  0
    0.8187   30.8963   62.4162 C   0  0  0  0  0
    0.2499   32.0151   61.6170 C   0  0  0  0  0
    1.0113   32.3946   60.4219 C   0  0  0  0  0
    2.3401   32.2306   60.4855 C   0  0  0  0  0
    2.7543   30.8333   60.7828 C   0  0  0  0  0
    1.9389   30.1523   61.8084 C   0  0  0  0  0
    2.7012   29.3803   62.8096 C   0  0  0  0  0
    4.2464   30.8080   61.0863 C   0  0  0  0  0
    2.5766   30.0816   59.5006 C   0  0  0  0  0
    1.1808   31.4354   63.7967 C   0  0  0  0  0
    3.5031   29.8959   63.6346 O   0  0  0  0  0
    2.3214   28.2093   62.9474 O   0  0  0  0  0
    3.5574   26.1496   64.7558 O   0  0  0  0  0
    0.7111   26.5357   64.8363 O   0  0  0  0  0
    2.4587   28.5863   65.9794 O   0  0  0  0  0
    1.5686   29.3347   59.3088 O   0  0  0  0  0
    3.5906   30.5154   58.5690 O   0  0  0  0  0
    3.7258   28.9158   56.0192 O   0  0  0  0  0
    1.2446   29.0437   57.0332 O   0  0  0  0  0
    2.4585   31.2146   55.7397 O   0  0  0  0  0
    2.2554   27.3380   64.6565 Cl  0  0  0  0  0
    2.7444   29.8706   56.7210 Cl  0  0  0  0  0
  1  2  1  0  0  0
  2  3  1  0  0  0
  2 11  1  0  0  0
  3  4  1  0  0  0
  6  5  1  0  0  0
  6  7  1  0  0  0
  6  9  1  0  0  0
  6 10  1  0  0  0
  7  8  1  0  0  0
  7  2  1  0  0  0
  8 13  1  0  0  0
 10 18  1  0  0  0
 22 13  1  0  0  0
 22 14  1  0  0  0
 22 15  1  0  0  0
 22 16  1  0  0  0
 23 18  1  0  0  0
 23 19  1  0  0  0
 23 20  1  0  0  0
 23 21  1  0  0  0
  4  5  2  0  0  0
  8 12  2  0  0  0
 10 17  2  0  0  0
M  CHG  8  22   3  14  -1  15  -1  16  -1  23   3  19  -1  20  -1  21  -1
M  END
> <rmsd>
0.62799865

$$$$
PubChem-140519551 PubChem-161828480


 18 18  0  0  0  0  0  0  0  0999 V2000
    1.5082   27.6085   59.6226 C   0  0  0  0  0
    1.5298   28.1520   58.1939 C   0  0  0  0  0
    1.9474   29.6280   58.1958 C   0  0  0  0  0
    1.1342   30.3947   59.2415 C   0  0  0  0  0
    0.7511   28.5816   60.5356 C   0  0  0  0  0
    0.6975   28.0453   61.9580 C   0  0  0  0  0
    1.3646   29.8490   60.5175 O   0  0  0  0  0
    1.9826   27.9720   62.5058 O   0  0  0  0  0
    1.0478   26.7057   64.5926 O   0  0  0  0  0
    3.3876   26.3493   63.9662 O   0  0  0  0  0
    1.5591   25.2452   62.4960 O   0  0  0  0  0
    1.7613   30.1949   56.9311 O   0  0  0  0  0
    3.8248   31.7593   57.2933 O   0  0  0  0  0
    3.1961   31.1747   55.0004 O   0  0  0  0  0
    4.3447   29.3518   56.4432 O   0  0  0  0  0
    0.2670   27.9985   57.6147 O   0  0  0  0  0
    1.9990   26.5676   63.4365 S   0  0  0  0  0
    3.2947   30.6644   56.4097 S   0  0  0  0  0
  1  2  1  0  0  0
  2  3  1  0  0  0
  2 16  1  0  0  0
  3  4  1  0  0  0
  3 12  1  0  0  0
  4  7  1  0  0  0
  5  7  1  0  0  0
  5  6  1  0  0  0
  5  1  1  0  0  0
  6  8  1  0  0  0
 17  8  1  0  0  0
 17 11  1  0  0  0
 18 12  1  0  0  0
 18 15  1  0  0  0
 17  9  2  0  0  0
 17 10  2  0  0  0
 18 13  2  0  0  0
 18 14  2  0  0  0
M  CHG  2  11  -1  15  -1
M  END
> <rmsd>
0.815106928

$$$$
PubChem-164784790


 17 16  0  0  0  0  0  0  0  0999 V2000
    3.1825   32.8757   55.5651 C   0  0  0  0  0
    3.1656   31.8720   56.4275 C   0  0  0  0  0
    1.8281   28.9856   59.7268 C   0  0  0  0  0
    2.3980   29.3089   61.0984 C   0  0  0  0  0
    3.9186   29.3668   61.0422 C   0  0  0  0  0
    1.9689   28.2253   62.0693 C   0  0  0  0  0
    2.2909   30.8100   56.2397 O   0  0  0  0  0
    3.6190   28.8350   57.3664 O   0  0  0  0  0
    1.0851   28.3944   56.8720 O   0  0  0  0  0
    1.8999   30.1079   58.8980 O   0  0  0  0  0
    2.2564   28.6159   63.3796 O   0  0  0  0  0
    0.9715   26.5129   64.2971 O   0  0  0  0  0
    3.4636   26.1239   63.5888 O   0  0  0  0  0
    2.7976   27.5365   65.8590 O   0  0  0  0  0
    2.2643   29.5084   57.3538 P   0  0  0  0  0
    2.3300   27.1773   64.2744 P   0  0  0  0  0
    4.3524   30.6307   60.4726 N   0  0  0  0  0
  2  7  1  0  0  0
  3 10  1  0  0  0
  3  4  1  0  0  0
  4  5  1  0  0  0
  4  6  1  0  0  0
  5 17  1  0  0  0
  6 11  1  0  0  0
 15  7  1  0  0  0
 15  9  1  0  0  0
 15 10  1  0  0  0
 16 11  1  0  0  0
 16 13  1  0  0  0
 16 14  1  0  0  0
  1  2  2  0  0  0
 15  8  2  0  0  0
 16 12  2  0  0  0
M  END
> <rmsd>
0.726798713

$$$$
PubChem-163260034 PubChem-164082140


 35 39  0  0  0  0  0  0  0  0999 V2000
    3.2178   26.1273   56.7499 C   0  0  0  0  0
    4.1298   27.1516   57.3948 C   0  0  0  0  0
    3.9666   28.2666   59.3242 C   0  0  0  0  0
    2.7440   28.3360   60.2078 C   0  0  0  0  0
    2.2759   29.7556   58.5151 C   0  0  0  0  0
    3.6652   29.1842   58.2032 C   0  0  0  0  0
    1.2043   29.1727   57.6793 C   0  0  0  0  0
    2.3038   31.2474   58.3027 C   0  0  0  0  0
    2.0818   32.2187   59.2777 C   0  0  0  0  0
    2.2077   33.4644   58.6527 C   0  0  0  0  0
    2.4999   33.1750   57.3330 C   0  0  0  0  0
    3.0472   32.1284   54.8837 C   0  0  0  0  0
    2.7271   34.0348   56.2646 C   0  0  0  0  0
    3.1665   28.4084   61.6640 C   0  0  0  0  0
    2.5976   24.1713   62.2988 C   0  0  0  0  0
    2.6681   23.6960   63.6191 C   0  0  0  0  0
    2.8649   22.3364   63.8732 C   0  0  0  0  0
    2.9933   21.4395   62.8105 C   0  0  0  0  0
    2.9248   21.9026   61.4944 C   0  0  0  0  0
    2.7277   23.2628   61.2361 C   0  0  0  0  0
    5.5454   26.9195   56.8960 C   0  0  0  0  0
    4.0896   26.9850   58.7906 O   0  0  0  0  0
    1.9907   29.4736   59.8658 O   0  0  0  0  0
    3.7052   28.4389   57.0216 O   0  0  0  0  0
    2.0510   28.2579   62.4912 O   0  0  0  0  0
    1.0302   26.4507   64.0813 O   0  0  0  0  0
    3.6248   26.7576   64.2074 O   0  0  0  0  0
    2.4017   25.5289   62.0176 O   0  0  0  0  0
    0.3658   28.7159   57.0254 N   0  0  0  0  0
    2.5555   31.8569   57.1336 N   0  0  0  0  0
    2.8202   31.3085   55.9491 N   0  0  0  0  0
    2.9992   33.4846   55.0478 N   0  0  0  0  0
    2.6795   35.4488   56.4246 N   0  0  0  0  0
    2.2438   26.7438   63.2292 P   0  0  0  0  0
    2.6482   23.8111   59.5713 Cl  0  0  0  0  0
  1  2  1  0  0  0
  2 22  1  0  0  0
  2 21  1  0  0  0
  2 24  1  0  0  0
  3 22  1  0  0  0
  3  4  1  0  0  0
  4 23  1  0  0  0
  4 14  1  0  0  0
  5 23  1  0  0  0
  5  6  1  0  0  0
  5  7  1  0  0  0
  5  8  1  0  0  0
  6 24  1  0  0  0
  6  3  1  0  0  0
  9 10  1  0  0  0
 11 30  1  0  0  0
 12 32  1  0  0  0
 13 33  1  0  0  0
 13 11  1  0  0  0
 14 25  1  0  0  0
 15 28  1  0  0  0
 16 17  1  0  0  0
 18 19  1  0  0  0
 20 35  1  0  0  0
 20 15  1  0  0  0
 30 31  1  0  0  0
 30  8  1  0  0  0
 34 25  1  0  0  0
 34 27  1  0  0  0
 34 28  1  0  0  0
  8  9  2  0  0  0
 10 11  2  0  0  0
 12 31  2  0  0  0
 13 32  2  0  0  0
 15 16  2  0  0  0
 17 18  2  0  0  0
 19 20  2  0  0  0
 34 26  2  0  0  0
  7 29  3  0  0  0
M  END
> <rmsd>
0.715330064

$$$$
PubChem-53950312


 17 16  0  0  0  0  0  0  0  0999 V2000
    3.2254   24.6599   60.9167 C   0  0  0  0  0
    3.5300   25.4981   61.9016 C   0  0  0  0  0
    3.4837   26.9701   61.6424 C   0  0  0  0  0
    2.0543   27.5018   61.7248 C   0  0  0  0  0
    1.9408   28.8317   60.9968 C   0  0  0  0  0
    1.9657   28.6144   59.4959 C   0  0  0  0  0
    1.6231   27.6597   63.1482 C   0  0  0  0  0
    3.8824   24.9912   63.2390 C   0  0  0  0  0
    1.8772   29.8458   58.8454 O   0  0  0  0  0
    0.9796   28.6506   56.6819 O   0  0  0  0  0
    2.1526   30.9585   56.3370 O   0  0  0  0  0
    3.5819   28.6923   56.9807 O   0  0  0  0  0
    2.2319   28.4470   63.9211 O   0  0  0  0  0
    0.5428   26.9281   63.6221 O   0  0  0  0  0
    3.8841   23.7537   63.4775 O   0  0  0  0  0
    4.2218   25.8788   64.2530 O   0  0  0  0  0
    2.1140   29.5056   57.2010 P   0  0  0  0  0
  2  8  1  0  0  0
  3  2  1  0  0  0
  4  3  1  0  0  0
  4  5  1  0  0  0
  4  7  1  0  0  0
  5  6  1  0  0  0
  6  9  1  0  0  0
  7 14  1  0  0  0
  8 16  1  0  0  0
 17  9  1  0  0  0
 17 11  1  0  0  0
 17 12  1  0  0  0
  1  2  2  0  0  0
  7 13  2  0  0  0
  8 15  2  0  0  0
 17 10  2  0  0  0
M  END
> <rmsd>
0.710731149

$$$$
PubChem-89136751


 23 23  0  0  0  0  0  0  0  0999 V2000
    1.6901   31.2564   51.7186 B   0  0  0  0  0
    2.6316   30.5664   52.7915 C   0  0  0  0  0
    1.8399   30.2144   54.0220 C   0  0  0  0  0
    2.8593   30.3226   55.1069 C   0  0  0  0  0
    3.8435   31.3369   54.5473 C   0  0  0  0  0
    5.3086   31.0463   54.9193 C   0  0  0  0  0
    6.2088   32.1039   54.3069 C   0  0  0  0  0
    5.7455   29.6816   54.4126 C   0  0  0  0  0
    5.4916   31.0995   56.4250 C   0  0  0  0  0
    1.7694   28.9722   59.7163 C   0  0  0  0  0
    2.0683   29.4256   61.1291 C   0  0  0  0  0
    2.1437   28.2170   62.0373 C   0  0  0  0  0
    3.6785   31.4348   53.1480 O   0  0  0  0  0
    2.2686   30.8202   56.2721 O   0  0  0  0  0
    1.0951   28.5427   56.8382 O   0  0  0  0  0
    3.6425   28.6992   57.4335 O   0  0  0  0  0
    1.7178   30.0821   58.8705 O   0  0  0  0  0
    2.4336   28.6279   63.3386 O   0  0  0  0  0
    2.7082   27.5589   65.7090 O   0  0  0  0  0
    0.8683   26.5031   64.1855 O   0  0  0  0  0
    3.5631   26.1235   63.7021 O   0  0  0  0  0
    2.1535   29.5019   57.3376 P   0  0  0  0  0
    2.4014   27.2131   64.2705 P   0  0  0  0  0
  2  1  1  0  0  0
  2  3  1  0  0  0
  2 13  1  0  0  0
  3  4  1  0  0  0
  4  5  1  0  0  0
  4 14  1  0  0  0
  5 13  1  0  0  0
  5  6  1  0  0  0
  6  7  1  0  0  0
  6  8  1  0  0  0
  6  9  1  0  0  0
 10 17  1  0  0  0
 10 11  1  0  0  0
 11 12  1  0  0  0
 12 18  1  0  0  0
 22 14  1  0  0  0
 22 16  1  0  0  0
 22 17  1  0  0  0
 23 18  1  0  0  0
 23 20  1  0  0  0
 23 21  1  0  0  0
 22 15  2  0  0  0
 23 19  2  0  0  0
M  END
> <rmsd>
0.711519897

$$$$
PubChem-88449826


 18 18  0  0  0  0  0  0  0  0999 V2000
    1.4631   31.7254   58.8346 C   0  0  0  0  0
    2.4764   29.5531   58.8518 C   0  0  0  0  0
    2.5214   28.2049   59.5640 C   0  0  0  0  0
    2.6398   28.3825   61.0680 C   0  0  0  0  0
    1.5251   27.6245   61.7769 C   0  0  0  0  0
    0.2505   28.4584   61.8299 C   0  0  0  0  0
   -0.5186   28.3644   60.5227 C   0  0  0  0  0
    1.3463   30.3651   59.3364 N   0  0  0  0  0
   -0.7154   29.6990   59.9775 N   0  0  0  0  0
    0.1345   29.8286   58.8679 N   0  0  0  0  0
    2.0445   27.2311   63.4356 S   0  0  0  0  0
    2.4927   29.2913   57.0674 S   0  0  0  0  0
    2.2999   28.4955   64.2074 O   0  0  0  0  0
    0.9707   26.4361   64.1232 O   0  0  0  0  0
    3.4547   26.3203   63.3786 O   0  0  0  0  0
    3.7632   28.5825   56.6918 O   0  0  0  0  0
    1.3210   28.4454   56.6541 O   0  0  0  0  0
    2.4320   30.7581   56.2505 O   0  0  0  0  0
  1  8  1  0  0  0
  2  8  1  0  0  0
  2  3  1  0  0  0
  2 12  1  0  0  0
  3  4  1  0  0  0
  4  5  1  0  0  0
  5  6  1  0  0  0
  5 11  1  0  0  0
  6  7  1  0  0  0
  7  9  1  0  0  0
  9 10  1  0  0  0
 10  8  1  0  0  0
 11 15  1  0  0  0
 12 18  1  0  0  0
 11 13  2  0  0  0
 11 14  2  0  0  0
 12 16  2  0  0  0
 12 17  2  0  0  0
M  END
> <rmsd>
0.7069332

$$$$
PubChem-133046 PubChem-133047 PubChem-91985480 LN00160703 MCULE-4748108352 MCULE-5529397605 MolPort-019-930-811


 25 26  0  0  0  0  0  0  0  0999 V2000
    4.6306   26.6333   64.1707 C   0  0  0  0  0
    2.2777   27.0624   63.6154 C   0  0  0  0  0
    1.2900   28.5627   62.5712 C   0  0  0  0  0
    0.9816   29.7763   61.7631 C   0  0  0  0  0
    0.0138   28.8521   59.6675 C   0  0  0  0  0
    0.1948   28.5554   58.3075 C   0  0  0  0  0
    1.6811   28.6128   56.3246 C   0  0  0  0  0
    3.0664   29.1213   55.9456 C   0  0  0  0  0
    3.1420   30.6362   56.0491 C   0  0  0  0  0
    2.4973   32.7093   54.9766 C   0  0  0  0  0
    1.6455   33.2722   53.8579 C   0  0  0  0  0
    2.0176   33.3219   56.2864 C   0  0  0  0  0
    3.9445   33.1091   54.7156 C   0  0  0  0  0
   -0.8369   27.9274   57.5903 C   0  0  0  0  0
   -2.0384   27.5984   58.2218 C   0  0  0  0  0
   -2.2196   27.8939   59.5741 C   0  0  0  0  0
   -1.1989   28.5184   60.2941 C   0  0  0  0  0
    3.2578   26.2780   64.2216 O   0  0  0  0  0
    0.3885   27.7121   62.9966 O   0  0  0  0  0
    1.0509   29.4753   60.3730 O   0  0  0  0  0
    1.4038   28.8946   57.6923 O   0  0  0  0  0
    4.0277   28.5457   56.7763 O   0  0  0  0  0
    0.9675   26.7573   63.6580 N   0  0  0  0  0
    2.3455   31.2491   54.9869 N   0  0  0  0  0
    2.5349   28.1987   62.9319 N   0  0  0  0  0
  1 18  1  0  0  0
  2 18  1  0  0  0
  2 25  1  0  0  0
  3 19  1  0  0  0
  4  3  1  0  0  0
  4 20  1  0  0  0
  5 20  1  0  0  0
  6 21  1  0  0  0
  6 14  1  0  0  0
  7 21  1  0  0  0
  8  7  1  0  0  0
  8 22  1  0  0  0
  8  9  1  0  0  0
  9 24  1  0  0  0
 10 24  1  0  0  0
 10 11  1  0  0  0
 10 12  1  0  0  0
 10 13  1  0  0  0
 15 16  1  0  0  0
 17  5  1  0  0  0
 23 19  1  0  0  0
  2 23  2  0  0  0
  3 25  2  0  0  0
  5  6  2  0  0  0
 14 15  2  0  0  0
 16 17  2  0  0  0
M  END
> <rmsd>
0.800509334

$$$$
PubChem-153429722


 16 15  0  0  0  0  0  0  0  0999 V2000
    5.2268   29.1994   59.2623 C   0  0  0  0  0
    4.6081   29.7143   57.9784 C   0  0  0  0  0
    5.7037   29.9598   56.9607 C   0  0  0  0  0
    1.6505   29.0756   59.7203 C   0  0  0  0  0
    1.9913   29.4830   61.1377 C   0  0  0  0  0
    1.9270   28.2683   62.0380 C   0  0  0  0  0
    3.7104   28.7664   57.4795 O   0  0  0  0  0
    2.3047   30.6907   56.3704 O   0  0  0  0  0
    1.0418   28.4577   56.8361 O   0  0  0  0  0
    1.7566   30.1842   58.8795 O   0  0  0  0  0
    2.2548   28.6386   63.3432 O   0  0  0  0  0
    1.0246   26.5060   64.2672 O   0  0  0  0  0
    3.4942   26.1562   63.4660 O   0  0  0  0  0
    2.8935   27.5219   65.7826 O   0  0  0  0  0
    2.2109   29.5588   57.3693 P   0  0  0  0  0
    2.3747   27.1853   64.2089 P   0  0  0  0  0
  1  2  1  0  0  0
  2  3  1  0  0  0
  2  7  1  0  0  0
  4 10  1  0  0  0
  4  5  1  0  0  0
  5  6  1  0  0  0
  6 11  1  0  0  0
 15  7  1  0  0  0
 15  9  1  0  0  0
 15 10  1  0  0  0
 16 11  1  0  0  0
 16 13  1  0  0  0
 16 14  1  0  0  0
 15  8  2  0  0  0
 16 12  2  0  0  0
M  CHG  3   9  -1  13  -1  14  -1
M  END
> <rmsd>
0.769761682

$$$$
PubChem-58841791 PubChem-72440792


 25 24  0  0  0  0  0  0  0  0999 V2000
    8.2832   20.3928   55.4227 C   0  0  0  0  0
    8.0795   21.2160   56.2792 C   0  0  0  0  0
    7.8410   22.1803   57.2826 C   0  0  0  0  0
    7.6373   23.0035   58.1390 C   0  0  0  0  0
    7.3987   23.9677   59.1421 C   0  0  0  0  0
    7.1947   24.7909   59.9983 C   0  0  0  0  0
    6.9549   25.7554   61.0006 C   0  0  0  0  0
    6.7479   26.5796   61.8553 C   0  0  0  0  0
    6.1573   28.8380   62.4597 C   0  0  0  0  0
    4.7710   29.1704   62.9869 C   0  0  0  0  0
    3.7075   28.3491   62.2669 C   0  0  0  0  0
    3.4727   28.8450   60.8411 C   0  0  0  0  0
    2.8857   30.2498   60.8143 C   0  0  0  0  0
    2.6606   30.6929   59.3810 C   0  0  0  0  0
    6.5085   27.5135   62.8229 O   0  0  0  0  0
    1.6122   29.9629   58.8144 O   0  0  0  0  0
    2.2574   30.8336   56.4355 O   0  0  0  0  0
    1.0921   28.6878   56.6133 O   0  0  0  0  0
    3.5901   28.7696   57.3035 O   0  0  0  0  0
    2.5140   28.3640   62.9952 O   0  0  0  0  0
    1.0031   26.6974   64.2940 O   0  0  0  0  0
    1.9090   25.9691   62.1391 O   0  0  0  0  0
    3.5201   26.0834   64.1834 O   0  0  0  0  0
    2.1177   29.5796   57.2532 S   0  0  0  0  0
    2.1997   26.7544   63.3877 S   0  0  0  0  0
  2  3  1  0  0  0
  4  5  1  0  0  0
  6  7  1  0  0  0
  8 15  1  0  0  0
  9 15  1  0  0  0
  9 10  1  0  0  0
 10 11  1  0  0  0
 11 12  1  0  0  0
 11 20  1  0  0  0
 12 13  1  0  0  0
 13 14  1  0  0  0
 14 16  1  0  0  0
 24 16  1  0  0  0
 24 19  1  0  0  0
 25 20  1  0  0  0
 25 23  1  0  0  0
 24 17  2  0  0  0
 24 18  2  0  0  0
 25 21  2  0  0  0
 25 22  2  0  0  0
  1  2  3  0  0  0
  3  4  3  0  0  0
  5  6  3  0  0  0
  7  8  3  0  0  0
M  CHG  2  19  -1  23  -1
M  END
> <rmsd>
0.737392664

$$$$
PubChem-87326444 PubChem-87769868


 19 19  0  0  0  0  0  0  0  0999 V2000
    0.4052   25.4473   57.4215 C   0  0  0  0  0
    0.8501   25.8952   58.7729 C   0  0  0  0  0
    1.0399   27.2616   59.1095 C   0  0  0  0  0
    1.4835   27.5712   60.4061 C   0  0  0  0  0
    1.7322   26.5710   61.3474 C   0  0  0  0  0
    1.5384   25.2336   61.0046 C   0  0  0  0  0
    1.1010   24.8997   59.7232 C   0  0  0  0  0
    0.7897   28.3794   58.1500 C   0  0  0  0  0
    1.1867   29.8007   58.4454 C   0  0  0  0  0
    2.6821   29.9454   58.7037 C   0  0  0  0  0
    3.4656   29.7425   57.4513 C   0  0  0  0  0
    2.2840   26.9934   62.9565 S   0  0  0  0  0
    3.5837   26.2962   63.2429 O   0  0  0  0  0
    1.2528   26.5795   63.9679 O   0  0  0  0  0
    2.5194   28.6542   63.0575 O   0  0  0  0  0
    0.2169   28.1601   57.0502 O   0  0  0  0  0
    4.2825   28.7892   57.3713 O   0  0  0  0  0
    3.3037   30.6079   56.3770 O   0  0  0  0  0
    0.4318   30.3156   59.5748 N   0  0  0  0  0
  1  2  1  0  0  0
  3  4  1  0  0  0
  3  8  1  0  0  0
  5  6  1  0  0  0
  7  2  1  0  0  0
  9  8  1  0  0  0
  9 10  1  0  0  0
  9 19  1  0  0  0
 10 11  1  0  0  0
 11 18  1  0  0  0
 12  5  1  0  0  0
 12 15  1  0  0  0
  2  3  2  0  0  0
  4  5  2  0  0  0
  6  7  2  0  0  0
  8 16  2  0  0  0
 11 17  2  0  0  0
 12 13  2  0  0  0
 12 14  2  0  0  0
M  END
> <rmsd>
0.873559833

$$$$
PubChem-161882708 PubChem-60025136


 21 21  0  0  0  0  0  0  0  0999 V2000
    3.6061   30.0739   60.5619 C   0  0  0  0  0
    3.4333   29.0276   59.4530 C   0  0  0  0  0
    3.6520   29.6725   58.0509 C   0  0  0  0  0
    2.4562   30.5888   57.6633 C   0  0  0  0  0
    1.1161   29.8204   57.8474 C   0  0  0  0  0
    2.0095   28.3732   59.5501 C   0  0  0  0  0
    1.9242   27.0735   58.7399 C   0  0  0  0  0
    1.6901   27.9771   61.0007 C   0  0  0  0  0
   -0.0620   30.7607   57.6225 C   0  0  0  0  0
    2.4511   31.8744   58.5002 C   0  0  0  0  0
    4.9691   30.4538   58.0092 C   0  0  0  0  0
    0.9815   29.2828   59.1602 O   0  0  0  0  0
    2.5958   27.0325   61.4966 O   0  0  0  0  0
    3.4407   26.1639   63.8126 O   0  0  0  0  0
    0.9107   26.8037   63.6867 O   0  0  0  0  0
    2.9049   28.7173   63.6774 O   0  0  0  0  0
    0.9987   28.8117   56.8843 O   0  0  0  0  0
    2.5857   30.9662   56.3211 O   0  0  0  0  0
    3.7672   28.6535   57.0974 O   0  0  0  0  0
    4.4153   28.0494   59.6552 O   0  0  0  0  0
    2.4878   27.1536   63.1830 P   0  0  0  0  0
  2  1  1  0  0  0
  2  3  1  0  0  0
  2 20  1  0  0  0
  3  4  1  0  0  0
  3 11  1  0  0  0
  3 19  1  0  0  0
  4  5  1  0  0  0
  4 10  1  0  0  0
  4 18  1  0  0  0
  5 12  1  0  0  0
  5  9  1  0  0  0
  5 17  1  0  0  0
  6 12  1  0  0  0
  6  7  1  0  0  0
  6  8  1  0  0  0
  6  2  1  0  0  0
  8 13  1  0  0  0
 21 13  1  0  0  0
 21 15  1  0  0  0
 21 16  1  0  0  0
 21 14  2  0  0  0
M  CHG  2  15  -1  16  -1
M  END
> <rmsd>
0.714829981

$$$$
PubChem-160896756


 20 20  0  0  0  0  0  0  0  0999 V2000
    0.0247   31.1654   60.8560 C   0  0  0  0  0
    1.9683   29.6913   61.4034 C   0  0  0  0  0
    2.5987   29.0166   62.3811 C   0  0  0  0  0
    3.9346   28.3686   62.1297 C   0  0  0  0  0
    4.7830   29.2465   61.2227 C   0  0  0  0  0
    4.0749   29.4550   59.8888 C   0  0  0  0  0
    2.6182   29.8257   60.0625 C   0  0  0  0  0
    2.4286   30.3142   57.6748 C   0  0  0  0  0
    1.5382   31.2530   56.8775 C   0  0  0  0  0
    2.4903   28.9668   57.0239 C   0  0  0  0  0
    2.5281   28.0950   64.7536 C   0  0  0  0  0
    2.2656   26.6445   64.5352 C   0  0  0  0  0
    0.7102   30.2459   61.6938 O   0  0  0  0  0
    2.1547   31.5866   55.6711 O   0  0  0  0  0
    1.4501   28.2670   56.8989 O   0  0  0  0  0
    3.7056   28.4838   56.5585 O   0  0  0  0  0
    1.1226   26.1698   64.7624 O   0  0  0  0  0
    3.2755   25.8200   64.0582 O   0  0  0  0  0
    1.9122   30.1964   59.0348 N   0  0  0  0  0
    1.9684   28.8785   63.6608 N   0  0  0  0  0
  1 13  1  0  0  0
  2 13  1  0  0  0
  3 20  1  0  0  0
  4  3  1  0  0  0
  4  5  1  0  0  0
  5  6  1  0  0  0
  6  7  1  0  0  0
  7  2  1  0  0  0
  8 19  1  0  0  0
  8  9  1  0  0  0
  8 10  1  0  0  0
  9 14  1  0  0  0
 10 16  1  0  0  0
 11 20  1  0  0  0
 11 12  1  0  0  0
 12 18  1  0  0  0
  2  3  2  0  0  0
  7 19  2  0  0  0
 10 15  2  0  0  0
 12 17  2  0  0  0
M  END
> <rmsd>
0.802511692

$$$$
PubChem-70885147


 16 16  0  0  0  0  0  0  0  0999 V2000
    0.1572   29.6950   57.5501 C   0  0  0  0  0
    0.2339   30.2076   58.9977 C   0  0  0  0  0
    2.6005   30.0725   58.7192 C   0  0  0  0  0
    2.4972   29.0839   57.5483 C   0  0  0  0  0
    3.0747   29.6716   56.3031 C   0  0  0  0  0
    1.6734   30.7752   60.7620 C   0  0  0  0  0
    2.3971   30.0910   61.9101 C   0  0  0  0  0
    1.4962   29.0526   62.5524 C   0  0  0  0  0
    1.4972   29.8497   59.6518 N   0  0  0  0  0
    1.1204   28.6142   57.3226 N   0  0  0  0  0
    4.0864   29.1426   55.7737 O   0  0  0  0  0
    2.5081   30.8033   55.7296 O   0  0  0  0  0
    2.1929   28.3891   63.5610 O   0  0  0  0  0
    0.8313   26.4237   64.4813 O   0  0  0  0  0
    3.3507   26.1768   64.1211 O   0  0  0  0  0
    1.9735   26.7030   63.2044 P   0  0  0  0  0
  1  2  1  0  0  0
  1 10  1  0  0  0
  2  9  1  0  0  0
  3  9  1  0  0  0
  3  4  1  0  0  0
  4 10  1  0  0  0
  4  5  1  0  0  0
  5 12  1  0  0  0
  6  9  1  0  0  0
  6  7  1  0  0  0
  7  8  1  0  0  0
  8 13  1  0  0  0
 16 13  1  0  0  0
 16 14  1  0  0  0
 16 15  1  0  0  0
  5 11  2  0  0  0
M  END
> <rmsd>
0.534474432

$$$$
PubChem-11176383


 25 27  0  0  0  0  0  0  0  0999 V2000
    0.1030   24.0963   63.0955 C   0  0  0  0  0
   -0.9098   24.5468   63.9444 C   0  0  0  0  0
   -0.7862   25.8007   64.5476 C   0  0  0  0  0
    1.3098   26.1467   63.4834 C   0  0  0  0  0
    1.2212   24.8981   62.8606 C   0  0  0  0  0
    2.7614   27.6232   61.5025 C   0  0  0  0  0
    2.7882   28.3587   58.8502 C   0  0  0  0  0
    3.6629   27.3665   59.2940 C   0  0  0  0  0
    3.6487   26.9927   60.6337 C   0  0  0  0  0
    3.2777   30.5206   57.0216 C   0  0  0  0  0
    4.5115   30.9435   57.5239 C   0  0  0  0  0
    4.8679   32.2885   57.4139 C   0  0  0  0  0
    3.9937   33.1923   56.8079 C   0  0  0  0  0
    2.7689   32.7323   56.3190 C   0  0  0  0  0
    0.3107   26.5682   64.3065 N   0  0  0  0  0
    1.9260   28.5829   61.0251 N   0  0  0  0  0
    1.9334   28.9457   59.7401 N   0  0  0  0  0
    2.4387   31.4179   56.4351 N   0  0  0  0  0
    2.7017   27.1725   63.1957 S   0  0  0  0  0
    2.8085   28.8369   57.1558 S   0  0  0  0  0
    2.5977   28.4184   64.0308 O   0  0  0  0  0
    3.9552   26.4389   63.5832 O   0  0  0  0  0
    1.4376   28.6379   56.5729 O   0  0  0  0  0
    3.7864   27.9923   56.3878 O   0  0  0  0  0
    1.0635   29.9269   59.3229 O   0  0  0  0  0
  2  3  1  0  0  0
  4 15  1  0  0  0
  5  1  1  0  0  0
  7  8  1  0  0  0
  9  6  1  0  0  0
 10 18  1  0  0  0
 11 12  1  0  0  0
 13 14  1  0  0  0
 17 16  1  0  0  0
 17 25  1  0  0  0
 19  4  1  0  0  0
 19  6  1  0  0  0
 20  7  1  0  0  0
 20 10  1  0  0  0
  1  2  2  0  0  0
  3 15  2  0  0  0
  4  5  2  0  0  0
  6 16  2  0  0  0
  8  9  2  0  0  0
 10 11  2  0  0  0
 12 13  2  0  0  0
 14 18  2  0  0  0
 17  7  2  0  0  0
 19 21  2  0  0  0
 19 22  2  0  0  0
 20 23  2  0  0  0
 20 24  2  0  0  0
M  CHG  2  17   1  25  -1
M  END
> <rmsd>
0.681235492

$$$$
PubChem-154988330


 30 33  0  0  0  0  0  0  0  0999 V2000
    2.9420   23.2284   68.2719 C   0  0  0  0  0
    4.1353   23.6548   67.4183 C   0  0  0  0  0
    3.7303   23.7175   65.9482 C   0  0  0  0  0
    1.3829   24.2537   66.6055 C   0  0  0  0  0
    1.7751   24.1954   68.0793 C   0  0  0  0  0
    2.6134   25.7262   64.9324 C   0  0  0  0  0
    3.8649   27.1128   63.4307 C   0  0  0  0  0
    1.6509   27.6537   63.9125 C   0  0  0  0  0
    1.5278   26.5876   64.7356 C   0  0  0  0  0
   -0.3257   27.6386   64.7070 C   0  0  0  0  0
    0.1677   29.5437   63.1438 C   0  0  0  0  0
    0.8776   30.7347   63.7581 C   0  0  0  0  0
    1.4808   31.4442   62.5691 C   0  0  0  0  0
    0.9010   30.7128   61.3839 C   0  0  0  0  0
    1.9303   30.6476   60.2691 C   0  0  0  0  0
    1.6199   30.8379   58.0888 C   0  0  0  0  0
    2.5590   24.5774   65.7997 N   0  0  0  0  0
    3.7685   26.0255   64.2605 N   0  0  0  0  0
    2.7954   27.9420   63.2489 N   0  0  0  0  0
    0.2849   26.5504   65.2557 N   0  0  0  0  0
    0.4941   28.3257   63.8750 N   0  0  0  0  0
    0.5525   29.4185   61.7979 O   0  0  0  0  0
    1.3972   29.9799   59.1656 O   0  0  0  0  0
    1.2234   28.8042   56.3213 O   0  0  0  0  0
    3.7102   29.1813   57.0496 O   0  0  0  0  0
    2.4103   30.9180   55.3393 O   0  0  0  0  0
    1.1262   32.7954   62.5192 O   0  0  0  0  0
   -0.0555   31.5330   64.4257 O   0  0  0  0  0
    2.2213   29.8861   56.6660 P   0  0  0  0  0
    5.3683   27.4394   62.5970 Cl  0  0  0  0  0
  1  2  1  0  0  0
  2  3  1  0  0  0
  3 17  1  0  0  0
  4 17  1  0  0  0
  4  5  1  0  0  0
  5  1  1  0  0  0
  7 18  1  0  0  0
  7 30  1  0  0  0
  8 19  1  0  0  0
  9 20  1  0  0  0
  9  6  1  0  0  0
 10 21  1  0  0  0
 11 21  1  0  0  0
 11 12  1  0  0  0
 11 22  1  0  0  0
 12 13  1  0  0  0
 12 28  1  0  0  0
 13 14  1  0  0  0
 13 27  1  0  0  0
 14 22  1  0  0  0
 14 15  1  0  0  0
 15 23  1  0  0  0
 16 23  1  0  0  0
 16 29  1  0  0  0
 17  6  1  0  0  0
 21  8  1  0  0  0
 29 25  1  0  0  0
 29 26  1  0  0  0
  6 18  2  0  0  0
  7 19  2  0  0  0
  8  9  2  0  0  0
 10 20  2  0  0  0
 29 24  2  0  0  0
M  END
> <rmsd>
0.701436937

$$$$
PubChem-160862203 PubChem-89561997


 36 38  0  0  0  0  0  0  0  0999 V2000
   -7.0694   33.1957   55.2520 C   0  0  0  0  0
   -5.6337   33.3298   55.6634 C   0  0  0  0  0
   -4.8143   34.2956   55.0549 C   0  0  0  0  0
   -3.4647   34.4206   55.4371 C   0  0  0  0  0
   -2.9253   33.5737   56.4365 C   0  0  0  0  0
   -3.7585   32.6028   57.0425 C   0  0  0  0  0
   -5.1074   32.4862   56.6561 C   0  0  0  0  0
   -5.9888   31.4657   57.3135 C   0  0  0  0  0
   -3.2346   31.7191   58.1369 C   0  0  0  0  0
   -1.5008   33.6970   56.8432 C   0  0  0  0  0
    0.6099   32.6122   57.5094 C   0  0  0  0  0
    1.1486   31.2064   57.7108 C   0  0  0  0  0
    1.2730   30.4572   56.3782 C   0  0  0  0  0
    1.7543   29.0288   56.6393 C   0  0  0  0  0
    2.9389   28.9924   57.6135 C   0  0  0  0  0
    2.7335   29.9492   58.8000 C   0  0  0  0  0
    2.3421   29.6422   60.9652 C   0  0  0  0  0
    2.3662   28.3349   61.7333 C   0  0  0  0  0
    3.5279   27.4595   61.2489 C   0  0  0  0  0
    4.0874   26.5957   62.3812 C   0  0  0  0  0
    2.9848   26.1831   63.3558 C   0  0  0  0  0
    2.1670   27.4050   63.8197 C   0  0  0  0  0
    0.2693   27.6405   64.9394 C   0  0  0  0  0
   -2.5991   35.4282   54.7388 C   0  0  0  0  0
   -5.3793   35.1903   53.9916 C   0  0  0  0  0
   -0.9734   34.8371   56.9669 O   0  0  0  0  0
   -0.7468   32.5491   57.0931 O   0  0  0  0  0
    2.3921   31.2563   58.3737 O   0  0  0  0  0
    1.7881   29.4372   59.6996 O   0  0  0  0  0
    2.4777   28.5950   63.1132 O   0  0  0  0  0
    0.7972   27.1277   63.7535 O   0  0  0  0  0
    3.5401   25.5442   64.4649 O   0  0  0  0  0
    4.7043   25.4651   61.8447 O   0  0  0  0  0
    4.1160   29.3244   56.9415 O   0  0  0  0  0
    0.7028   28.2605   57.1430 O   0  0  0  0  0
    2.1674   31.1119   55.5273 O   0  0  0  0  0
  1  2  1  0  0  0
  3  4  1  0  0  0
  5  6  1  0  0  0
  5 10  1  0  0  0
  7  2  1  0  0  0
  8  7  1  0  0  0
  9  6  1  0  0  0
 10 27  1  0  0  0
 11 27  1  0  0  0
 12 11  1  0  0  0
 12 13  1  0  0  0
 12 28  1  0  0  0
 13 14  1  0  0  0
 13 36  1  0  0  0
 14 15  1  0  0  0
 14 35  1  0  0  0
 15 16  1  0  0  0
 15 34  1  0  0  0
 16 28  1  0  0  0
 16 29  1  0  0  0
 17 29  1  0  0  0
 18 17  1  0  0  0
 18 19  1  0  0  0
 18 30  1  0  0  0
 19 20  1  0  0  0
 20 21  1  0  0  0
 20 33  1  0  0  0
 21 22  1  0  0  0
 21 32  1  0  0  0
 22 30  1  0  0  0
 22 31  1  0  0  0
 23 31  1  0  0  0
 24  4  1  0  0  0
 25  3  1  0  0  0
  2  3  2  0  0  0
  4  5  2  0  0  0
  6  7  2  0  0  0
 10 26  2  0  0  0
M  END
> <rmsd>
0.701556802

$$$$
PubChem-11134212


 32 35  0  0  0  0  0  0  0  0999 V2000
    2.5607   27.6508   66.1642 C   0  0  0  0  0
    2.3708   26.4812   65.2171 C   0  0  0  0  0
    3.3237   26.1025   63.2345 C   0  0  0  0  0
    4.2893   26.9540   62.4667 C   0  0  0  0  0
    3.4243   28.0450   61.8786 C   0  0  0  0  0
    1.9948   26.7478   63.0258 C   0  0  0  0  0
    4.1118   29.4031   62.0041 C   0  0  0  0  0
    3.4306   30.4238   61.1092 C   0  0  0  0  0
    3.8401   30.2029   59.6619 C   0  0  0  0  0
    2.7207   30.6394   58.7072 C   0  0  0  0  0
    3.0913   30.4596   57.2242 C   0  0  0  0  0
    2.9778   28.9969   56.7794 C   0  0  0  0  0
    1.7132   28.3299   57.3212 C   0  0  0  0  0
    1.5390   28.6561   58.8034 C   0  0  0  0  0
    6.2206   26.4897   61.4793 C   0  0  0  0  0
    6.6731   27.0178   60.1608 C   0  0  0  0  0
    6.5813   26.2249   59.0108 C   0  0  0  0  0
    7.0124   26.7258   57.7784 C   0  0  0  0  0
    7.5354   28.0199   57.6941 C   0  0  0  0  0
    7.6297   28.8123   58.8425 C   0  0  0  0  0
    7.2005   28.3106   60.0751 C   0  0  0  0  0
    1.9172   25.2772   66.0227 C   0  0  0  0  0
    3.5997   26.1893   64.5963 O   0  0  0  0  0
    2.1788   28.0493   62.5290 O   0  0  0  0  0
    1.3780   26.8102   64.2736 O   0  0  0  0  0
    1.4667   30.0509   59.0113 O   0  0  0  0  0
    0.5970   28.7568   56.6016 O   0  0  0  0  0
    4.1029   28.2846   57.1965 O   0  0  0  0  0
    2.2660   31.2598   56.4335 O   0  0  0  0  0
    4.0846   29.8460   63.3283 O   0  0  0  0  0
    4.8539   26.2028   61.4337 O   0  0  0  0  0
    5.0531   30.9554   59.3890 N   0  0  0  0  0
  1  2  1  0  0  0
  2 23  1  0  0  0
  2 22  1  0  0  0
  2 25  1  0  0  0
  3 23  1  0  0  0
  3  4  1  0  0  0
  4  5  1  0  0  0
  4 31  1  0  0  0
  5 24  1  0  0  0
  5  7  1  0  0  0
  6 24  1  0  0  0
  6 25  1  0  0  0
  6  3  1  0  0  0
  7  8  1  0  0  0
  7 30  1  0  0  0
  9  8  1  0  0  0
  9 32  1  0  0  0
 10  9  1  0  0  0
 10 11  1  0  0  0
 10 26  1  0  0  0
 11 12  1  0  0  0
 11 29  1  0  0  0
 12 13  1  0  0  0
 12 28  1  0  0  0
 13 14  1  0  0  0
 13 27  1  0  0  0
 14 26  1  0  0  0
 15 31  1  0  0  0
 15 16  1  0  0  0
 17 18  1  0  0  0
 19 20  1  0  0  0
 21 16  1  0  0  0
 16 17  2  0  0  0
 18 19  2  0  0  0
 20 21  2  0  0  0
M  END
> <rmsd>
0.819968939

$$$$
PubChem-11134212


 32 35  0  0  0  0  0  0  0  0999 V2000
    4.7711   23.9952   65.1689 C   0  0  0  0  0
    3.9747   24.6967   64.0820 C   0  0  0  0  0
    2.1644   25.7933   64.8021 C   0  0  0  0  0
    1.0119   26.2712   63.9679 C   0  0  0  0  0
    1.7132   27.1462   62.9451 C   0  0  0  0  0
    3.2647   26.7730   64.5229 C   0  0  0  0  0
    0.8157   28.2219   62.3261 C   0  0  0  0  0
    1.5729   29.1110   61.3382 C   0  0  0  0  0
    1.9941   28.3663   60.0722 C   0  0  0  0  0
    2.1763   29.3489   58.9170 C   0  0  0  0  0
    2.5782   28.6064   57.6259 C   0  0  0  0  0
    1.8417   29.1327   56.3854 C   0  0  0  0  0
    1.5840   30.6458   56.4387 C   0  0  0  0  0
    1.3576   31.1516   57.8695 C   0  0  0  0  0
   -1.0698   26.3767   64.7225 C   0  0  0  0  0
   -2.1652   27.3226   65.0719 C   0  0  0  0  0
   -2.9408   27.0952   66.2134 C   0  0  0  0  0
   -3.9752   27.9763   66.5438 C   0  0  0  0  0
   -4.2371   29.0840   65.7313 C   0  0  0  0  0
   -3.4657   29.3102   64.5873 C   0  0  0  0  0
   -2.4310   28.4297   64.2569 C   0  0  0  0  0
    4.2963   24.0433   62.7527 C   0  0  0  0  0
    2.5991   24.5527   64.3391 O   0  0  0  0  0
    2.8378   27.7135   63.5647 O   0  0  0  0  0
    4.3494   26.0516   64.0256 O   0  0  0  0  0
    0.9988   30.0954   58.7219 O   0  0  0  0  0
    2.6588   31.3287   55.8709 O   0  0  0  0  0
    0.6271   28.4603   56.2478 O   0  0  0  0  0
    3.9555   28.7181   57.4360 O   0  0  0  0  0
   -0.2873   27.6374   61.6982 O   0  0  0  0  0
    0.1615   27.0345   64.7756 O   0  0  0  0  0
    3.2395   27.6569   60.3218 N   0  0  0  0  0
  1  2  1  0  0  0
  2 23  1  0  0  0
  2 22  1  0  0  0
  2 25  1  0  0  0
  3 23  1  0  0  0
  3  4  1  0  0  0
  4  5  1  0  0  0
  4 31  1  0  0  0
  5 24  1  0  0  0
  5  7  1  0  0  0
  6 24  1  0  0  0
  6 25  1  0  0  0
  6  3  1  0  0  0
  7  8  1  0  0  0
  7 30  1  0  0  0
  9  8  1  0  0  0
  9 32  1  0  0  0
 10  9  1  0  0  0
 10 11  1  0  0  0
 10 26  1  0  0  0
 11 12  1  0  0  0
 11 29  1  0  0  0
 12 13  1  0  0  0
 12 28  1  0  0  0
 13 14  1  0  0  0
 13 27  1  0  0  0
 14 26  1  0  0  0
 15 31  1  0  0  0
 15 16  1  0  0  0
 17 18  1  0  0  0
 19 20  1  0  0  0
 21 16  1  0  0  0
 16 17  2  0  0  0
 18 19  2  0  0  0
 20 21  2  0  0  0
M  END
> <rmsd>
0.725165009

$$$$
PubChem-10398781 ZINC000001620334


 14 13  0  0  0  0  0  0  0  0999 V2000
    2.6394   27.7967   60.9337 C   0  0  0  0  0
    2.3800   26.3872   61.4435 C   0  0  0  0  0
    2.6613   26.2408   62.9385 C   0  0  0  0  0
    1.6830   26.9954   63.7798 C   0  0  0  0  0
    2.3214   27.8644   59.4531 C   0  0  0  0  0
    2.5641   29.2678   58.9266 C   0  0  0  0  0
    0.8993   26.3666   64.5370 O   0  0  0  0  0
    1.6399   28.3842   63.7445 O   0  0  0  0  0
    3.6440   28.3436   56.6019 O   0  0  0  0  0
    2.8052   30.8185   56.5319 O   0  0  0  0  0
    1.0507   28.6884   56.5589 O   0  0  0  0  0
    4.0236   26.6376   63.2571 N   0  0  0  0  0
    1.5276   30.1639   59.4104 N   0  0  0  0  0
    2.5473   29.2508   57.1110 P   0  0  0  0  0
  1  2  1  0  0  0
  1  5  1  0  0  0
  3  2  1  0  0  0
  3  4  1  0  0  0
  3 12  1  0  0  0
  4  8  1  0  0  0
  6  5  1  0  0  0
  6 13  1  0  0  0
  6 14  1  0  0  0
 14 10  1  0  0  0
 14 11  1  0  0  0
  4  7  2  0  0  0
 14  9  2  0  0  0
M  END
> <rmsd>
0.679350853

$$$$
PubChem-57377733


 25 26  0  0  0  0  0  0  0  0999 V2000
    6.2598   29.5357   61.9380 C   0  0  0  0  0
    5.4715   29.4992   60.6767 C   0  0  0  0  0
    5.7687   28.5469   59.6942 C   0  0  0  0  0
    5.0517   28.5289   58.4916 C   0  0  0  0  0
    4.0351   29.4644   58.2683 C   0  0  0  0  0
    3.7323   30.4116   59.2582 C   0  0  0  0  0
    4.4532   30.4326   60.4601 C   0  0  0  0  0
    1.4937   27.8666   57.8056 C   0  0  0  0  0
    0.3343   27.8293   58.7887 C   0  0  0  0  0
    0.4958   28.8620   59.8588 C   0  0  0  0  0
    0.8920   29.0933   62.5256 C   0  0  0  0  0
    1.3854   27.8799   63.2369 C   0  0  0  0  0
    1.3173   27.2614   61.8836 C   0  0  0  0  0
    3.1059   29.4272   56.7733 S   0  0  0  0  0
    3.6681   28.3925   55.8340 O   0  0  0  0  0
    3.1971   30.7738   56.1096 O   0  0  0  0  0
    1.4841   29.0719   57.0958 O   0  0  0  0  0
    0.3130   30.0793   59.5950 O   0  0  0  0  0
    3.0444   28.9996   64.4707 O   0  0  0  0  0
    3.6109   26.9504   63.6886 O   0  0  0  0  0
    0.5743   26.1175   64.5581 O   0  0  0  0  0
   -0.4385   28.1224   64.8734 O   0  0  0  0  0
    0.8429   28.4722   61.1879 N   0  0  0  0  0
    2.7421   28.0144   63.7606 N   0  0  0  0  0
    0.4418   27.3073   64.1950 N   0  0  0  0  0
  1  2  1  0  0  0
  3  4  1  0  0  0
  5  6  1  0  0  0
  7  2  1  0  0  0
  8 17  1  0  0  0
  8  9  1  0  0  0
  9 10  1  0  0  0
 10 23  1  0  0  0
 11 23  1  0  0  0
 11 12  1  0  0  0
 12 13  1  0  0  0
 12 24  1  0  0  0
 12 25  1  0  0  0
 13 23  1  0  0  0
 14  5  1  0  0  0
 14 17  1  0  0  0
 24 20  1  0  0  0
 25 22  1  0  0  0
  2  3  2  0  0  0
  4  5  2  0  0  0
  6  7  2  0  0  0
 10 18  2  0  0  0
 14 15  2  0  0  0
 14 16  2  0  0  0
 24 19  2  0  0  0
 25 21  2  0  0  0
M  CHG  4  24   1  20  -1  25   1  22  -1
M  END
> <rmsd>
0.819194436

$$$$
PubChem-302023


 23 25  0  0  0  0  0  0  0  0999 V2000
    0.7465   27.9258   64.1983 C   0  0  0  0  0
    2.8658   27.5335   63.3103 C   0  0  0  0  0
    3.0237   26.4354   64.0793 C   0  0  0  0  0
    2.0146   26.0474   64.9498 C   0  0  0  0  0
    4.7799   26.6870   62.9107 C   0  0  0  0  0
    4.2537   28.7676   61.6016 C   0  0  0  0  0
    4.4121   30.0967   62.3050 C   0  0  0  0  0
    3.6801   31.0480   61.4216 C   0  0  0  0  0
    2.7168   30.1579   60.6790 C   0  0  0  0  0
    2.5107   30.6846   59.2706 C   0  0  0  0  0
    1.7478   28.2987   63.3448 N   0  0  0  0  0
    0.8832   26.8124   64.9892 N   0  0  0  0  0
    4.2253   25.8721   63.8531 N   0  0  0  0  0
    3.9609   27.7105   62.5617 N   0  0  0  0  0
    2.1702   24.6310   65.9705 Cl  0  0  0  0  0
    3.2314   28.8482   60.6350 O   0  0  0  0  0
    1.5213   29.9395   58.6257 O   0  0  0  0  0
    1.1480   28.7701   56.3171 O   0  0  0  0  0
    2.4787   31.0176   56.2562 O   0  0  0  0  0
    3.5845   28.6905   57.2565 O   0  0  0  0  0
    2.9754   31.9678   62.1973 O   0  0  0  0  0
    5.7609   30.4449   62.3615 O   0  0  0  0  0
    2.1563   29.5837   57.0948 P   0  0  0  0  0
  1 12  1  0  0  0
  2 11  1  0  0  0
  3  4  1  0  0  0
  3 13  1  0  0  0
  4 15  1  0  0  0
  5 14  1  0  0  0
  6 14  1  0  0  0
  6  7  1  0  0  0
  6 16  1  0  0  0
  7  8  1  0  0  0
  7 22  1  0  0  0
  8  9  1  0  0  0
  8 21  1  0  0  0
  9 16  1  0  0  0
  9 10  1  0  0  0
 10 17  1  0  0  0
 14  2  1  0  0  0
 23 17  1  0  0  0
 23 19  1  0  0  0
 23 20  1  0  0  0
  1 11  2  0  0  0
  2  3  2  0  0  0
  4 12  2  0  0  0
  5 13  2  0  0  0
 23 18  2  0  0  0
M  END
> <rmsd>
0.728956997

$$$$
PubChem-302023


 23 25  0  0  0  0  0  0  0  0999 V2000
    0.7405   27.8952   64.1914 C   0  0  0  0  0
    2.8832   27.5521   63.3402 C   0  0  0  0  0
    3.0543   26.4594   64.1141 C   0  0  0  0  0
    2.0401   26.0488   64.9680 C   0  0  0  0  0
    4.8236   26.7510   62.9747 C   0  0  0  0  0
    4.2700   28.8162   61.6526 C   0  0  0  0  0
    4.3843   30.1501   62.3558 C   0  0  0  0  0
    3.6420   31.0812   61.4594 C   0  0  0  0  0
    2.7135   30.1659   60.7036 C   0  0  0  0  0
    2.5143   30.6863   59.2918 C   0  0  0  0  0
    1.7468   28.2903   63.3542 N   0  0  0  0  0
    0.8902   26.7866   64.9867 N   0  0  0  0  0
    4.2727   25.9247   63.9093 N   0  0  0  0  0
    3.9864   27.7541   62.6099 N   0  0  0  0  0
    2.2123   24.6382   65.9941 Cl  0  0  0  0  0
    3.2631   28.8704   60.6682 O   0  0  0  0  0
    1.5533   29.9155   58.6334 O   0  0  0  0  0
    3.4449   28.7164   57.2557 O   0  0  0  0  0
    2.6192   31.0191   56.3180 O   0  0  0  0  0
    1.0638   28.7484   56.1829 O   0  0  0  0  0
    2.9020   31.9837   62.2228 O   0  0  0  0  0
    5.7229   30.5323   62.4319 O   0  0  0  0  0
    2.2111   29.5785   57.1069 P   0  0  0  0  0
  1 12  1  0  0  0
  2 11  1  0  0  0
  3  4  1  0  0  0
  3 13  1  0  0  0
  4 15  1  0  0  0
  5 14  1  0  0  0
  6 14  1  0  0  0
  6  7  1  0  0  0
  6 16  1  0  0  0
  7  8  1  0  0  0
  7 22  1  0  0  0
  8  9  1  0  0  0
  8 21  1  0  0  0
  9 16  1  0  0  0
  9 10  1  0  0  0
 10 17  1  0  0  0
 14  2  1  0  0  0
 23 17  1  0  0  0
 23 19  1  0  0  0
 23 20  1  0  0  0
  1 11  2  0  0  0
  2  3  2  0  0  0
  4 12  2  0  0  0
  5 13  2  0  0  0
 23 18  2  0  0  0
M  END
> <rmsd>
0.753091335

$$$$
PubChem-59900829


 33 38  0  0  0  0  0  0  0  0999 V2000
   -1.9598   28.3348   55.6790 C   0  0  0  0  0
   -1.4410   29.7644   55.6655 C   0  0  0  0  0
    0.0379   29.8391   56.0412 C   0  0  0  0  0
    0.9311   29.1359   55.0028 C   0  0  0  0  0
    2.4038   29.2814   55.4017 C   0  0  0  0  0
    2.5866   28.8981   56.8732 C   0  0  0  0  0
    1.5401   29.6264   57.7309 C   0  0  0  0  0
    1.5518   28.0690   59.6976 C   0  0  0  0  0
    1.1721   26.9497   58.9412 C   0  0  0  0  0
    1.0157   25.7059   59.5544 C   0  0  0  0  0
    1.2426   25.5712   60.9255 C   0  0  0  0  0
    1.6399   26.6735   61.6978 C   0  0  0  0  0
    1.7753   27.9228   61.0701 C   0  0  0  0  0
    1.8478   26.5471   63.2066 C   0  0  0  0  0
    2.9493   25.6376   63.7217 C   0  0  0  0  0
    3.7913   24.8364   62.7004 C   0  0  0  0  0
    5.1251   24.4453   63.3665 C   0  0  0  0  0
    4.8636   23.5958   64.6259 C   0  0  0  0  0
    4.1182   22.3171   64.2198 C   0  0  0  0  0
    2.7808   22.6841   63.5613 C   0  0  0  0  0
    3.0500   23.5419   62.3151 C   0  0  0  0  0
    1.9280   23.4828   64.5596 C   0  0  0  0  0
    2.6543   24.7766   64.9731 C   0  0  0  0  0
    3.9957   24.3861   65.6247 C   0  0  0  0  0
   -0.1640   25.4815   63.5873 C   0  0  0  0  0
    0.2374   29.2822   57.3200 O   0  0  0  0  0
    1.7119   29.3368   59.1200 O   0  0  0  0  0
    3.6235   26.8050   64.0945 O   0  0  0  0  0
    2.6525   27.6068   63.6497 O   0  0  0  0  0
    0.6529   26.5563   63.9689 O   0  0  0  0  0
    3.8768   29.2171   57.3019 O   0  0  0  0  0
    2.8358   30.5953   55.1868 O   0  0  0  0  0
    0.7233   29.6707   53.7287 O   0  0  0  0  0
  1  2  1  0  0  0
  3  2  1  0  0  0
  3  4  1  0  0  0
  3 26  1  0  0  0
  4  5  1  0  0  0
  4 33  1  0  0  0
  5  6  1  0  0  0
  5 32  1  0  0  0
  6  7  1  0  0  0
  6 31  1  0  0  0
  7 26  1  0  0  0
  7 27  1  0  0  0
  8 27  1  0  0  0
  9 10  1  0  0  0
 11 12  1  0  0  0
 13  8  1  0  0  0
 14 12  1  0  0  0
 14 15  1  0  0  0
 14 30  1  0  0  0
 14 29  1  0  0  0
 15 16  1  0  0  0
 15 28  1  0  0  0
 16 17  1  0  0  0
 18 17  1  0  0  0
 18 19  1  0  0  0
 20 19  1  0  0  0
 20 21  1  0  0  0
 20 22  1  0  0  0
 21 16  1  0  0  0
 23 22  1  0  0  0
 23 24  1  0  0  0
 23 15  1  0  0  0
 24 18  1  0  0  0
 25 30  1  0  0  0
 28 29  1  0  0  0
  8  9  2  0  0  0
 10 11  2  0  0  0
 12 13  2  0  0  0
M  END
> <rmsd>
0.790704548

$$$$
PubChem-87873767


 19 18  0  0  0  0  0  0  0  0999 V2000
    0.2152   24.9920   61.6284 C   0  0  0  0  0
    1.6051   25.4908   61.2845 C   0  0  0  0  0
    1.7569   26.9557   61.6754 C   0  0  0  0  0
    2.8258   27.6274   60.8585 C   0  0  0  0  0
    4.0853   27.1974   60.9029 C   0  0  0  0  0
    2.4733   28.7672   59.9970 C   0  0  0  0  0
    3.1686   30.4632   58.3379 C   0  0  0  0  0
    4.4000   31.3339   58.1615 C   0  0  0  0  0
    4.6829   32.1038   59.4367 C   0  0  0  0  0
    1.2806   29.1773   59.9560 O   0  0  0  0  0
    3.4616   29.3976   59.2343 O   0  0  0  0  0
    1.4278   28.9835   56.9117 O   0  0  0  0  0
    2.4074   30.9342   55.8000 O   0  0  0  0  0
    3.9038   28.8365   56.1401 O   0  0  0  0  0
    0.8483   26.6943   64.2023 O   0  0  0  0  0
    2.3439   28.5786   63.7479 O   0  0  0  0  0
    3.3780   26.1990   63.8850 O   0  0  0  0  0
    2.6759   29.8049   56.7542 S   0  0  0  0  0
    2.0598   27.1372   63.4318 S   0  0  0  0  0
  1  2  1  0  0  0
  3  2  1  0  0  0
  3  4  1  0  0  0
  3 19  1  0  0  0
  4  6  1  0  0  0
  6 11  1  0  0  0
  7 11  1  0  0  0
  7  8  1  0  0  0
  7 18  1  0  0  0
  8  9  1  0  0  0
 18 14  1  0  0  0
 19 17  1  0  0  0
  4  5  2  0  0  0
  6 10  2  0  0  0
 18 12  2  0  0  0
 18 13  2  0  0  0
 19 15  2  0  0  0
 19 16  2  0  0  0
M  END
> <rmsd>
0.601940155

$$$$
PubChem-163377793


 33 36  0  0  0  0  0  0  0  0999 V2000
    8.1518   30.6085   54.2977 C   0  0  0  0  0
    7.1633   29.6855   53.6020 C   0  0  0  0  0
    7.8763   28.5568   52.9292 C   0  0  0  0  0
    7.7926   28.4287   51.5384 C   0  0  0  0  0
    8.4465   27.3776   50.8883 C   0  0  0  0  0
    9.1854   26.4492   51.6276 C   0  0  0  0  0
    9.2707   26.5709   53.0176 C   0  0  0  0  0
    8.6175   27.6216   53.6686 C   0  0  0  0  0
    5.1622   29.9783   55.1299 C   0  0  0  0  0
    4.2767   29.4556   56.0609 C   0  0  0  0  0
    3.3083   30.2373   56.5837 C   0  0  0  0  0
    4.0126   32.0646   55.3187 C   0  0  0  0  0
    3.1348   28.2835   57.4137 C   0  0  0  0  0
    1.4024   29.9647   58.1904 C   0  0  0  0  0
    0.1174   29.7985   57.3996 C   0  0  0  0  0
   -0.9025   29.6057   58.4816 C   0  0  0  0  0
   -0.0863   29.3590   59.7375 C   0  0  0  0  0
   -0.5598   28.0768   60.4066 C   0  0  0  0  0
    0.0171   27.9429   61.8061 C   0  0  0  0  0
    1.4164   27.3592   61.7489 C   0  0  0  0  0
    6.1918   29.1687   54.5571 N   0  0  0  0  0
    3.1465   31.5368   56.2361 N   0  0  0  0  0
    5.0065   31.2904   54.7745 N   0  0  0  0  0
    2.5796   29.5238   57.4463 N   0  0  0  0  0
    4.1986   28.2095   56.5639 N   0  0  0  0  0
    3.8510   33.7380   54.8334 Cl  0  0  0  0  0
    1.2735   29.2560   59.3926 O   0  0  0  0  0
    3.4999   26.6744   63.3542 O   0  0  0  0  0
    2.1842   28.8092   64.0979 O   0  0  0  0  0
    1.1298   26.2726   64.3848 O   0  0  0  0  0
   -1.6468   30.7750   58.6360 O   0  0  0  0  0
    0.1579   28.6440   56.6135 O   0  0  0  0  0
    2.1086   27.2606   63.4224 P   0  0  0  0  0
  2  1  1  0  0  0
  2  3  1  0  0  0
  2 21  1  0  0  0
  4  5  1  0  0  0
  6  7  1  0  0  0
  8  3  1  0  0  0
  9 23  1  0  0  0
 10 11  1  0  0  0
 10 25  1  0  0  0
 11 24  1  0  0  0
 12 22  1  0  0  0
 12 26  1  0  0  0
 14 24  1  0  0  0
 14 15  1  0  0  0
 14 27  1  0  0  0
 15 16  1  0  0  0
 15 32  1  0  0  0
 16 17  1  0  0  0
 16 31  1  0  0  0
 17 27  1  0  0  0
 17 18  1  0  0  0
 18 19  1  0  0  0
 19 20  1  0  0  0
 20 33  1  0  0  0
 21  9  1  0  0  0
 24 13  1  0  0  0
 33 29  1  0  0  0
 33 30  1  0  0  0
  3  4  2  0  0  0
  5  6  2  0  0  0
  7  8  2  0  0  0
  9 10  2  0  0  0
 11 22  2  0  0  0
 12 23  2  0  0  0
 13 25  2  0  0  0
 33 28  2  0  0  0
M  END
> <rmsd>
0.79851687

$$$$
PubChem-17861523


 15 14  0  0  0  0  0  0  0  0999 V2000
    4.8101   29.2685   63.0984 C   0  0  0  0  0
    3.8031   28.3775   62.3918 C   0  0  0  0  0
    3.5999   28.8189   60.9451 C   0  0  0  0  0
    2.9454   30.1912   60.8511 C   0  0  0  0  0
    2.7273   30.5661   59.3975 C   0  0  0  0  0
    1.7204   29.7697   58.8455 O   0  0  0  0  0
    3.4492   28.7367   57.1550 O   0  0  0  0  0
    2.3830   31.0262   56.4585 O   0  0  0  0  0
    0.9391   28.6793   56.4359 O   0  0  0  0  0
    2.5886   28.3804   63.0857 O   0  0  0  0  0
    0.9780   26.6688   64.2348 O   0  0  0  0  0
    2.1498   25.8436   62.0504 O   0  0  0  0  0
    3.5294   26.1404   64.4267 O   0  0  0  0  0
    2.1657   29.5336   57.2262 P   0  0  0  0  0
    2.2779   26.7569   63.4692 P   0  0  0  0  0
  2  1  1  0  0  0
  2  3  1  0  0  0
  2 10  1  0  0  0
  3  4  1  0  0  0
  4  5  1  0  0  0
  5  6  1  0  0  0
 14  6  1  0  0  0
 14  8  1  0  0  0
 14  9  1  0  0  0
 15 10  1  0  0  0
 15 12  1  0  0  0
 15 13  1  0  0  0
 14  7  2  0  0  0
 15 11  2  0  0  0
M  END
> <rmsd>
0.7406075

$$$$
PubChem-17861523


 15 14  0  0  0  0  0  0  0  0999 V2000
    4.8106   29.2684   63.0984 C   0  0  0  0  0
    3.8033   28.3774   62.3920 C   0  0  0  0  0
    3.6000   28.8187   60.9452 C   0  0  0  0  0
    2.9457   30.1910   60.8511 C   0  0  0  0  0
    2.7274   30.5658   59.3975 C   0  0  0  0  0
    1.7205   29.7694   58.8457 O   0  0  0  0  0
    3.4490   28.7362   57.1551 O   0  0  0  0  0
    0.9388   28.6790   56.4362 O   0  0  0  0  0
    2.3829   31.0257   56.4586 O   0  0  0  0  0
    2.5889   28.3805   63.0859 O   0  0  0  0  0
    0.9783   26.6692   64.2353 O   0  0  0  0  0
    3.5296   26.1405   64.4271 O   0  0  0  0  0
    2.1497   25.8437   62.0509 O   0  0  0  0  0
    2.1655   29.5332   57.2263 P   0  0  0  0  0
    2.2782   26.7571   63.4696 P   0  0  0  0  0
  2  1  1  0  0  0
  2  3  1  0  0  0
  2 10  1  0  0  0
  3  4  1  0  0  0
  4  5  1  0  0  0
  5  6  1  0  0  0
 14  6  1  0  0  0
 14  8  1  0  0  0
 14  9  1  0  0  0
 15 10  1  0  0  0
 15 12  1  0  0  0
 15 13  1  0  0  0
 14  7  2  0  0  0
 15 11  2  0  0  0
M  END
> <rmsd>
0.740857303

$$$$
PubChem-90371273


 18 18  0  0  0  0  0  0  0  0999 V2000
   -0.2971   28.3145   61.3488 B   0  0  0  0  0
    1.0568   29.1240   61.5252 C   0  0  0  0  0
    2.1193   28.2333   62.1335 C   0  0  0  0  0
    3.3377   28.4978   61.2982 C   0  0  0  0  0
    2.9044   29.6045   60.3693 C   0  0  0  0  0
    3.5243   29.3925   59.0009 C   0  0  0  0  0
    2.3890   27.6487   66.1415 C   0  0  0  0  0
    1.2824   28.6084   66.5271 C   0  0  0  0  0
    1.5049   29.5762   60.2747 O   0  0  0  0  0
    3.2095   30.4661   58.1653 O   0  0  0  0  0
    2.3325   30.8588   55.7334 O   0  0  0  0  0
    3.9490   28.8306   56.0506 O   0  0  0  0  0
    1.3471   28.7860   56.9818 O   0  0  0  0  0
    2.3589   28.6273   63.4531 O   0  0  0  0  0
    3.3537   26.2594   64.0203 O   0  0  0  0  0
    0.7448   26.4636   64.1258 O   0  0  0  0  0
    2.7005   29.7645   56.7087 P   0  0  0  0  0
    2.2394   27.2140   64.3866 P   0  0  0  0  0
  2  1  1  0  0  0
  2  3  1  0  0  0
  2  9  1  0  0  0
  3  4  1  0  0  0
  3 14  1  0  0  0
  4  5  1  0  0  0
  5  9  1  0  0  0
  5  6  1  0  0  0
  6 10  1  0  0  0
  7  8  1  0  0  0
 17 10  1  0  0  0
 17 12  1  0  0  0
 17 13  1  0  0  0
 18 14  1  0  0  0
 18  7  1  0  0  0
 18 16  1  0  0  0
 17 11  2  0  0  0
 18 15  2  0  0  0
M  END
> <rmsd>
0.609609783

$$$$
PubChem-90371273


 18 18  0  0  0  0  0  0  0  0999 V2000
   -0.2926   28.2808   61.3381 B   0  0  0  0  0
    1.0516   29.1052   61.5199 C   0  0  0  0  0
    2.1214   28.2257   62.1320 C   0  0  0  0  0
    3.3382   28.4984   61.2971 C   0  0  0  0  0
    2.8980   29.6030   60.3691 C   0  0  0  0  0
    3.5229   29.3986   59.0019 C   0  0  0  0  0
    2.4310   27.6509   66.1404 C   0  0  0  0  0
    3.7640   28.3347   66.3653 C   0  0  0  0  0
    1.4991   29.5629   60.2712 O   0  0  0  0  0
    3.2010   30.4709   58.1675 O   0  0  0  0  0
    2.3272   30.8603   55.7339 O   0  0  0  0  0
    1.3563   28.7771   56.9761 O   0  0  0  0  0
    3.9600   28.8457   56.0518 O   0  0  0  0  0
    2.3565   28.6261   63.4506 O   0  0  0  0  0
    3.3465   26.2483   63.9976 O   0  0  0  0  0
    0.7431   26.4783   64.1618 O   0  0  0  0  0
    2.7020   29.7676   56.7081 P   0  0  0  0  0
    2.2498   27.2144   64.3883 P   0  0  0  0  0
  2  1  1  0  0  0
  2  3  1  0  0  0
  2  9  1  0  0  0
  3  4  1  0  0  0
  3 14  1  0  0  0
  4  5  1  0  0  0
  5  9  1  0  0  0
  5  6  1  0  0  0
  6 10  1  0  0  0
  7  8  1  0  0  0
 17 10  1  0  0  0
 17 12  1  0  0  0
 17 13  1  0  0  0
 18 14  1  0  0  0
 18  7  1  0  0  0
 18 16  1  0  0  0
 17 11  2  0  0  0
 18 15  2  0  0  0
M  END
> <rmsd>
0.608006239

$$$$
PubChem-90371273


 18 18  0  0  0  0  0  0  0  0999 V2000
   -0.2686   28.1845   61.2874 B   0  0  0  0  0
    1.0449   29.0518   61.4928 C   0  0  0  0  0
    2.1262   28.2112   62.1384 C   0  0  0  0  0
    3.3550   28.5182   61.3339 C   0  0  0  0  0
    2.9024   29.5980   60.3828 C   0  0  0  0  0
    3.5675   29.3996   59.0338 C   0  0  0  0  0
    2.5478   27.6352   66.1351 C   0  0  0  0  0
    1.5924   28.7025   66.6283 C   0  0  0  0  0
    1.5084   29.5116   60.2507 O   0  0  0  0  0
    3.2318   30.4523   58.1790 O   0  0  0  0  0
    3.9659   29.0147   56.1026 O   0  0  0  0  0
    1.5332   28.6070   56.9857 O   0  0  0  0  0
    2.2311   30.9142   55.6507 O   0  0  0  0  0
    2.3137   28.6257   63.4600 O   0  0  0  0  0
    0.7671   26.6751   64.3177 O   0  0  0  0  0
    3.2716   26.0511   63.8750 O   0  0  0  0  0
    2.7782   29.7216   56.7170 P   0  0  0  0  0
    2.1739   27.2238   64.4077 P   0  0  0  0  0
  2  1  1  0  0  0
  2  3  1  0  0  0
  2  9  1  0  0  0
  3  4  1  0  0  0
  3 14  1  0  0  0
  4  5  1  0  0  0
  5  9  1  0  0  0
  5  6  1  0  0  0
  6 10  1  0  0  0
  7  8  1  0  0  0
 17 10  1  0  0  0
 17 12  1  0  0  0
 17 13  1  0  0  0
 18 14  1  0  0  0
 18  7  1  0  0  0
 18 16  1  0  0  0
 17 11  2  0  0  0
 18 15  2  0  0  0
M  END
> <rmsd>
0.636162162

$$$$
PubChem-90022993


 25 26  0  0  0  0  0  0  0  0999 V2000
    1.9586   26.3087   56.2165 C   0  0  0  0  0
    0.3756   27.7549   57.4212 C   0  0  0  0  0
   -0.3614   28.0626   58.6807 C   0  0  0  0  0
    0.0882   29.3920   59.2714 C   0  0  0  0  0
    2.0060   30.6415   59.6907 C   0  0  0  0  0
    3.4938   30.5894   59.3661 C   0  0  0  0  0
    4.4600   28.7902   57.8997 C   0  0  0  0  0
    3.7404   29.3481   55.9805 C   0  0  0  0  0
    3.2885   30.2482   56.8789 C   0  0  0  0  0
    2.1531   31.4272   55.2198 C   0  0  0  0  0
    3.3959   29.4720   54.6418 C   0  0  0  0  0
    1.3720   28.9483   61.1772 C   0  0  0  0  0
    2.4530   27.9391   61.5133 C   0  0  0  0  0
    1.2832   26.6962   57.4031 O   0  0  0  0  0
    0.1666   28.4455   56.3869 O   0  0  0  0  0
    2.5852   28.7395   64.1143 O   0  0  0  0  0
    0.8401   26.8530   63.6183 O   0  0  0  0  0
    3.5554   26.3604   63.6269 O   0  0  0  0  0
    1.4525   29.2981   59.7678 N   0  0  0  0  0
    3.7256   29.9130   58.0970 N   0  0  0  0  0
    4.4893   28.4101   56.5905 N   0  0  0  0  0
    2.4968   31.2932   56.5367 N   0  0  0  0  0
    2.5995   30.5241   54.2875 N   0  0  0  0  0
    3.9462   28.3238   53.4376 Cl  0  0  0  0  0
    2.3619   27.5042   63.2720 P   0  0  0  0  0
  1 14  1  0  0  0
  2 14  1  0  0  0
  3  2  1  0  0  0
  3  4  1  0  0  0
  4 19  1  0  0  0
  5 19  1  0  0  0
  5  6  1  0  0  0
  6 20  1  0  0  0
  8 21  1  0  0  0
  9 22  1  0  0  0
  9 20  1  0  0  0
 10 23  1  0  0  0
 11 24  1  0  0  0
 11  8  1  0  0  0
 12 19  1  0  0  0
 12 13  1  0  0  0
 13 25  1  0  0  0
 20  7  1  0  0  0
 25 17  1  0  0  0
 25 18  1  0  0  0
  2 15  2  0  0  0
  7 21  2  0  0  0
  8  9  2  0  0  0
 10 22  2  0  0  0
 11 23  2  0  0  0
 25 16  2  0  0  0
M  END
> <rmsd>
0.82355243

$$$$
PubChem-122544939


 32 34  0  0  0  0  0  0  0  0999 V2000
    4.7759   30.2885   60.9367 C   0  0  0  0  0
    3.6940   29.7463   61.8618 C   0  0  0  0  0
    3.4598   28.2310   61.7067 C   0  0  0  0  0
    4.7611   27.4541   61.9245 C   0  0  0  0  0
    3.0253   27.9183   60.2703 C   0  0  0  0  0
    1.6787   28.5347   59.9016 C   0  0  0  0  0
    1.0139   27.6949   58.8391 C   0  0  0  0  0
    0.2768   28.6920   58.0076 C   0  0  0  0  0
    0.9098   30.0278   58.3927 C   0  0  0  0  0
    0.8323   31.8826   56.8441 C   0  0  0  0  0
    1.3556   32.5944   55.7767 C   0  0  0  0  0
    0.9118   33.7301   55.1417 C   0  0  0  0  0
    1.8768   33.9179   54.1499 C   0  0  0  0  0
    2.4963   32.1773   55.1732 C   0  0  0  0  0
    2.6600   30.3575   56.6363 C   0  0  0  0  0
    1.3377   27.6880   65.2230 C   0  0  0  0  0
    1.7135   27.5730   66.6913 C   0  0  0  0  0
    0.4991   28.9434   64.9826 C   0  0  0  0  0
   -0.8445   28.8873   65.6939 C   0  0  0  0  0
    1.8670   29.8375   59.4078 O   0  0  0  0  0
    3.2762   29.3286   57.0258 O   0  0  0  0  0
    0.4280   28.3876   56.6526 O   0  0  0  0  0
    0.1095   26.8171   59.4333 O   0  0  0  0  0
    2.4170   27.7882   62.5679 O   0  0  0  0  0
    3.6103   29.0476   64.6080 O   0  0  0  0  0
    0.6218   26.5525   64.8365 O   0  0  0  0  0
    3.8160   26.4362   64.5664 O   0  0  0  0  0
    1.4922   30.7594   57.2614 N   0  0  0  0  0
    2.8512   32.9747   54.1567 N   0  0  0  0  0
    3.1601   31.0708   55.5833 N   0  0  0  0  0
    1.8503   34.9363   53.2558 F   0  0  0  0  0
    2.8574   27.7908   64.2294 P   0  0  0  0  0
  1  2  1  0  0  0
  2  3  1  0  0  0
  3  4  1  0  0  0
  3  5  1  0  0  0
  3 24  1  0  0  0
  6  5  1  0  0  0
  6  7  1  0  0  0
  6 20  1  0  0  0
  7  8  1  0  0  0
  7 23  1  0  0  0
  8  9  1  0  0  0
  8 22  1  0  0  0
  9 20  1  0  0  0
  9 28  1  0  0  0
 11 12  1  0  0  0
 13 29  1  0  0  0
 13 31  1  0  0  0
 14 11  1  0  0  0
 15 30  1  0  0  0
 15 28  1  0  0  0
 16 17  1  0  0  0
 16 18  1  0  0  0
 16 26  1  0  0  0
 18 19  1  0  0  0
 28 10  1  0  0  0
 29 14  1  0  0  0
 32 24  1  0  0  0
 32 16  1  0  0  0
 32 27  1  0  0  0
 10 11  2  0  0  0
 12 13  2  0  0  0
 14 30  2  0  0  0
 15 21  2  0  0  0
 32 25  2  0  0  0
M  END
> <rmsd>
0.717333555

$$$$
PubChem-123503351


 23 25  0  0  0  0  0  0  0  0999 V2000
   -2.3407   26.3960   67.7368 C   0  0  0  0  0
   -0.6884   26.5377   66.1016 C   0  0  0  0  0
   -0.0023   27.4219   65.0816 C   0  0  0  0  0
    2.5070   26.8357   62.7610 C   0  0  0  0  0
    2.7734   27.5778   61.4539 C   0  0  0  0  0
    3.8384   26.8122   60.5948 C   0  0  0  0  0
    4.4145   27.7213   59.5279 C   0  0  0  0  0
    3.5148   26.5683   59.0869 C   0  0  0  0  0
    2.0683   26.9687   58.6483 C   0  0  0  0  0
    1.1719   26.6857   59.8467 C   0  0  0  0  0
    1.5633   28.8556   59.7909 C   0  0  0  0  0
   -1.7301   27.2928   66.7727 N   0  0  0  0  0
    1.5465   27.5761   63.5646 N   0  0  0  0  0
    1.5216   27.7907   60.7227 N   0  0  0  0  0
    1.9455   28.4168   58.5041 N   0  0  0  0  0
    1.0047   26.6994   64.4429 O   0  0  0  0  0
    1.3124   30.0546   60.0817 O   0  0  0  0  0
    1.5568   29.0296   57.3589 O   0  0  0  0  0
    3.9367   28.6917   56.3338 O   0  0  0  0  0
    3.5667   30.6590   57.7600 O   0  0  0  0  0
    2.5336   30.6548   55.3810 O   0  0  0  0  0
    3.6962   26.6936   63.4797 O   0  0  0  0  0
    2.9480   29.7503   56.7342 S   0  0  0  0  0
  1 12  1  0  0  0
  2 12  1  0  0  0
  2  3  1  0  0  0
  3 16  1  0  0  0
  4 13  1  0  0  0
  4  5  1  0  0  0
  4 22  1  0  0  0
  5  6  1  0  0  0
  5 14  1  0  0  0
  6  7  1  0  0  0
  7  8  1  0  0  0
  8  9  1  0  0  0
  8  6  1  0  0  0
  9 10  1  0  0  0
  9 15  1  0  0  0
 10 14  1  0  0  0
 11 15  1  0  0  0
 13 16  1  0  0  0
 14 11  1  0  0  0
 15 18  1  0  0  0
 23 18  1  0  0  0
 23 21  1  0  0  0
 11 17  2  0  0  0
 23 19  2  0  0  0
 23 20  2  0  0  0
M  END
> <rmsd>
0.69311291

$$$$
PubChem-91114181


 17 17  0  0  0  0  0  0  0  0999 V2000
   -0.3350   28.5435   57.4650 C   0  0  0  0  0
   -0.6548   29.6039   58.5246 C   0  0  0  0  0
    1.6904   30.2253   58.5367 C   0  0  0  0  0
    1.9448   29.1484   57.4744 C   0  0  0  0  0
    3.1256   29.5165   56.6431 C   0  0  0  0  0
    0.7998   28.7886   60.2381 C   0  0  0  0  0
    1.3723   29.2860   61.5510 C   0  0  0  0  0
    1.6820   28.1035   62.4435 C   0  0  0  0  0
    0.5116   29.9191   59.3612 N   0  0  0  0  0
    0.7673   28.9992   56.6263 N   0  0  0  0  0
    4.1345   28.7652   56.6248 O   0  0  0  0  0
    3.1181   30.6816   55.8853 O   0  0  0  0  0
    2.2125   28.5585   63.6510 O   0  0  0  0  0
    3.1520   27.5540   65.8745 O   0  0  0  0  0
    1.1533   26.2644   64.7942 O   0  0  0  0  0
    3.6901   26.2120   63.6987 O   0  0  0  0  0
    2.5669   27.1588   64.5385 P   0  0  0  0  0
  1  2  1  0  0  0
  1 10  1  0  0  0
  2  9  1  0  0  0
  3  9  1  0  0  0
  3  4  1  0  0  0
  4 10  1  0  0  0
  4  5  1  0  0  0
  5 12  1  0  0  0
  6  9  1  0  0  0
  6  7  1  0  0  0
  7  8  1  0  0  0
  8 13  1  0  0  0
 17 13  1  0  0  0
 17 15  1  0  0  0
 17 16  1  0  0  0
  5 11  2  0  0  0
 17 14  2  0  0  0
M  END
> <rmsd>
0.619989753

$$$$
PubChem-92271525 5615251 ZINC000005615251


 25 27  0  0  0  0  0  0  0  0999 V2000
    0.9918   27.4122   57.1771 C   0  0  0  0  0
    2.7414   30.6877   55.0431 C   0  0  0  0  0
    2.6726   30.6652   59.3302 C   0  0  0  0  0
    3.0450   30.1469   60.7124 C   0  0  0  0  0
    4.5071   28.7486   61.7097 C   0  0  0  0  0
    4.7949   26.5926   62.9685 C   0  0  0  0  0
    2.9595   26.4388   64.0262 C   0  0  0  0  0
    2.9352   27.5776   63.3023 C   0  0  0  0  0
    0.7934   28.0909   64.0678 C   0  0  0  0  0
    1.8673   26.0933   64.8089 C   0  0  0  0  0
    4.6078   30.0812   62.4264 C   0  0  0  0  0
    4.0138   31.0526   61.4463 C   0  0  0  0  0
    1.1225   28.5470   56.3747 O   0  0  0  0  0
    3.5957   28.8553   57.2089 O   0  0  0  0  0
    2.3732   31.0184   56.3485 O   0  0  0  0  0
    1.7081   29.8332   58.7571 O   0  0  0  0  0
    3.5995   28.8558   60.6358 O   0  0  0  0  0
    5.9399   30.3812   62.7205 O   0  0  0  0  0
    4.9992   31.5280   60.5704 O   0  0  0  0  0
    2.2445   29.5404   57.1731 P   0  0  0  0  0
    4.0848   27.6970   62.6271 N   0  0  0  0  0
    4.1229   25.7877   63.8409 N   0  0  0  0  0
    1.8746   28.4214   63.2982 N   0  0  0  0  0
    0.7942   26.9386   64.8135 N   0  0  0  0  0
    1.8553   24.8982   65.5814 N   0  0  0  0  0
  1 13  1  0  0  0
  2 15  1  0  0  0
  3 16  1  0  0  0
  4  3  1  0  0  0
  4 17  1  0  0  0
  5 17  1  0  0  0
  5 21  1  0  0  0
  5 11  1  0  0  0
  7 22  1  0  0  0
  8 23  1  0  0  0
  8 21  1  0  0  0
  9 24  1  0  0  0
 10 25  1  0  0  0
 10  7  1  0  0  0
 11 18  1  0  0  0
 11 12  1  0  0  0
 12 19  1  0  0  0
 12  4  1  0  0  0
 20 13  1  0  0  0
 20 15  1  0  0  0
 20 16  1  0  0  0
 21  6  1  0  0  0
  6 22  2  0  0  0
  7  8  2  0  0  0
  9 23  2  0  0  0
 10 24  2  0  0  0
 20 14  2  0  0  0
M  END
> <rmsd>
0.693471253

$$$$
PubChem-89399144


 24 25  0  0  0  0  0  0  0  0999 V2000
    2.5424   32.0635   58.6694 C   0  0  0  0  0
    2.4116   31.4245   60.0371 C   0  0  0  0  0
    1.4771   32.2595   60.8898 C   0  0  0  0  0
    2.8265   29.3052   60.5278 C   0  0  0  0  0
    2.4908   27.8469   60.2529 C   0  0  0  0  0
    2.9897   27.4316   58.8733 C   0  0  0  0  0
    0.8609   27.8171   57.5694 C   0  0  0  0  0
    1.5111   29.2109   56.1045 C   0  0  0  0  0
    2.5645   28.9016   56.8895 C   0  0  0  0  0
    3.9604   30.3303   55.6876 C   0  0  0  0  0
    1.6672   30.1143   55.0633 C   0  0  0  0  0
    2.0423   26.4329   61.8950 C   0  0  0  0  0
    1.0141   24.6525   64.2764 C   0  0  0  0  0
    1.8940   30.1358   59.9018 O   0  0  0  0  0
    3.0996   27.0462   61.2201 O   0  0  0  0  0
    3.5124   26.1890   64.1803 O   0  0  0  0  0
    2.1611   28.4105   63.9487 O   0  0  0  0  0
    0.9061   26.0237   64.5172 O   0  0  0  0  0
    2.1773   28.0302   57.8237 N   0  0  0  0  0
    0.4131   28.5412   56.5038 N   0  0  0  0  0
    3.7957   29.4394   56.7125 N   0  0  0  0  0
    2.9048   30.6613   54.8747 N   0  0  0  0  0
    0.5797   30.4669   54.2158 N   0  0  0  0  0
    2.1959   26.7414   63.6797 P   0  0  0  0  0
  1  2  1  0  0  0
  2  3  1  0  0  0
  2 14  1  0  0  0
  4 14  1  0  0  0
  5  4  1  0  0  0
  5  6  1  0  0  0
  5 15  1  0  0  0
  6 19  1  0  0  0
  8 20  1  0  0  0
  9 21  1  0  0  0
  9 19  1  0  0  0
 10 22  1  0  0  0
 11 23  1  0  0  0
 11  8  1  0  0  0
 12 15  1  0  0  0
 12 24  1  0  0  0
 13 18  1  0  0  0
 19  7  1  0  0  0
 24 17  1  0  0  0
 24 18  1  0  0  0
  7 20  2  0  0  0
  8  9  2  0  0  0
 10 21  2  0  0  0
 11 22  2  0  0  0
 24 16  2  0  0  0
M  END
> <rmsd>
0.75187391

$$$$
PubChem-11303750


 23 24  0  0  0  0  0  0  0  0999 V2000
    3.6747   21.1204   64.7231 C   0  0  0  0  0
    2.8588   22.1482   64.5139 C   0  0  0  0  0
    3.4147   23.5195   64.3503 C   0  0  0  0  0
    2.5614   25.8540   63.9342 C   0  0  0  0  0
    4.0497   27.7143   63.7507 C   0  0  0  0  0
    1.7526   28.0465   63.5350 C   0  0  0  0  0
    1.5080   26.7320   63.7214 C   0  0  0  0  0
   -0.3488   27.7153   63.4063 C   0  0  0  0  0
    0.3909   30.0986   63.0483 C   0  0  0  0  0
    0.2615   30.3206   61.5496 C   0  0  0  0  0
    1.6119   30.1496   60.8762 C   0  0  0  0  0
    2.5863   29.4929   59.0108 C   0  0  0  0  0
    2.3285   24.4587   64.1295 N   0  0  0  0  0
    3.8272   26.3739   63.9449 N   0  0  0  0  0
    3.0029   28.5693   63.5412 N   0  0  0  0  0
    0.1863   26.4840   63.6478 N   0  0  0  0  0
    0.5965   28.6871   63.3401 N   0  0  0  0  0
    1.4548   30.1511   59.4907 O   0  0  0  0  0
    3.6706   28.5595   56.6985 O   0  0  0  0  0
    2.3864   30.8299   56.4871 O   0  0  0  0  0
    1.0607   28.4317   56.8317 O   0  0  0  0  0
   -0.2168   31.6093   61.3147 O   0  0  0  0  0
    2.4594   29.3036   57.2119 P   0  0  0  0  0
  3  2  1  0  0  0
  3 13  1  0  0  0
  5 14  1  0  0  0
  6 15  1  0  0  0
  7 16  1  0  0  0
  7  4  1  0  0  0
  8 17  1  0  0  0
  9 17  1  0  0  0
 10  9  1  0  0  0
 10 11  1  0  0  0
 10 22  1  0  0  0
 11 18  1  0  0  0
 12 18  1  0  0  0
 12 23  1  0  0  0
 13  4  1  0  0  0
 17  6  1  0  0  0
 23 20  1  0  0  0
 23 21  1  0  0  0
  1  2  2  0  0  0
  4 14  2  0  0  0
  5 15  2  0  0  0
  6  7  2  0  0  0
  8 16  2  0  0  0
 23 19  2  0  0  0
M  END
> <rmsd>
0.674383819

$$$$
PubChem-156730352


 27 30  0  0  0  0  0  0  0  0999 V2000
    3.5728   32.4676   54.6610 B   0  0  0  0  0
    3.6546   33.9665   55.1782 C   0  0  0  0  0
    2.2646   34.4718   55.5078 C   0  0  0  0  0
    3.2297   34.1668   56.6381 C   0  0  0  0  0
    2.7529   32.9628   57.4185 C   0  0  0  0  0
    2.7209   31.6474   56.8945 C   0  0  0  0  0
    2.2737   30.5730   57.7038 C   0  0  0  0  0
    1.8617   30.8334   59.0324 C   0  0  0  0  0
    1.9018   32.1426   59.5278 C   0  0  0  0  0
    2.3444   33.1913   58.7308 C   0  0  0  0  0
    1.0364   29.9635   61.2114 C   0  0  0  0  0
    2.2488   29.8661   62.1103 C   0  0  0  0  0
    0.6665   28.6252   61.8057 C   0  0  0  0  0
    1.4474   28.7601   64.0178 C   0  0  0  0  0
    1.7231   27.5182   64.8630 C   0  0  0  0  0
    1.2223   27.7764   66.2704 C   0  0  0  0  0
    3.2001   27.2326   64.9128 C   0  0  0  0  0
    2.2406   29.1865   57.1632 C   0  0  0  0  0
    3.1114   31.3977   55.5756 O   0  0  0  0  0
    1.4281   29.7840   59.8548 O   0  0  0  0  0
    3.6598   26.1329   64.5032 O   0  0  0  0  0
    4.0752   28.1913   65.4111 O   0  0  0  0  0
    1.4895   28.3145   57.6751 O   0  0  0  0  0
    3.0396   28.8242   56.0851 O   0  0  0  0  0
    3.9844   32.1390   53.3001 O   0  0  0  0  0
    1.8642   28.5627   62.6337 N   0  0  0  0  0
    0.9953   26.3824   64.3147 N   0  0  0  0  0
  1 25  1  0  0  0
  1 19  1  0  0  0
  2  1  1  0  0  0
  2  3  1  0  0  0
  3  4  1  0  0  0
  4  5  1  0  0  0
  4  2  1  0  0  0
  6 19  1  0  0  0
  6  7  1  0  0  0
  7 18  1  0  0  0
  8  9  1  0  0  0
  8 20  1  0  0  0
 10  5  1  0  0  0
 11 20  1  0  0  0
 11 12  1  0  0  0
 12 26  1  0  0  0
 13 26  1  0  0  0
 13 11  1  0  0  0
 14 26  1  0  0  0
 14 15  1  0  0  0
 15 16  1  0  0  0
 15 17  1  0  0  0
 15 27  1  0  0  0
 17 22  1  0  0  0
 18 24  1  0  0  0
  5  6  2  0  0  0
  7  8  2  0  0  0
  9 10  2  0  0  0
 17 21  2  0  0  0
 18 23  2  0  0  0
M  END
> <rmsd>
0.743592083

$$$$
PubChem-145911319 1875397570 MCULE-1194883781 MolPort-046-829-111


 22 23  0  0  0  0  0  0  0  0999 V2000
   -0.1899   26.7919   64.2370 C   0  0  0  0  0
    2.1628   27.1460   63.6034 C   0  0  0  0  0
    4.4427   27.4424   63.0520 C   0  0  0  0  0
    4.0892   28.2492   61.9724 C   0  0  0  0  0
    2.7334   28.4888   61.7324 C   0  0  0  0  0
    2.3114   29.3320   60.6040 C   0  0  0  0  0
    2.9295   30.7043   58.5642 C   0  0  0  0  0
    3.0355   29.8753   57.2652 C   0  0  0  0  0
    2.0182   28.7294   57.3439 C   0  0  0  0  0
    4.4490   29.2726   57.1629 C   0  0  0  0  0
    4.5590   29.4202   54.9264 C   0  0  0  0  0
    3.1832   30.0915   54.8005 C   0  0  0  0  0
    2.1382   29.1258   54.2673 C   0  0  0  0  0
    3.4239   32.0117   56.1337 C   0  0  0  0  0
    1.1992   26.5797   64.4385 O   0  0  0  0  0
    1.0837   29.5369   60.4010 O   0  0  0  0  0
    0.7108   29.2223   57.3505 O   0  0  0  0  0
    4.5687   28.5074   55.9916 O   0  0  0  0  0
    3.4785   26.9075   63.8449 N   0  0  0  0  0
    1.8005   27.9325   62.5519 N   0  0  0  0  0
    3.2891   29.9236   59.7435 N   0  0  0  0  0
    2.7476   30.7158   56.0649 N   0  0  0  0  0
  1 15  1  0  0  0
  2 15  1  0  0  0
  2 20  1  0  0  0
  3 19  1  0  0  0
  4  5  1  0  0  0
  5  6  1  0  0  0
  6 21  1  0  0  0
  7 21  1  0  0  0
  8  7  1  0  0  0
  8  9  1  0  0  0
  8 10  1  0  0  0
  8 22  1  0  0  0
  9 17  1  0  0  0
 10 18  1  0  0  0
 11 18  1  0  0  0
 11 12  1  0  0  0
 12 13  1  0  0  0
 12 22  1  0  0  0
 14 22  1  0  0  0
  2 19  2  0  0  0
  3  4  2  0  0  0
  5 20  2  0  0  0
  6 16  2  0  0  0
M  END
> <rmsd>
0.835957706

$$$$
PubChem-163028132


 22 22  0  0  0  0  0  0  0  0999 V2000
   -1.6180   30.5205   58.6334 C   0  0  0  0  0
   -2.8344   32.0562   55.9552 C   0  0  0  0  0
   -0.3146   29.9034   55.5829 C   0  0  0  0  0
    1.0028   29.4084   56.1730 C   0  0  0  0  0
    2.0283   30.5072   56.2605 C   0  0  0  0  0
    2.8709   30.0849   57.4296 C   0  0  0  0  0
    1.9220   29.2252   58.2393 C   0  0  0  0  0
    1.5845   29.0506   60.4189 C   0  0  0  0  0
    0.8130   29.5832   61.6142 C   0  0  0  0  0
    0.7544   28.5398   62.7197 C   0  0  0  0  0
   -1.3129   31.1245   56.7845 As  0  0  0  0  0
   -0.2549   32.3651   57.0023 O   0  0  0  0  0
    1.4786   29.9434   59.3512 O   0  0  0  0  0
    2.0367   28.2589   63.2039 O   0  0  0  0  0
    1.1013   26.2789   64.6305 O   0  0  0  0  0
    3.4399   26.1916   63.9111 O   0  0  0  0  0
    1.6088   25.7535   62.1289 O   0  0  0  0  0
    1.4082   30.7532   62.0893 O   0  0  0  0  0
    0.8135   28.8489   57.4492 O   0  0  0  0  0
    3.9497   29.2975   57.0164 O   0  0  0  0  0
    2.7701   30.5841   55.0789 O   0  0  0  0  0
    2.0515   26.6023   63.5111 S   0  0  0  0  0
  1 11  1  0  0  0
  4  3  1  0  0  0
  4  5  1  0  0  0
  4 19  1  0  0  0
  5  6  1  0  0  0
  5 21  1  0  0  0
  6  7  1  0  0  0
  6 20  1  0  0  0
  7 13  1  0  0  0
  7 19  1  0  0  0
  8 13  1  0  0  0
  8  9  1  0  0  0
  9 10  1  0  0  0
  9 18  1  0  0  0
 10 14  1  0  0  0
 11  2  1  0  0  0
 11  3  1  0  0  0
 22 14  1  0  0  0
 22 17  1  0  0  0
 11 12  2  0  0  0
 22 15  2  0  0  0
 22 16  2  0  0  0
M  END
> <rmsd>
0.616545737

$$$$
PubChem-88055511


 18 17  0  0  0  0  0  0  0  0999 V2000
    4.5636   29.3060   61.3081 C   0  0  0  0  0
    3.0915   29.5971   61.5712 C   0  0  0  0  0
    2.1569   28.4871   61.0651 C   0  0  0  0  0
    0.7136   28.9082   61.3846 C   0  0  0  0  0
   -0.3227   27.8936   60.9176 C   0  0  0  0  0
    2.3304   28.3049   59.5350 C   0  0  0  0  0
    2.0499   29.5100   58.6708 C   0  0  0  0  0
    2.4760   27.1889   61.7981 C   0  0  0  0  0
    1.6997   30.5763   59.1527 O   0  0  0  0  0
    2.3978   30.7301   56.3264 O   0  0  0  0  0
    1.0029   28.7120   56.3533 O   0  0  0  0  0
    3.5823   28.4389   56.5797 O   0  0  0  0  0
    2.8578   26.2065   61.1791 O   0  0  0  0  0
    2.1225   28.4073   64.1728 O   0  0  0  0  0
    1.1039   26.2008   63.8669 O   0  0  0  0  0
    3.6822   26.3396   64.1889 O   0  0  0  0  0
    2.2259   29.3654   56.9314 S   0  0  0  0  0
    2.3013   27.0511   63.5505 S   0  0  0  0  0
  1  2  1  0  0  0
  2  3  1  0  0  0
  3  4  1  0  0  0
  3  6  1  0  0  0
  3  8  1  0  0  0
  4  5  1  0  0  0
  6  7  1  0  0  0
 17  7  1  0  0  0
 17 12  1  0  0  0
 18  8  1  0  0  0
 18 16  1  0  0  0
  7  9  2  0  0  0
  8 13  2  0  0  0
 17 10  2  0  0  0
 17 11  2  0  0  0
 18 14  2  0  0  0
 18 15  2  0  0  0
M  END
> <rmsd>
0.798755169

$$$$
PubChem-15497300


 17 18  0  0  0  0  0  0  0  0999 V2000
    0.7181   27.9809   59.2954 C   0  0  0  0  0
    1.9758   26.7010   60.8496 C   0  0  0  0  0
    1.2454   28.8954   61.4212 C   0  0  0  0  0
    2.2997   29.8188   59.4809 C   0  0  0  0  0
    3.0681   27.5096   58.8791 C   0  0  0  0  0
    1.7975   27.0070   59.4267 N   0  0  0  0  0
    2.3097   27.9062   61.6137 N   0  0  0  0  0
    1.0643   29.2106   60.0007 N   0  0  0  0  0
    3.0836   28.9536   58.5803 N   0  0  0  0  0
    2.6756   29.2530   56.9158 S   0  0  0  0  0
    2.3220   27.4733   63.2915 S   0  0  0  0  0
    3.7226   28.6370   56.0312 O   0  0  0  0  0
    1.3357   28.6646   56.5738 O   0  0  0  0  0
    2.6357   30.9099   56.6381 O   0  0  0  0  0
    2.6280   28.6875   64.1227 O   0  0  0  0  0
    3.3785   26.4324   63.5352 O   0  0  0  0  0
    0.8226   26.8578   63.7383 O   0  0  0  0  0
  1  6  1  0  0  0
  1  8  1  0  0  0
  2  6  1  0  0  0
  2  7  1  0  0  0
  3  7  1  0  0  0
  3  8  1  0  0  0
  4  8  1  0  0  0
  4  9  1  0  0  0
  5  9  1  0  0  0
  5  6  1  0  0  0
 10  9  1  0  0  0
 10 14  1  0  0  0
 11  7  1  0  0  0
 11 17  1  0  0  0
 10 12  2  0  0  0
 10 13  2  0  0  0
 11 15  2  0  0  0
 11 16  2  0  0  0
M  END
> <rmsd>
0.822096467

$$$$
PubChem-15497300


 17 18  0  0  0  0  0  0  0  0999 V2000
    0.8084   27.8307   59.2505 C   0  0  0  0  0
    2.1770   26.7131   60.8353 C   0  0  0  0  0
    1.1360   28.7799   61.4016 C   0  0  0  0  0
    2.1168   29.8655   59.5070 C   0  0  0  0  0
    3.2124   27.6906   58.9113 C   0  0  0  0  0
    2.0055   27.0116   59.4099 N   0  0  0  0  0
    2.3184   27.9420   61.6214 N   0  0  0  0  0
    0.9601   29.0868   59.9786 N   0  0  0  0  0
    3.0406   29.1271   58.6260 N   0  0  0  0  0
    2.6515   29.3885   56.9507 S   0  0  0  0  0
    2.3347   27.4917   63.2945 S   0  0  0  0  0
    2.8392   30.8423   56.6203 O   0  0  0  0  0
    1.2298   28.9982   56.6591 O   0  0  0  0  0
    3.6812   28.4746   55.9873 O   0  0  0  0  0
    2.4450   28.7248   64.1469 O   0  0  0  0  0
    3.5147   26.6009   63.5648 O   0  0  0  0  0
    0.9196   26.6722   63.6842 O   0  0  0  0  0
  1  6  1  0  0  0
  1  8  1  0  0  0
  2  6  1  0  0  0
  2  7  1  0  0  0
  3  7  1  0  0  0
  3  8  1  0  0  0
  4  8  1  0  0  0
  4  9  1  0  0  0
  5  9  1  0  0  0
  5  6  1  0  0  0
 10  9  1  0  0  0
 10 14  1  0  0  0
 11  7  1  0  0  0
 11 17  1  0  0  0
 10 12  2  0  0  0
 10 13  2  0  0  0
 11 15  2  0  0  0
 11 16  2  0  0  0
M  END
> <rmsd>
0.84857899

$$$$
PubChem-15497300


 17 18  0  0  0  0  0  0  0  0999 V2000
    0.7182   27.9814   59.2954 C   0  0  0  0  0
    2.3000   29.8190   59.4810 C   0  0  0  0  0
    3.0681   27.5096   58.8790 C   0  0  0  0  0
    1.9755   26.7011   60.8496 C   0  0  0  0  0
    1.2456   28.8956   61.4213 C   0  0  0  0  0
    1.0646   29.2110   60.0008 N   0  0  0  0  0
    3.0837   28.9537   58.5803 N   0  0  0  0  0
    1.7974   27.0074   59.4266 N   0  0  0  0  0
    2.3097   27.9063   61.6137 N   0  0  0  0  0
    2.3219   27.4733   63.2915 S   0  0  0  0  0
    2.6758   29.2533   56.9158 S   0  0  0  0  0
    2.6282   28.6874   64.1228 O   0  0  0  0  0
    3.3783   26.4322   63.5352 O   0  0  0  0  0
    0.8225   26.8581   63.7384 O   0  0  0  0  0
    1.3358   28.6651   56.5739 O   0  0  0  0  0
    3.7227   28.6373   56.0313 O   0  0  0  0  0
    2.6361   30.9101   56.6383 O   0  0  0  0  0
  1  6  1  0  0  0
  1  8  1  0  0  0
  2  6  1  0  0  0
  2  7  1  0  0  0
  3  7  1  0  0  0
  3  8  1  0  0  0
  4  8  1  0  0  0
  4  9  1  0  0  0
  5  9  1  0  0  0
  5  6  1  0  0  0
 10  9  1  0  0  0
 10 14  1  0  0  0
 11  7  1  0  0  0
 11 17  1  0  0  0
 10 12  2  0  0  0
 10 13  2  0  0  0
 11 15  2  0  0  0
 11 16  2  0  0  0
M  END
> <rmsd>
0.82214123

$$$$
PubChem-15497300


 17 18  0  0  0  0  0  0  0  0999 V2000
    0.8085   27.8307   59.2505 C   0  0  0  0  0
    2.1770   26.7131   60.8354 C   0  0  0  0  0
    1.1361   28.7798   61.4017 C   0  0  0  0  0
    2.1168   29.8656   59.5070 C   0  0  0  0  0
    3.2124   27.6905   58.9113 C   0  0  0  0  0
    2.0055   27.0115   59.4099 N   0  0  0  0  0
    2.3183   27.9420   61.6215 N   0  0  0  0  0
    0.9601   29.0868   59.9786 N   0  0  0  0  0
    3.0406   29.1271   58.6260 N   0  0  0  0  0
    2.6515   29.3885   56.9506 S   0  0  0  0  0
    2.3347   27.4918   63.2945 S   0  0  0  0  0
    1.2297   28.9981   56.6591 O   0  0  0  0  0
    2.8391   30.8423   56.6202 O   0  0  0  0  0
    3.6812   28.4747   55.9873 O   0  0  0  0  0
    3.5148   26.6011   63.5649 O   0  0  0  0  0
    2.4450   28.7249   64.1468 O   0  0  0  0  0
    0.9196   26.6721   63.6841 O   0  0  0  0  0
  1  6  1  0  0  0
  1  8  1  0  0  0
  2  6  1  0  0  0
  2  7  1  0  0  0
  3  7  1  0  0  0
  3  8  1  0  0  0
  4  8  1  0  0  0
  4  9  1  0  0  0
  5  9  1  0  0  0
  5  6  1  0  0  0
 10  9  1  0  0  0
 10 14  1  0  0  0
 11  7  1  0  0  0
 11 17  1  0  0  0
 10 12  2  0  0  0
 10 13  2  0  0  0
 11 15  2  0  0  0
 11 16  2  0  0  0
M  END
> <rmsd>
0.84857899

$$$$
PubChem-68850086


 37 42  0  0  0  0  0  0  0  0999 V2000
    5.5001   23.4607   71.6255 C   0  0  0  0  0
    5.1286   24.0720   70.3231 C   0  0  0  0  0
    3.7907   24.0997   69.9203 C   0  0  0  0  0
    3.4412   24.6743   68.6947 C   0  0  0  0  0
    4.4273   25.2248   67.8629 C   0  0  0  0  0
    5.7680   25.1932   68.2748 C   0  0  0  0  0
    6.1172   24.6183   69.5004 C   0  0  0  0  0
    4.0586   25.8333   66.5727 C   0  0  0  0  0
    2.7867   25.9295   66.0416 C   0  0  0  0  0
    4.9189   26.4213   65.6601 C   0  0  0  0  0
    1.8409   26.8670   63.9624 C   0  0  0  0  0
    1.0581   27.7907   61.9654 C   0  0  0  0  0
   -0.2154   27.4647   62.2689 C   0  0  0  0  0
   -0.4992   26.8151   63.4609 C   0  0  0  0  0
   -2.1783   25.7898   65.0536 C   0  0  0  0  0
   -3.6199   25.3795   65.0166 C   0  0  0  0  0
   -4.2568   26.1711   66.1352 C   0  0  0  0  0
   -2.1164   26.7765   66.2003 C   0  0  0  0  0
   -0.2086   28.4226   60.3741 C   0  0  0  0  0
    2.2656   28.8744   60.0539 C   0  0  0  0  0
    2.8613   27.8042   59.1568 C   0  0  0  0  0
    3.5810   28.6570   58.1541 C   0  0  0  0  0
    2.7917   29.9669   58.1454 C   0  0  0  0  0
    1.9622   30.1735   56.9150 C   0  0  0  0  0
    2.9136   26.5542   64.8567 N   0  0  0  0  0
    4.1811   26.8529   64.6194 N   0  0  0  0  0
    2.1023   27.5088   62.7810 N   0  0  0  0  0
    0.5495   26.5275   64.2905 N   0  0  0  0  0
   -1.8401   26.4586   63.8057 N   0  0  0  0  0
   -1.0477   27.8498   61.2835 N   0  0  0  0  0
    1.0886   28.4033   60.7791 N   0  0  0  0  0
   -3.4133   27.2439   66.4550 O   0  0  0  0  0
    1.9614   30.0139   59.2839 O   0  0  0  0  0
    2.2242   31.1286   56.1392 O   0  0  0  0  0
    0.8988   29.3250   56.6310 O   0  0  0  0  0
    3.6703   28.0447   56.8980 O   0  0  0  0  0
    1.8488   27.0649   58.5327 O   0  0  0  0  0
  1  2  1  0  0  0
  3  4  1  0  0  0
  5  6  1  0  0  0
  5  8  1  0  0  0
  7  2  1  0  0  0
  9 25  1  0  0  0
 10  8  1  0  0  0
 11 28  1  0  0  0
 12 27  1  0  0  0
 13 14  1  0  0  0
 13 30  1  0  0  0
 14 29  1  0  0  0
 15 29  1  0  0  0
 15 16  1  0  0  0
 16 17  1  0  0  0
 17 32  1  0  0  0
 18 32  1  0  0  0
 18 15  1  0  0  0
 19 31  1  0  0  0
 20 31  1  0  0  0
 20 21  1  0  0  0
 20 33  1  0  0  0
 21 22  1  0  0  0
 21 37  1  0  0  0
 22 23  1  0  0  0
 22 36  1  0  0  0
 23 33  1  0  0  0
 23 24  1  0  0  0
 24 35  1  0  0  0
 25 26  1  0  0  0
 25 11  1  0  0  0
 31 12  1  0  0  0
  2  3  2  0  0  0
  4  5  2  0  0  0
  6  7  2  0  0  0
  8  9  2  0  0  0
 10 26  2  0  0  0
 11 27  2  0  0  0
 12 13  2  0  0  0
 14 28  2  0  0  0
 19 30  2  0  0  0
 24 34  2  0  0  0
M  END
> <rmsd>
0.824226618

$$$$
PubChem-87102891


 18 18  0  0  0  0  0  0  0  0999 V2000
    1.5346   28.4064   60.2530 C   0  0  0  0  0
    1.0286   28.7917   58.8656 C   0  0  0  0  0
    2.0687   28.4476   57.7979 C   0  0  0  0  0
    2.5418   27.0074   58.0093 C   0  0  0  0  0
    2.0574   26.9679   60.2138 C   0  0  0  0  0
    2.5546   26.5598   61.5878 C   0  0  0  0  0
    3.1122   26.8719   59.2880 O   0  0  0  0  0
    1.4745   26.4202   62.4632 O   0  0  0  0  0
    2.4870   28.2642   64.0156 O   0  0  0  0  0
    0.9920   26.5980   65.0076 O   0  0  0  0  0
    3.3885   25.8446   64.3656 O   0  0  0  0  0
    1.5000   28.5703   56.5262 O   0  0  0  0  0
    3.8906   29.0173   55.5534 O   0  0  0  0  0
    2.5848   30.9481   56.3359 O   0  0  0  0  0
    1.8846   29.8093   54.1144 O   0  0  0  0  0
    0.7471   30.1571   58.8352 O   0  0  0  0  0
    2.0719   26.8191   63.9871 S   0  0  0  0  0
    2.5115   29.6071   55.6592 S   0  0  0  0  0
  1  2  1  0  0  0
  2  3  1  0  0  0
  2 16  1  0  0  0
  3  4  1  0  0  0
  3 12  1  0  0  0
  4  7  1  0  0  0
  5  7  1  0  0  0
  5  6  1  0  0  0
  5  1  1  0  0  0
  6  8  1  0  0  0
 17  8  1  0  0  0
 17 11  1  0  0  0
 18 12  1  0  0  0
 18 15  1  0  0  0
 17  9  2  0  0  0
 17 10  2  0  0  0
 18 13  2  0  0  0
 18 14  2  0  0  0
M  END
> <rmsd>
0.848185122

$$$$
PubChem-96366158


 22 24  0  0  0  0  0  0  0  0999 V2000
    4.5682   30.1320   55.8832 C   0  0  0  0  0
    3.6053   31.2917   55.5937 C   0  0  0  0  0
    1.8143   31.1513   56.8994 C   0  0  0  0  0
    1.9852   29.9508   57.8338 C   0  0  0  0  0
    3.4607   29.5358   57.9167 C   0  0  0  0  0
    1.4952   30.3620   59.2164 C   0  0  0  0  0
    1.0874   29.7413   61.4270 C   0  0  0  0  0
    1.1198   28.6453   62.4335 C   0  0  0  0  0
    1.7689   27.1308   63.7164 C   0  0  0  0  0
    2.6140   26.1709   64.4395 C   0  0  0  0  0
    4.7599   25.2574   64.8693 C   0  0  0  0  0
    4.2008   24.3745   65.7944 C   0  0  0  0  0
    2.0564   25.2836   65.3670 C   0  0  0  0  0
    2.2732   30.8608   55.6068 O   0  0  0  0  0
    1.2118   28.8842   57.3658 O   0  0  0  0  0
    3.9344   29.0414   56.6264 N   0  0  0  0  0
    1.5320   29.2384   60.1399 N   0  0  0  0  0
    2.2449   28.0063   62.8084 N   0  0  0  0  0
    0.4363   27.2341   63.8835 N   0  0  0  0  0
    0.0266   28.1931   63.0721 N   0  0  0  0  0
    3.9554   26.1347   64.2130 N   0  0  0  0  0
    2.8614   24.4067   66.0229 N   0  0  0  0  0
  1  2  1  0  0  0
  1 16  1  0  0  0
  2 14  1  0  0  0
  3 14  1  0  0  0
  3  4  1  0  0  0
  4  5  1  0  0  0
  4  6  1  0  0  0
  4 15  1  0  0  0
  5 16  1  0  0  0
  6 17  1  0  0  0
  7 17  1  0  0  0
  7  8  1  0  0  0
  9 18  1  0  0  0
  9 10  1  0  0  0
 11 21  1  0  0  0
 12 22  1  0  0  0
 13 10  1  0  0  0
 20 19  1  0  0  0
 20  8  1  0  0  0
  8 18  2  0  0  0
  9 19  2  0  0  0
 10 21  2  0  0  0
 11 12  2  0  0  0
 13 22  2  0  0  0
M  END
> <rmsd>
0.604957938

$$$$
PubChem-20709852


 28 30  0  0  0  0  0  0  0  0999 V2000
    5.1620   30.7715   55.6169 C   0  0  0  0  0
    3.8490   30.0073   55.6080 C   0  0  0  0  0
    3.2592   28.9225   57.4751 C   0  0  0  0  0
    2.0917   27.9497   57.4458 C   0  0  0  0  0
    1.1632   29.9939   57.6633 C   0  0  0  0  0
    2.6338   30.2684   57.4567 C   0  0  0  0  0
   -0.5132   30.3250   59.1026 C   0  0  0  0  0
   -1.0373   29.6789   60.3383 C   0  0  0  0  0
   -1.6253   30.4615   61.3371 C   0  0  0  0  0
   -2.1123   29.8603   62.5023 C   0  0  0  0  0
   -2.0112   28.4756   62.6701 C   0  0  0  0  0
   -1.4267   27.6911   61.6712 C   0  0  0  0  0
   -0.9407   28.2917   60.5059 C   0  0  0  0  0
    1.9777   27.1768   58.7534 C   0  0  0  0  0
    2.0312   26.3820   61.6999 C   0  0  0  0  0
    3.4769   29.7060   54.1700 C   0  0  0  0  0
    4.0049   28.7949   56.3033 O   0  0  0  0  0
    0.9035   28.6744   57.2405 O   0  0  0  0  0
    2.8398   30.7970   56.1842 O   0  0  0  0  0
    0.8678   30.1279   59.0261 O   0  0  0  0  0
    3.1623   26.4958   59.0445 O   0  0  0  0  0
    3.7834   28.3060   60.8385 O   0  0  0  0  0
    2.3858   28.4066   63.4953 O   0  0  0  0  0
    0.9248   26.4109   64.3340 O   0  0  0  0  0
    3.6609   26.1912   64.0589 O   0  0  0  0  0
    4.8114   25.9297   61.1800 O   0  0  0  0  0
    3.4734   26.8339   60.6789 P   0  0  0  0  0
    2.2633   26.9020   63.4255 P   0  0  0  0  0
  1  2  1  0  0  0
  2 17  1  0  0  0
  2 16  1  0  0  0
  2 19  1  0  0  0
  3 17  1  0  0  0
  3  4  1  0  0  0
  4 18  1  0  0  0
  4 14  1  0  0  0
  5 18  1  0  0  0
  5  6  1  0  0  0
  5 20  1  0  0  0
  6 19  1  0  0  0
  6  3  1  0  0  0
  7 20  1  0  0  0
  7  8  1  0  0  0
  9 10  1  0  0  0
 11 12  1  0  0  0
 13  8  1  0  0  0
 14 21  1  0  0  0
 15 28  1  0  0  0
 27 21  1  0  0  0
 27 15  1  0  0  0
 27 26  1  0  0  0
 28 24  1  0  0  0
 28 25  1  0  0  0
  8  9  2  0  0  0
 10 11  2  0  0  0
 12 13  2  0  0  0
 27 22  2  0  0  0
 28 23  2  0  0  0
M  END
> <rmsd>
0.478049725

$$$$
PubChem-122544981


 32 34  0  0  0  0  0  0  0  0999 V2000
   -2.1890   29.3723   62.7823 C   0  0  0  0  0
   -0.6997   29.0730   62.6614 C   0  0  0  0  0
   -0.3708   28.0171   61.5807 C   0  0  0  0  0
   -1.1240   26.7168   61.8467 C   0  0  0  0  0
   -0.8566   28.5133   60.2127 C   0  0  0  0  0
   -0.2857   29.8719   59.7920 C   0  0  0  0  0
   -0.8905   30.2730   58.4623 C   0  0  0  0  0
    0.1943   29.9900   57.4717 C   0  0  0  0  0
    1.4476   30.0613   58.3301 C   0  0  0  0  0
    2.7212   27.9665   58.4736 C   0  0  0  0  0
    3.7449   27.1549   58.0175 C   0  0  0  0  0
    4.1752   25.9189   58.4368 C   0  0  0  0  0
    5.2333   25.6556   57.5654 C   0  0  0  0  0
    4.5199   27.5555   56.9804 C   0  0  0  0  0
    3.3206   29.5577   56.7984 C   0  0  0  0  0
    6.0478   24.4128   57.6098 C   0  0  0  0  0
    3.4020   26.6444   62.5948 C   0  0  0  0  0
    3.2061   25.3798   61.7764 C   0  0  0  0  0
    4.2321   27.6620   61.8144 C   0  0  0  0  0
    5.6492   27.1778   61.5457 C   0  0  0  0  0
    1.1186   29.8042   59.6766 O   0  0  0  0  0
    3.1393   30.6686   56.2309 O   0  0  0  0  0
    0.0106   28.7043   56.9531 O   0  0  0  0  0
   -1.1590   31.6419   58.4742 O   0  0  0  0  0
    1.0222   27.7604   61.4624 O   0  0  0  0  0
    0.9567   26.3780   63.7518 O   0  0  0  0  0
    4.0369   26.3279   63.7972 O   0  0  0  0  0
    2.0010   28.7760   63.8711 O   0  0  0  0  0
    2.5163   29.1722   57.8526 N   0  0  0  0  0
    5.4564   26.6495   56.6698 N   0  0  0  0  0
    4.3264   28.7430   56.3601 N   0  0  0  0  0
    1.7753   27.3706   62.9555 P   0  0  0  0  0
  1  2  1  0  0  0
  2  3  1  0  0  0
  3  4  1  0  0  0
  3  5  1  0  0  0
  3 25  1  0  0  0
  6  5  1  0  0  0
  6  7  1  0  0  0
  6 21  1  0  0  0
  7  8  1  0  0  0
  7 24  1  0  0  0
  8  9  1  0  0  0
  8 23  1  0  0  0
  9 21  1  0  0  0
  9 29  1  0  0  0
 11 12  1  0  0  0
 13 30  1  0  0  0
 14 11  1  0  0  0
 15 31  1  0  0  0
 15 29  1  0  0  0
 16 13  1  0  0  0
 17 18  1  0  0  0
 17 19  1  0  0  0
 17 27  1  0  0  0
 19 20  1  0  0  0
 29 10  1  0  0  0
 30 14  1  0  0  0
 32 25  1  0  0  0
 32 17  1  0  0  0
 32 28  1  0  0  0
 10 11  2  0  0  0
 12 13  2  0  0  0
 14 31  2  0  0  0
 15 22  2  0  0  0
 32 26  2  0  0  0
M  END
> <rmsd>
0.645315766

$$$$
PubChem-11202936


 30 33  0  0  0  0  0  0  0  0999 V2000
   -0.8293   31.6560   63.5844 C   0  0  0  0  0
   -1.1092   30.4198   64.1879 C   0  0  0  0  0
   -0.9291   29.2264   63.4764 C   0  0  0  0  0
   -0.4452   29.2827   62.1653 C   0  0  0  0  0
   -0.1835   30.5174   61.5581 C   0  0  0  0  0
   -0.3732   31.7120   62.2610 C   0  0  0  0  0
    0.2325   30.3668   60.1066 C   0  0  0  0  0
   -0.9040   29.6172   59.4241 C   0  0  0  0  0
   -1.6680   30.0476   58.3341 C   0  0  0  0  0
   -2.6932   29.2217   57.8544 C   0  0  0  0  0
   -2.9532   27.9838   58.4640 C   0  0  0  0  0
   -2.1914   27.5585   59.5604 C   0  0  0  0  0
   -1.1659   28.3837   60.0334 C   0  0  0  0  0
   -0.2423   28.1171   61.2079 C   0  0  0  0  0
   -0.4584   26.7297   61.8329 C   0  0  0  0  0
    0.7383   26.2483   62.6463 C   0  0  0  0  0
    0.5982   31.7077   59.4511 C   0  0  0  0  0
    1.1309   31.5530   58.0313 C   0  0  0  0  0
    1.0867   28.2482   60.6778 O   0  0  0  0  0
    1.3548   29.4727   60.1264 O   0  0  0  0  0
    0.7235   26.8197   63.9204 O   0  0  0  0  0
    2.6660   28.4570   63.3018 O   0  0  0  0  0
    2.4094   27.7859   65.6412 O   0  0  0  0  0
    3.3731   26.0432   63.9812 O   0  0  0  0  0
    2.4323   31.0456   58.0551 O   0  0  0  0  0
    2.3383   30.6104   55.4794 O   0  0  0  0  0
    3.8386   29.2339   56.8388 O   0  0  0  0  0
    1.2938   28.7645   56.9924 O   0  0  0  0  0
    2.3053   27.3202   64.2169 S   0  0  0  0  0
    2.5020   29.9184   56.8041 S   0  0  0  0  0
  2  3  1  0  0  0
  4  5  1  0  0  0
  6  1  1  0  0  0
  7  5  1  0  0  0
  7  8  1  0  0  0
  7 17  1  0  0  0
  7 20  1  0  0  0
  9 10  1  0  0  0
 11 12  1  0  0  0
 13  8  1  0  0  0
 14 13  1  0  0  0
 14 19  1  0  0  0
 14 15  1  0  0  0
 14  4  1  0  0  0
 15 16  1  0  0  0
 16 21  1  0  0  0
 17 18  1  0  0  0
 18 25  1  0  0  0
 19 20  1  0  0  0
 29 21  1  0  0  0
 29 24  1  0  0  0
 30 25  1  0  0  0
 30 28  1  0  0  0
  1  2  2  0  0  0
  3  4  2  0  0  0
  5  6  2  0  0  0
  8  9  2  0  0  0
 10 11  2  0  0  0
 12 13  2  0  0  0
 29 22  2  0  0  0
 29 23  2  0  0  0
 30 26  2  0  0  0
 30 27  2  0  0  0
M  CHG  2  24  -1  28  -1
M  ISO  2  19   2  20   2
M  END
> <rmsd>
0.631299198

$$$$
PubChem-159992958


 29 30  0  0  0  0  0  0  0  0999 V2000
   -7.4313   25.7809   59.0879 C   0  0  0  0  0
   -6.1631   25.2297   58.8796 C   0  0  0  0  0
   -5.0188   25.9778   59.1732 C   0  0  0  0  0
   -5.1418   27.2770   59.6794 C   0  0  0  0  0
   -6.4118   27.8293   59.8824 C   0  0  0  0  0
   -7.5557   27.0807   59.5884 C   0  0  0  0  0
   -3.9235   28.0795   59.9752 C   0  0  0  0  0
   -3.5048   28.8688   58.7455 C   0  0  0  0  0
   -2.2376   29.6522   59.0318 C   0  0  0  0  0
   -1.0376   28.7218   59.0466 C   0  0  0  0  0
    0.1859   29.4585   59.4863 C   0  0  0  0  0
    0.9478   28.4754   61.9520 C   0  0  0  0  0
   -0.1859   27.4584   62.1114 C   0  0  0  0  0
    0.3898   26.1224   62.5782 C   0  0  0  0  0
    1.3759   26.2988   63.7398 C   0  0  0  0  0
    2.3155   27.4999   63.5282 C   0  0  0  0  0
    3.4748   27.1986   62.5788 C   0  0  0  0  0
    1.2044   29.5935   58.6979 N   0  0  0  0  0
    1.2000   29.0841   57.4190 O   0  0  0  0  0
    2.8401   30.7408   56.2232 O   0  0  0  0  0
    3.7541   28.6236   57.0612 O   0  0  0  0  0
    2.2682   28.5600   54.9294 O   0  0  0  0  0
    1.6167   28.6806   63.1771 O   0  0  0  0  0
    4.2998   26.2180   63.1300 O   0  0  0  0  0
    0.6734   26.4592   64.9346 O   0  0  0  0  0
    1.0211   25.4804   61.5117 O   0  0  0  0  0
   -1.1322   27.9173   63.0310 O   0  0  0  0  0
    2.5633   29.2771   56.4191 S   0  0  0  0  0
    0.2792   30.1718   61.2665 Se  0  0  0  0  0
  2  3  1  0  0  0
  4  5  1  0  0  0
  6  1  1  0  0  0
  7  4  1  0  0  0
  7  8  1  0  0  0
  8  9  1  0  0  0
  9 10  1  0  0  0
 10 11  1  0  0  0
 11 29  1  0  0  0
 12 29  1  0  0  0
 12 13  1  0  0  0
 12 23  1  0  0  0
 13 14  1  0  0  0
 13 27  1  0  0  0
 14 15  1  0  0  0
 14 26  1  0  0  0
 15 16  1  0  0  0
 15 25  1  0  0  0
 16 23  1  0  0  0
 16 17  1  0  0  0
 17 24  1  0  0  0
 18 19  1  0  0  0
 28 19  1  0  0  0
 28 22  1  0  0  0
  1  2  2  0  0  0
  3  4  2  0  0  0
  5  6  2  0  0  0
 11 18  2  0  0  0
 28 20  2  0  0  0
 28 21  2  0  0  0
M  CHG  1  22  -1
M  END
> <rmsd>
0.748782098

$$$$
PubChem-59068465


 19 19  0  0  0  0  0  0  0  0999 V2000
    6.0689   25.8345   59.5540 C   0  0  0  0  0
    4.8436   26.6582   59.7204 C   0  0  0  0  0
    4.7302   27.8799   59.0618 C   0  0  0  0  0
    3.5812   28.6609   59.2149 C   0  0  0  0  0
    2.5177   28.2168   60.0257 C   0  0  0  0  0
    2.6502   26.9775   60.7098 C   0  0  0  0  0
    3.8121   26.2150   60.5453 C   0  0  0  0  0
    1.6295   26.4642   61.6726 C   0  0  0  0  0
    0.0972   28.6122   60.5501 C   0  0  0  0  0
    3.4894   29.9545   58.4730 C   0  0  0  0  0
    2.0007   27.0319   63.3605 P   0  0  0  0  0
    2.7927   29.6915   56.8137 P   0  0  0  0  0
    0.9337   26.5248   64.3029 O   0  0  0  0  0
    3.5064   26.4336   63.8451 O   0  0  0  0  0
    2.0277   28.7224   63.4023 O   0  0  0  0  0
    1.3808   29.0397   60.1181 O   0  0  0  0  0
    2.7035   31.0177   56.0946 O   0  0  0  0  0
    3.7901   28.6447   55.9365 O   0  0  0  0  0
    1.2464   29.0189   56.9422 O   0  0  0  0  0
  1  2  1  0  0  0
  3  4  1  0  0  0
  5  6  1  0  0  0
  5 16  1  0  0  0
  7  2  1  0  0  0
  8  6  1  0  0  0
  8 11  1  0  0  0
  9 16  1  0  0  0
 10  4  1  0  0  0
 10 12  1  0  0  0
 11 14  1  0  0  0
 11 15  1  0  0  0
 12 18  1  0  0  0
 12 19  1  0  0  0
  2  3  2  0  0  0
  4  5  2  0  0  0
  6  7  2  0  0  0
 11 13  2  0  0  0
 12 17  2  0  0  0
M  END
> <rmsd>
0.650259852

$$$$
PubChem-53949189


 19 18  0  0  0  0  0  0  0  0999 V2000
   -0.8787   28.8338   64.6324 C   0  0  0  0  0
    0.2082   28.0197   63.9636 C   0  0  0  0  0
    1.5591   28.6483   64.2556 C   0  0  0  0  0
    3.3103   29.0611   62.7604 C   0  0  0  0  0
    3.6531   27.6980   60.8265 C   0  0  0  0  0
    3.9130   30.0462   60.7184 C   0  0  0  0  0
    1.7066   29.1379   60.9753 C   0  0  0  0  0
    1.3895   28.9421   59.4901 C   0  0  0  0  0
    1.2692   31.5872   56.1796 C   0  0  0  0  0
    3.5277   27.4137   64.4101 C   0  0  0  0  0
    2.5924   28.0001   63.4642 N   0  0  0  0  0
    3.1301   28.9722   61.3093 N   0  0  0  0  0
    1.7030   30.0980   58.7717 O   0  0  0  0  0
    3.4613   28.7545   57.3585 O   0  0  0  0  0
    0.9792   28.5913   56.5498 O   0  0  0  0  0
    2.4800   30.8958   56.2349 O   0  0  0  0  0
    4.1959   26.3454   63.8114 O   0  0  0  0  0
    0.1761   26.7145   64.4548 O   0  0  0  0  0
    2.1871   29.5601   57.2363 P   0  0  0  0  0
  2  1  1  0  0  0
  2  3  1  0  0  0
  2 18  1  0  0  0
  3 11  1  0  0  0
  4 11  1  0  0  0
  4 12  1  0  0  0
  7  8  1  0  0  0
  8 13  1  0  0  0
  9 16  1  0  0  0
 10 11  1  0  0  0
 10 17  1  0  0  0
 12  5  1  0  0  0
 12  6  1  0  0  0
 12  7  1  0  0  0
 19 13  1  0  0  0
 19 15  1  0  0  0
 19 16  1  0  0  0
 19 14  2  0  0  0
M  CHG  1  12   1
M  END
> <rmsd>
0.664107561

$$$$
PubChem-123700923


 32 34  0  0  0  0  0  0  0  0999 V2000
   -1.9955   31.0238   59.7712 C   0  0  0  0  0
   -0.9185   29.9874   59.5207 C   0  0  0  0  0
   -0.9634   28.9366   60.5879 C   0  0  0  0  0
    0.3294   29.1256   61.3463 C   0  0  0  0  0
    0.4474   30.6213   59.6909 C   0  0  0  0  0
    1.3439   32.1106   58.0241 C   0  0  0  0  0
    1.9699   32.3885   56.8154 C   0  0  0  0  0
    2.3457   31.3268   56.0002 C   0  0  0  0  0
    1.4788   29.7874   57.5864 C   0  0  0  0  0
    2.5248   28.9293   55.5425 C   0  0  0  0  0
    4.4952   28.3833   54.7057 C   0  0  0  0  0
    5.8880   28.8908   54.8502 C   0  0  0  0  0
    6.1225   30.2478   55.1026 C   0  0  0  0  0
    7.4328   30.7207   55.2256 C   0  0  0  0  0
    8.5094   29.8377   55.0942 C   0  0  0  0  0
    8.2757   28.4823   54.8414 C   0  0  0  0  0
    6.9656   28.0090   54.7185 C   0  0  0  0  0
    0.8945   27.7719   61.7312 C   0  0  0  0  0
    3.3846   27.7800   65.1864 C   0  0  0  0  0
    3.2781   27.4841   66.6693 C   0  0  0  0  0
    4.6171   28.6223   64.9320 C   0  0  0  0  0
    1.2369   29.8114   60.5242 O   0  0  0  0  0
    2.9172   31.5695   54.9023 O   0  0  0  0  0
    1.2587   28.5942   57.9414 O   0  0  0  0  0
    3.8095   28.5276   55.9120 O   0  0  0  0  0
    2.0118   27.9404   62.5517 O   0  0  0  0  0
    0.8702   26.3773   64.3360 O   0  0  0  0  0
    2.2392   25.1797   62.4560 O   0  0  0  0  0
    3.4837   26.5817   64.4755 O   0  0  0  0  0
    1.1034   30.8271   58.3991 N   0  0  0  0  0
    2.0947   30.0403   56.3899 N   0  0  0  0  0
    2.1097   26.5219   63.4793 P   0  0  0  0  0
  1  2  1  0  0  0
  2  3  1  0  0  0
  3  4  1  0  0  0
  4 22  1  0  0  0
  4 18  1  0  0  0
  5 22  1  0  0  0
  5 30  1  0  0  0
  5  2  1  0  0  0
  7  8  1  0  0  0
  8 31  1  0  0  0
  9 30  1  0  0  0
 10 31  1  0  0  0
 10 25  1  0  0  0
 11 25  1  0  0  0
 11 12  1  0  0  0
 13 14  1  0  0  0
 15 16  1  0  0  0
 17 12  1  0  0  0
 18 26  1  0  0  0
 19 29  1  0  0  0
 19 20  1  0  0  0
 19 21  1  0  0  0
 30  6  1  0  0  0
 31  9  1  0  0  0
 32 26  1  0  0  0
 32 28  1  0  0  0
 32 29  1  0  0  0
  6  7  2  0  0  0
  8 23  2  0  0  0
  9 24  2  0  0  0
 12 13  2  0  0  0
 14 15  2  0  0  0
 16 17  2  0  0  0
 32 27  2  0  0  0
M  END
> <rmsd>
0.851906836

$$$$
PubChem-6712136 PubChem-6712137 NSC657494


 33 35  0  0  0  0  0  0  0  0999 V2000
    5.0664   26.3565   61.2921 C   0  0  0  0  0
    4.5597   27.1742   62.4633 C   0  0  0  0  0
    5.7272   27.5524   63.3520 C   0  0  0  0  0
    1.6217   27.4737   61.4562 C   0  0  0  0  0
    1.4793   28.7456   60.8969 C   0  0  0  0  0
    1.0663   28.8978   59.5633 C   0  0  0  0  0
    0.7960   27.7579   58.7882 C   0  0  0  0  0
    0.9347   26.4825   59.3611 C   0  0  0  0  0
    1.3481   26.3418   60.6868 C   0  0  0  0  0
    0.0488   26.8248   56.6011 C   0  0  0  0  0
    1.2895   26.0379   56.2051 C   0  0  0  0  0
    3.4640   26.4082   55.9473 C   0  0  0  0  0
    3.9951   27.1921   57.1435 C   0  0  0  0  0
    4.7429   29.2694   55.9920 C   0  0  0  0  0
    5.8414   28.6359   55.3883 C   0  0  0  0  0
    6.6531   29.3333   54.4906 C   0  0  0  0  0
    6.3751   30.6683   54.1908 C   0  0  0  0  0
    5.2831   31.3047   54.7859 C   0  0  0  0  0
    4.4609   30.6090   55.6875 C   0  0  0  0  0
    2.9898   32.5722   56.0414 C   0  0  0  0  0
    1.7735   32.9239   56.8751 C   0  0  0  0  0
    0.8671   32.5720   58.8621 C   0  0  0  0  0
    0.9892   31.3617   59.7674 C   0  0  0  0  0
    3.6381   26.4207   63.1967 O   0  0  0  0  0
    2.3643   28.6480   63.7861 O   0  0  0  0  0
    0.3862   27.9147   57.4575 O   0  0  0  0  0
    2.2033   26.8820   55.5710 O   0  0  0  0  0
    3.9202   28.5936   56.9011 O   0  0  0  0  0
    3.3571   31.2215   56.2880 O   0  0  0  0  0
    2.0876   32.8098   58.2300 O   0  0  0  0  0
    0.9200   30.1686   58.9955 O   0  0  0  0  0
    1.0040   26.4341   64.0154 O   0  0  0  0  0
    2.1778   27.2885   63.1483 P   0  0  0  0  0
  1  2  1  0  0  0
  2  3  1  0  0  0
  2 24  1  0  0  0
  5  6  1  0  0  0
  6 31  1  0  0  0
  7  8  1  0  0  0
  7 26  1  0  0  0
  9  4  1  0  0  0
 10 26  1  0  0  0
 10 11  1  0  0  0
 11 27  1  0  0  0
 12 27  1  0  0  0
 12 13  1  0  0  0
 13 28  1  0  0  0
 14 28  1  0  0  0
 15 16  1  0  0  0
 17 18  1  0  0  0
 19 29  1  0  0  0
 19 14  1  0  0  0
 20 29  1  0  0  0
 20 21  1  0  0  0
 21 30  1  0  0  0
 22 30  1  0  0  0
 22 23  1  0  0  0
 23 31  1  0  0  0
 33 24  1  0  0  0
 33  4  1  0  0  0
 33 32  1  0  0  0
  4  5  2  0  0  0
  6  7  2  0  0  0
  8  9  2  0  0  0
 14 15  2  0  0  0
 16 17  2  0  0  0
 18 19  2  0  0  0
 33 25  2  0  0  0
M  END
> <rmsd>
0.739463866

$$$$
PubChem-15028213


 27 30  0  0  0  0  0  0  0  0999 V2000
   -0.7795   34.0238   53.0755 C   0  0  0  0  0
   -1.2095   32.5727   52.9625 C   0  0  0  0  0
   -0.1546   31.7704   52.2166 C   0  0  0  0  0
    1.0098   31.4697   53.0990 C   0  0  0  0  0
    1.8587   30.2520   55.1693 C   0  0  0  0  0
    4.0909   30.4358   56.0045 C   0  0  0  0  0
    2.5656   29.0443   57.0847 C   0  0  0  0  0
    1.5938   29.3647   56.2039 C   0  0  0  0  0
    0.7840   28.0075   57.6226 C   0  0  0  0  0
    2.7751   27.6274   59.1445 C   0  0  0  0  0
    2.6892   28.5324   60.3803 C   0  0  0  0  0
    2.5941   27.4970   61.4541 C   0  0  0  0  0
    1.8128   26.4148   60.7649 C   0  0  0  0  0
    2.0384   25.1411   61.5690 C   0  0  0  0  0
    2.1332   31.9716   52.8293 O   0  0  0  0  0
    2.2972   26.3289   59.4513 O   0  0  0  0  0
    1.3817   25.2130   62.8173 O   0  0  0  0  0
    1.1327   26.8369   64.8738 O   0  0  0  0  0
    1.9571   27.9248   62.6279 O   0  0  0  0  0
    3.5856   26.2678   64.1589 O   0  0  0  0  0
    1.5271   29.3136   60.3558 O   0  0  0  0  0
    0.8385   30.6020   54.2266 N   0  0  0  0  0
    3.1217   30.7732   55.0936 N   0  0  0  0  0
    3.8167   29.5595   57.0179 N   0  0  0  0  0
    0.4498   28.7256   56.5123 N   0  0  0  0  0
    2.0823   28.1823   57.9838 N   0  0  0  0  0
    1.9959   26.5690   63.6622 P   0  0  0  0  0
  1  2  1  0  0  0
  2  3  1  0  0  0
  3  4  1  0  0  0
  4 22  1  0  0  0
  6 23  1  0  0  0
  7 24  1  0  0  0
  8 25  1  0  0  0
  8  5  1  0  0  0
  9 26  1  0  0  0
 10 26  1  0  0  0
 10 11  1  0  0  0
 10 16  1  0  0  0
 11 12  1  0  0  0
 11 21  1  0  0  0
 12 13  1  0  0  0
 12 19  1  0  0  0
 13 16  1  0  0  0
 13 14  1  0  0  0
 14 17  1  0  0  0
 22  5  1  0  0  0
 26  7  1  0  0  0
 27 17  1  0  0  0
 27 19  1  0  0  0
 27 20  1  0  0  0
  4 15  2  0  0  0
  5 23  2  0  0  0
  6 24  2  0  0  0
  7  8  2  0  0  0
  9 25  2  0  0  0
 27 18  2  0  0  0
M  END
> <rmsd>
0.807097554

$$$$
PubChem-68352856


 28 29  0  0  0  0  0  0  0  0999 V2000
    3.2969   31.4444   58.0343 C   0  0  0  0  0
    2.7130   30.3560   57.1005 C   0  0  0  0  0
    1.2174   30.0072   57.4711 C   0  0  0  0  0
    1.9584   28.2720   58.8091 C   0  0  0  0  0
    3.4094   28.6386   58.5217 C   0  0  0  0  0
    1.7959   27.5513   60.1506 C   0  0  0  0  0
    2.3846   28.3287   61.3379 C   0  0  0  0  0
    2.2754   27.5396   62.6432 C   0  0  0  0  0
    0.8240   27.3727   63.0887 C   0  0  0  0  0
    1.5122   27.2086   65.3149 C   0  0  0  0  0
    3.0119   27.3881   64.8260 C   0  0  0  0  0
    3.8559   28.1727   65.8425 C   0  0  0  0  0
    3.9321   25.3994   65.6596 C   0  0  0  0  0
    0.8626   28.5763   65.6460 C   0  0  0  0  0
    1.8553   26.9286   67.6201 C   0  0  0  0  0
    0.3676   31.2843   57.5088 C   0  0  0  0  0
   -0.5752   28.6748   56.8533 C   0  0  0  0  0
    2.3480   32.0471   55.5093 C   0  0  0  0  0
    1.1583   29.4295   58.7692 O   0  0  0  0  0
    3.5120   29.1866   57.2266 O   0  0  0  0  0
    0.7648   26.6000   64.2696 O   0  0  0  0  0
    3.0104   28.1881   63.6561 O   0  0  0  0  0
    3.6235   26.1384   64.5041 O   0  0  0  0  0
    1.4156   26.3244   66.4270 O   0  0  0  0  0
    1.7652   29.5750   61.4734 O   0  0  0  0  0
    2.3773   26.2837   60.0665 O   0  0  0  0  0
    0.7074   29.1197   56.4835 O   0  0  0  0  0
    2.8147   30.7386   55.7316 O   0  0  0  0  0
  2  1  1  0  0  0
  2  3  1  0  0  0
  2 28  1  0  0  0
  2 20  1  0  0  0
  3 19  1  0  0  0
  3 16  1  0  0  0
  3 27  1  0  0  0
  4 19  1  0  0  0
  4  5  1  0  0  0
  4  6  1  0  0  0
  5 20  1  0  0  0
  6  7  1  0  0  0
  6 26  1  0  0  0
  7 25  1  0  0  0
  8  7  1  0  0  0
  8  9  1  0  0  0
  8 22  1  0  0  0
  9 21  1  0  0  0
 10 21  1  0  0  0
 10 11  1  0  0  0
 10 14  1  0  0  0
 10 24  1  0  0  0
 11 22  1  0  0  0
 11 12  1  0  0  0
 11 23  1  0  0  0
 13 23  1  0  0  0
 15 24  1  0  0  0
 17 27  1  0  0  0
 18 28  1  0  0  0
M  END
> <rmsd>
0.744921029

$$$$
PubChem-164873538


 19 18  0  0  0  0  0  0  0  0999 V2000
    2.8430   28.0455   60.1510 C   0  0  0  0  0
    2.1024   26.7457   60.4461 C   0  0  0  0  0
    2.3098   26.2610   61.8853 C   0  0  0  0  0
    3.7895   26.0272   62.2335 C   0  0  0  0  0
    3.9481   25.4212   63.5924 C   0  0  0  0  0
    1.6220   27.1625   62.8690 C   0  0  0  0  0
    2.5629   28.5053   58.7298 C   0  0  0  0  0
    3.6106   29.5300   58.3152 C   0  0  0  0  0
    3.6350   29.7062   56.8338 C   0  0  0  0  0
    1.1822   29.0783   58.6189 C   0  0  0  0  0
    3.4557   24.2909   63.8513 O   0  0  0  0  0
    4.6437   26.1117   64.5754 O   0  0  0  0  0
    2.0210   28.3437   63.0499 O   0  0  0  0  0
    0.5419   26.6828   63.5970 O   0  0  0  0  0
    3.9616   28.7479   56.0857 O   0  0  0  0  0
    3.3096   30.9365   56.2796 O   0  0  0  0  0
    0.8481   30.0857   59.2979 O   0  0  0  0  0
    0.2638   28.4920   57.7590 O   0  0  0  0  0
    4.4139   25.1599   61.2462 N   0  0  0  0  0
  1  2  1  0  0  0
  1  7  1  0  0  0
  2  3  1  0  0  0
  3  4  1  0  0  0
  3  6  1  0  0  0
  4  5  1  0  0  0
  4 19  1  0  0  0
  5 12  1  0  0  0
  6 14  1  0  0  0
  7  8  1  0  0  0
  7 10  1  0  0  0
  8  9  1  0  0  0
  9 16  1  0  0  0
 10 18  1  0  0  0
  5 11  2  0  0  0
  6 13  2  0  0  0
  9 15  2  0  0  0
 10 17  2  0  0  0
M  END
> <rmsd>
0.691789865

$$$$
PubChem-164873538


 19 18  0  0  0  0  0  0  0  0999 V2000
    3.0221   28.5114   60.3000 C   0  0  0  0  0
    2.5851   27.1071   60.7027 C   0  0  0  0  0
    2.8139   26.8212   62.1910 C   0  0  0  0  0
    4.2845   26.9756   62.6137 C   0  0  0  0  0
    4.4986   26.5532   64.0332 C   0  0  0  0  0
    1.8802   27.6231   63.0504 C   0  0  0  0  0
    2.7275   28.7579   58.8295 C   0  0  0  0  0
    3.5332   29.9572   58.3475 C   0  0  0  0  0
    3.6031   29.9954   56.8576 C   0  0  0  0  0
    1.2608   28.9771   58.6108 C   0  0  0  0  0
    4.2657   25.3680   64.3910 O   0  0  0  0  0
    4.9573   27.4765   64.9627 O   0  0  0  0  0
    1.9847   28.8765   63.1211 O   0  0  0  0  0
    0.8990   26.9727   63.7859 O   0  0  0  0  0
    4.1852   29.0754   56.2256 O   0  0  0  0  0
    3.0359   31.0575   56.1670 O   0  0  0  0  0
    0.6641   29.9363   59.1688 O   0  0  0  0  0
    0.5544   28.1137   57.7849 O   0  0  0  0  0
    5.1490   26.1914   61.7449 N   0  0  0  0  0
  1  2  1  0  0  0
  1  7  1  0  0  0
  2  3  1  0  0  0
  3  4  1  0  0  0
  3  6  1  0  0  0
  4  5  1  0  0  0
  4 19  1  0  0  0
  5 12  1  0  0  0
  6 14  1  0  0  0
  7  8  1  0  0  0
  7 10  1  0  0  0
  8  9  1  0  0  0
  9 16  1  0  0  0
 10 18  1  0  0  0
  5 11  2  0  0  0
  6 13  2  0  0  0
  9 15  2  0  0  0
 10 17  2  0  0  0
M  END
> <rmsd>
0.73005259

$$$$
PubChem-123970979 PubChem-160102483


 19 19  0  0  0  0  0  0  0  0999 V2000
    1.8027   32.1457   64.2904 C   0  0  0  0  0
    2.1183   30.6674   62.6738 C   0  0  0  0  0
    2.6013   31.0175   61.2630 C   0  0  0  0  0
    1.5028   30.7004   60.2436 C   0  0  0  0  0
    0.4818   29.1459   61.5218 C   0  0  0  0  0
    1.4478   29.2878   62.7045 C   0  0  0  0  0
    1.9580   31.0625   58.8378 C   0  0  0  0  0
    1.2233   31.6408   63.1255 O   0  0  0  0  0
    1.1627   29.3368   60.3057 O   0  0  0  0  0
    2.4193   28.2831   62.6503 O   0  0  0  0  0
    3.3983   26.4289   64.1827 O   0  0  0  0  0
    0.9717   26.7540   64.1999 O   0  0  0  0  0
    2.4652   28.5194   65.4006 O   0  0  0  0  0
    3.0511   30.2775   58.4557 O   0  0  0  0  0
    3.7714   28.7780   56.4625 O   0  0  0  0  0
    2.6476   30.8912   55.9472 O   0  0  0  0  0
    1.2190   28.9284   56.8940 O   0  0  0  0  0
    2.3004   27.4518   64.1123 S   0  0  0  0  0
    2.6964   29.7308   56.9019 S   0  0  0  0  0
  1  8  1  0  0  0
  2  8  1  0  0  0
  2  3  1  0  0  0
  3  4  1  0  0  0
  4  9  1  0  0  0
  4  7  1  0  0  0
  5  9  1  0  0  0
  5  6  1  0  0  0
  6 10  1  0  0  0
  6  2  1  0  0  0
  7 14  1  0  0  0
 18 10  1  0  0  0
 18 13  1  0  0  0
 19 14  1  0  0  0
 19 17  1  0  0  0
 18 11  2  0  0  0
 18 12  2  0  0  0
 19 15  2  0  0  0
 19 16  2  0  0  0
M  CHG  2  13  -1  17  -1
M  END
> <rmsd>
0.646229148

$$$$
PubChem-137487281


 35 38  0  0  0  0  0  0  0  0999 V2000
    4.5227   30.5213   61.6708 C   0  0  0  0  0
    3.9679   29.8487   60.4317 C   0  0  0  0  0
    2.5484   29.3401   60.7081 C   0  0  0  0  0
    1.6355   29.2702   59.4736 C   0  0  0  0  0
    2.1008   28.3928   58.3007 C   0  0  0  0  0
    3.0180   29.1827   57.3624 C   0  0  0  0  0
    2.4522   30.5658   57.0574 C   0  0  0  0  0
    2.1041   31.2509   58.3813 C   0  0  0  0  0
    1.8330   33.4427   59.7980 C   0  0  0  0  0
    2.0596   27.9269   62.7385 C   0  0  0  0  0
    2.1495   26.6013   63.4175 C   0  0  0  0  0
    3.2209   26.6235   64.4874 C   0  0  0  0  0
    2.5989   25.8918   65.6805 C   0  0  0  0  0
    1.2307   25.4521   65.2112 C   0  0  0  0  0
    3.3852   24.7017   66.1668 C   0  0  0  0  0
    4.6995   24.7504   66.4375 C   0  0  0  0  0
    5.4574   26.0368   66.2236 C   0  0  0  0  0
    5.4675   26.4879   64.7503 C   0  0  0  0  0
    5.4141   23.5411   66.9116 C   0  0  0  0  0
    4.7310   22.3283   67.1109 C   0  0  0  0  0
    5.4127   21.1932   67.5586 C   0  0  0  0  0
    6.7847   21.2574   67.8120 C   0  0  0  0  0
    7.4752   22.4559   67.6180 C   0  0  0  0  0
    6.7934   23.5911   67.1704 C   0  0  0  0  0
    1.1134   30.5228   59.0735 O   0  0  0  0  0
    3.4146   31.3121   56.3741 O   0  0  0  0  0
    3.2407   28.4733   56.1804 O   0  0  0  0  0
    0.9816   27.9277   57.6061 O   0  0  0  0  0
    1.5802   28.9230   63.3464 O   0  0  0  0  0
    4.3789   25.9842   64.0104 O   0  0  0  0  0
    1.4982   32.9405   58.0864 S   0  0  0  0  0
    2.5597   28.0631   61.4092 N   0  0  0  0  0
    0.8827   26.2605   64.0519 N   0  0  0  0  0
    7.4455   20.1577   68.2461 F   0  0  0  0  0
    5.0881   28.5578   59.9065 Cl  0  0  0  0  0
  1  2  1  0  0  0
  2  3  1  0  0  0
  2 35  1  0  0  0
  3  4  1  0  0  0
  3 32  1  0  0  0
  4  5  1  0  0  0
  4 25  1  0  0  0
  5  6  1  0  0  0
  5 28  1  0  0  0
  6  7  1  0  0  0
  6 27  1  0  0  0
  7  8  1  0  0  0
  7 26  1  0  0  0
  8 25  1  0  0  0
  8 31  1  0  0  0
  9 31  1  0  0  0
 11 10  1  0  0  0
 11 12  1  0  0  0
 11 33  1  0  0  0
 12 13  1  0  0  0
 12 30  1  0  0  0
 13 14  1  0  0  0
 13 15  1  0  0  0
 14 33  1  0  0  0
 16 19  1  0  0  0
 17 16  1  0  0  0
 17 18  1  0  0  0
 18 30  1  0  0  0
 20 21  1  0  0  0
 22 23  1  0  0  0
 22 34  1  0  0  0
 24 19  1  0  0  0
 32 10  1  0  0  0
 10 29  2  0  0  0
 15 16  2  0  0  0
 19 20  2  0  0  0
 21 22  2  0  0  0
 23 24  2  0  0  0
M  END
> <rmsd>
0.802560687

$$$$
PubChem-6993801 1666230 ZINC000001666230


 15 14  0  0  0  0  0  0  0  0999 V2000
    3.1230   28.3076   61.0561 C   0  0  0  0  0
    2.7296   28.1382   59.6023 C   0  0  0  0  0
    2.6488   29.4925   58.9200 C   0  0  0  0  0
    3.1804   26.9484   61.7249 C   0  0  0  0  0
    3.5386   27.0955   63.1940 C   0  0  0  0  0
    1.5442   30.1999   59.3968 O   0  0  0  0  0
    3.7047   28.5464   56.6357 O   0  0  0  0  0
    1.2609   28.4863   56.8435 O   0  0  0  0  0
    2.4013   30.7822   56.4203 O   0  0  0  0  0
    4.0366   25.8830   63.6688 O   0  0  0  0  0
    0.9988   26.5714   63.9310 O   0  0  0  0  0
    1.6418   28.9314   63.7457 O   0  0  0  0  0
    2.5143   27.5810   65.7830 O   0  0  0  0  0
    2.4999   29.2767   57.1584 S   0  0  0  0  0
    2.1069   27.5620   64.1537 S   0  0  0  0  0
  1  2  1  0  0  0
  1  4  1  0  0  0
  3  2  1  0  0  0
  3  6  1  0  0  0
  3 14  1  0  0  0
  5  4  1  0  0  0
  5 10  1  0  0  0
  5 15  1  0  0  0
 14  9  1  0  0  0
 15 13  1  0  0  0
 14  7  2  0  0  0
 14  8  2  0  0  0
 15 11  2  0  0  0
 15 12  2  0  0  0
M  END
> <rmsd>
0.672625899

$$$$
PubChem-87691782


 14 13  0  0  0  0  0  0  0  0999 V2000
    1.8759   29.1308   60.8302 C   0  0  0  0  0
    1.2464   28.5853   59.5663 C   0  0  0  0  0
    1.8919   28.0508   61.8904 C   0  0  0  0  0
    1.2452   29.5760   58.5831 O   0  0  0  0  0
    1.0767   28.9246   57.4499 O   0  0  0  0  0
    2.4064   28.4677   55.2635 O   0  0  0  0  0
    2.5033   30.7248   56.2117 O   0  0  0  0  0
    3.8294   28.8271   57.4039 O   0  0  0  0  0
    2.4771   28.5506   63.0550 O   0  0  0  0  0
    3.4599   26.1909   63.6010 O   0  0  0  0  0
    3.0439   27.7358   65.4541 O   0  0  0  0  0
    0.9949   26.6067   64.3363 O   0  0  0  0  0
    2.4546   29.2589   56.5394 S   0  0  0  0  0
    2.5333   27.2518   64.1270 S   0  0  0  0  0
  1  2  1  0  0  0
  1  3  1  0  0  0
  2  4  1  0  0  0
  3  9  1  0  0  0
  4  5  1  0  0  0
 13  5  1  0  0  0
 13  8  1  0  0  0
 14  9  1  0  0  0
 14 12  1  0  0  0
 13  6  2  0  0  0
 13  7  2  0  0  0
 14 10  2  0  0  0
 14 11  2  0  0  0
M  END
> <rmsd>
0.745807707

$$$$
PubChem-143911848


 30 34  0  0  0  0  0  0  0  0999 V2000
    5.6905   30.6983   62.5398 C   0  0  0  0  0
    4.2581   30.2336   62.3785 C   0  0  0  0  0
    3.5238   31.1537   61.4648 C   0  0  0  0  0
    2.6314   30.2153   60.6942 C   0  0  0  0  0
    4.2186   28.9096   61.6482 C   0  0  0  0  0
    4.7786   26.7703   62.8444 C   0  0  0  0  0
    3.0454   26.4536   64.0333 C   0  0  0  0  0
    2.8744   27.5940   63.3315 C   0  0  0  0  0
    0.7687   27.9346   64.2752 C   0  0  0  0  0
    2.0501   26.0176   64.8998 C   0  0  0  0  0
    1.3982   24.0739   66.6514 C   0  0  0  0  0
    2.3880   22.9840   66.8581 C   0  0  0  0  0
    3.1774   23.7523   65.8592 C   0  0  0  0  0
    2.4159   30.7494   59.2899 C   0  0  0  0  0
    0.0003   29.5398   56.0189 C   0  0  0  0  0
   -1.2735   28.7648   56.2909 C   0  0  0  0  0
   -1.6375   28.8407   54.8223 C   0  0  0  0  0
   -0.3677   29.6207   54.5507 C   0  0  0  0  0
    3.2323   28.9431   60.6422 O   0  0  0  0  0
    1.4860   29.9520   58.6178 O   0  0  0  0  0
    3.4346   28.7242   57.3547 O   0  0  0  0  0
    2.6468   30.9909   56.3147 O   0  0  0  0  0
    1.1035   28.6977   56.1784 O   0  0  0  0  0
    3.9562   27.8149   62.5748 N   0  0  0  0  0
    4.2422   25.9044   63.7513 N   0  0  0  0  0
    1.7566   28.3541   63.4276 N   0  0  0  0  0
    0.9191   26.7779   64.9988 N   0  0  0  0  0
    2.1896   24.8230   65.6663 N   0  0  0  0  0
   -0.4195   28.7046   64.4116 N   0  0  0  0  0
    2.2034   29.5725   57.1265 P   0  0  0  0  0
  1  2  1  0  0  0
  2  3  1  0  0  0
  3  4  1  0  0  0
  4 19  1  0  0  0
  4 14  1  0  0  0
  5 19  1  0  0  0
  5 24  1  0  0  0
  5  2  1  0  0  0
  7 25  1  0  0  0
  8 26  1  0  0  0
  8 24  1  0  0  0
  9 27  1  0  0  0
  9 29  1  0  0  0
 10 28  1  0  0  0
 10  7  1  0  0  0
 11 28  1  0  0  0
 11 12  1  0  0  0
 12 13  1  0  0  0
 13 28  1  0  0  0
 14 20  1  0  0  0
 15 23  1  0  0  0
 15 16  1  0  0  0
 16 17  1  0  0  0
 17 18  1  0  0  0
 18 15  1  0  0  0
 24  6  1  0  0  0
 30 20  1  0  0  0
 30 22  1  0  0  0
 30 23  1  0  0  0
  6 25  2  0  0  0
  7  8  2  0  0  0
  9 26  2  0  0  0
 10 27  2  0  0  0
 30 21  2  0  0  0
M  END
> <rmsd>
0.776753008

$$$$
PubChem-59010996


 19 19  0  0  0  0  0  0  0  0999 V2000
    0.3242   24.3911   60.4964 C   0  0  0  0  0
    0.4563   26.5866   60.2511 C   0  0  0  0  0
   -0.6408   27.4042   59.5734 C   0  0  0  0  0
   -0.0497   28.6359   58.8783 C   0  0  0  0  0
    1.8198   28.6566   60.2408 C   0  0  0  0  0
    1.3297   27.4999   61.1078 C   0  0  0  0  0
    0.6875   28.2765   57.5896 C   0  0  0  0  0
   -0.1241   25.5943   61.0437 O   0  0  0  0  0
    0.7319   29.4205   59.7635 O   0  0  0  0  0
    2.4296   26.7860   61.5923 O   0  0  0  0  0
    3.6297   26.3414   63.8523 O   0  0  0  0  0
    1.1819   26.3122   63.8418 O   0  0  0  0  0
    2.3925   28.6121   63.6633 O   0  0  0  0  0
    1.0460   29.4416   56.9068 O   0  0  0  0  0
    3.5582   28.7943   57.2604 O   0  0  0  0  0
    2.4243   27.9633   55.2429 O   0  0  0  0  0
    3.0492   30.4771   55.3549 O   0  0  0  0  0
    2.4013   26.9782   63.2676 S   0  0  0  0  0
    2.5421   29.1173   56.1998 S   0  0  0  0  0
  1  8  1  0  0  0
  2  8  1  0  0  0
  2  3  1  0  0  0
  3  4  1  0  0  0
  4  9  1  0  0  0
  4  7  1  0  0  0
  5  9  1  0  0  0
  5  6  1  0  0  0
  6 10  1  0  0  0
  6  2  1  0  0  0
  7 14  1  0  0  0
 18 10  1  0  0  0
 18 13  1  0  0  0
 19 14  1  0  0  0
 19 17  1  0  0  0
 18 11  2  0  0  0
 18 12  2  0  0  0
 19 15  2  0  0  0
 19 16  2  0  0  0
M  END
> <rmsd>
0.775363266

$$$$
PubChem-122621823


 15 14  0  0  0  0  0  0  0  0999 V2000
    1.9983   27.8040   60.9980 C   0  0  0  0  0
    1.3954   27.7046   59.6108 C   0  0  0  0  0
    2.1181   28.6396   58.6565 C   0  0  0  0  0
    1.7192   28.3287   57.2171 C   0  0  0  0  0
    1.2627   26.8689   61.9356 C   0  0  0  0  0
    0.4029   28.7259   56.9688 O   0  0  0  0  0
    2.4681   28.7004   54.6653 O   0  0  0  0  0
    4.2387   28.7240   56.3591 O   0  0  0  0  0
    2.6749   30.7937   56.1888 O   0  0  0  0  0
    1.8245   29.9689   58.9739 O   0  0  0  0  0
    3.3979   26.5470   63.5365 O   0  0  0  0  0
    1.1909   26.0790   64.4962 O   0  0  0  0  0
    1.8604   28.5614   64.1213 O   0  0  0  0  0
    2.8211   29.1247   56.0627 S   0  0  0  0  0
    1.9586   26.9777   63.5692 S   0  0  0  0  0
  1  2  1  0  0  0
  1  5  1  0  0  0
  2  3  1  0  0  0
  3  4  1  0  0  0
  3 10  1  0  0  0
  4  6  1  0  0  0
  4 14  1  0  0  0
  5 15  1  0  0  0
 14  9  1  0  0  0
 15 13  1  0  0  0
 14  7  2  0  0  0
 14  8  2  0  0  0
 15 11  2  0  0  0
 15 12  2  0  0  0
M  CHG  2   9  -1  13  -1
M  END
> <rmsd>
0.747808754

$$$$
PubChem-11165043


 25 26  0  0  0  0  0  0  0  0999 V2000
    4.0404   27.7042   63.8424 C   0  0  0  0  0
    1.7344   27.9801   63.6438 C   0  0  0  0  0
    1.5137   26.6955   63.9951 C   0  0  0  0  0
    2.5846   25.8626   64.2864 C   0  0  0  0  0
    3.4836   23.6086   64.9720 C   0  0  0  0  0
    2.9631   22.2311   65.3460 C   0  0  0  0  0
   -0.3649   27.6167   63.6294 C   0  0  0  0  0
    0.3294   29.9556   62.9837 C   0  0  0  0  0
    0.1961   30.0622   61.4662 C   0  0  0  0  0
    1.4896   29.6664   60.7732 C   0  0  0  0  0
    2.4696   29.2355   58.8460 C   0  0  0  0  0
    2.9764   28.5150   63.5580 N   0  0  0  0  0
    3.8425   26.3945   64.2018 N   0  0  0  0  0
    2.3768   24.5004   64.6608 N   0  0  0  0  0
    0.1941   26.4284   63.9976 N   0  0  0  0  0
    0.5645   28.5810   63.4101 N   0  0  0  0  0
    2.1468   22.3219   66.4585 F   0  0  0  0  0
    4.0328   21.4060   65.6346 F   0  0  0  0  0
    2.2482   21.6947   64.2907 F   0  0  0  0  0
    1.3955   29.9254   59.4063 O   0  0  0  0  0
    1.0835   28.6914   56.5669 O   0  0  0  0  0
    2.4151   30.9442   56.5488 O   0  0  0  0  0
    3.6847   28.4998   56.3633 O   0  0  0  0  0
   -0.8590   29.2680   61.0127 O   0  0  0  0  0
    2.3724   29.3258   57.0373 P   0  0  0  0  0
  1 13  1  0  0  0
  2 12  1  0  0  0
  3  4  1  0  0  0
  3 15  1  0  0  0
  4 14  1  0  0  0
  5 14  1  0  0  0
  5  6  1  0  0  0
  6 17  1  0  0  0
  6 18  1  0  0  0
  6 19  1  0  0  0
  7 16  1  0  0  0
  8 16  1  0  0  0
  8  9  1  0  0  0
  9 10  1  0  0  0
  9 24  1  0  0  0
 10 20  1  0  0  0
 11 20  1  0  0  0
 11 25  1  0  0  0
 16  2  1  0  0  0
 25 22  1  0  0  0
 25 23  1  0  0  0
  1 12  2  0  0  0
  2  3  2  0  0  0
  4 13  2  0  0  0
  7 15  2  0  0  0
 25 21  2  0  0  0
M  END
> <rmsd>
0.649473786

$$$$
PubChem-155613480


 16 15  0  0  0  0  0  0  0  0999 V2000
    4.3238   30.6579   60.5856 C   0  0  0  0  0
    3.8162   29.3732   61.2128 C   0  0  0  0  0
    4.5442   28.1746   60.6220 C   0  0  0  0  0
    2.2873   29.2596   61.1072 C   0  0  0  0  0
    1.8029   28.9551   59.6932 C   0  0  0  0  0
    1.7607   28.1966   62.0574 C   0  0  0  0  0
    1.9038   30.0949   58.8919 O   0  0  0  0  0
    0.9841   28.7860   56.8263 O   0  0  0  0  0
    2.4618   30.6968   56.4295 O   0  0  0  0  0
    3.5273   28.5081   57.3209 O   0  0  0  0  0
    1.9422   28.6056   63.3812 O   0  0  0  0  0
    2.6209   27.5716   65.6637 O   0  0  0  0  0
    1.1280   26.2693   64.2250 O   0  0  0  0  0
    3.6430   26.4408   63.5663 O   0  0  0  0  0
    2.1902   29.5272   57.3319 S   0  0  0  0  0
    2.3059   27.2036   64.2418 S   0  0  0  0  0
  1  2  1  0  0  0
  2  3  1  0  0  0
  2  4  1  0  0  0
  4  5  1  0  0  0
  4  6  1  0  0  0
  5  7  1  0  0  0
  6 11  1  0  0  0
 15  7  1  0  0  0
 15 10  1  0  0  0
 16 11  1  0  0  0
 16 14  1  0  0  0
 15  8  2  0  0  0
 15  9  2  0  0  0
 16 12  2  0  0  0
 16 13  2  0  0  0
M  END
> <rmsd>
0.782804549

$$$$
PubChem-87102843


 19 19  0  0  0  0  0  0  0  0999 V2000
    1.8027   32.1457   64.2904 C   0  0  0  0  0
    2.1183   30.6674   62.6738 C   0  0  0  0  0
    2.6013   31.0175   61.2630 C   0  0  0  0  0
    1.5028   30.7004   60.2436 C   0  0  0  0  0
    0.4818   29.1459   61.5218 C   0  0  0  0  0
    1.4478   29.2878   62.7045 C   0  0  0  0  0
    1.9580   31.0625   58.8378 C   0  0  0  0  0
    1.2233   31.6408   63.1255 O   0  0  0  0  0
    1.1627   29.3368   60.3057 O   0  0  0  0  0
    2.4193   28.2831   62.6503 O   0  0  0  0  0
    3.3983   26.4289   64.1827 O   0  0  0  0  0
    0.9717   26.7540   64.1999 O   0  0  0  0  0
    2.4652   28.5194   65.4006 O   0  0  0  0  0
    3.0511   30.2775   58.4557 O   0  0  0  0  0
    3.7714   28.7780   56.4625 O   0  0  0  0  0
    2.6476   30.8912   55.9472 O   0  0  0  0  0
    1.2190   28.9284   56.8940 O   0  0  0  0  0
    2.3004   27.4518   64.1123 S   0  0  0  0  0
    2.6964   29.7308   56.9019 S   0  0  0  0  0
  1  8  1  0  0  0
  2  8  1  0  0  0
  2  3  1  0  0  0
  3  4  1  0  0  0
  4  9  1  0  0  0
  4  7  1  0  0  0
  5  9  1  0  0  0
  5  6  1  0  0  0
  6 10  1  0  0  0
  6  2  1  0  0  0
  7 14  1  0  0  0
 18 10  1  0  0  0
 18 13  1  0  0  0
 19 14  1  0  0  0
 19 17  1  0  0  0
 18 11  2  0  0  0
 18 12  2  0  0  0
 19 15  2  0  0  0
 19 16  2  0  0  0
M  END
> <rmsd>
0.646229148

$$$$
PubChem-143911826


 28 31  0  0  0  0  0  0  0  0999 V2000
   -1.1397   28.4252   55.5846 C   0  0  0  0  0
   -0.1016   29.2795   56.2809 C   0  0  0  0  0
    2.5617   30.7170   59.2983 C   0  0  0  0  0
    2.7860   30.1652   60.6933 C   0  0  0  0  0
    3.7549   31.0448   61.4390 C   0  0  0  0  0
    4.4479   30.0802   62.3393 C   0  0  0  0  0
    4.3012   28.7585   61.6171 C   0  0  0  0  0
    4.7166   26.5931   62.8244 C   0  0  0  0  0
    2.9731   26.4060   64.0249 C   0  0  0  0  0
    2.8782   27.5511   63.3167 C   0  0  0  0  0
    0.8011   28.0371   64.2596 C   0  0  0  0  0
    1.9514   26.0416   64.8933 C   0  0  0  0  0
    1.1649   24.1449   66.6416 C   0  0  0  0  0
    2.0803   22.9923   66.8531 C   0  0  0  0  0
    2.9238   23.7080   65.8596 C   0  0  0  0  0
    5.9121   30.4475   62.4628 C   0  0  0  0  0
    1.1282   28.6191   56.2699 O   0  0  0  0  0
    2.3886   30.9209   56.3307 O   0  0  0  0  0
    3.6870   28.8484   57.2565 O   0  0  0  0  0
    1.5718   29.9758   58.6490 O   0  0  0  0  0
    3.3095   28.8608   60.6213 O   0  0  0  0  0
    2.1964   29.6358   57.1072 P   0  0  0  0  0
    3.9683   27.6915   62.5533 N   0  0  0  0  0
    4.1259   25.7718   63.7388 N   0  0  0  0  0
    1.8134   28.3842   63.4083 N   0  0  0  0  0
    0.8750   26.8782   64.9910 N   0  0  0  0  0
    2.0087   24.8407   65.6611 N   0  0  0  0  0
   -0.3354   28.8823   64.3874 N   0  0  0  0  0
  1  2  1  0  0  0
  2 17  1  0  0  0
  3 20  1  0  0  0
  3  4  1  0  0  0
  4  5  1  0  0  0
  4 21  1  0  0  0
  5  6  1  0  0  0
  6  7  1  0  0  0
  6 16  1  0  0  0
  7 21  1  0  0  0
  7 23  1  0  0  0
  9 24  1  0  0  0
 10 25  1  0  0  0
 10 23  1  0  0  0
 11 26  1  0  0  0
 11 28  1  0  0  0
 12 27  1  0  0  0
 12  9  1  0  0  0
 13 27  1  0  0  0
 13 14  1  0  0  0
 14 15  1  0  0  0
 15 27  1  0  0  0
 22 17  1  0  0  0
 22 19  1  0  0  0
 22 20  1  0  0  0
 23  8  1  0  0  0
  8 24  2  0  0  0
  9 10  2  0  0  0
 11 25  2  0  0  0
 12 26  2  0  0  0
 22 18  2  0  0  0
M  END
> <rmsd>
0.748753846

$$$$
PubChem-101601055


 17 17  0  0  0  0  0  0  0  0999 V2000
   -0.2906   28.6789   57.2178 C   0  0  0  0  0
    0.1906   28.1839   58.5804 C   0  0  0  0  0
    2.2284   29.4245   58.2917 C   0  0  0  0  0
    1.7281   29.9011   56.9273 C   0  0  0  0  0
    2.8821   30.1663   56.0225 C   0  0  0  0  0
    1.5680   28.6900   60.4756 C   0  0  0  0  0
    2.3553   27.3800   60.3787 C   0  0  0  0  0
    2.8012   26.9362   61.7589 C   0  0  0  0  0
    1.0881   29.1767   59.1787 N   0  0  0  0  0
    0.8552   28.8881   56.3348 N   0  0  0  0  0
    3.0644   31.3246   55.5663 O   0  0  0  0  0
    3.7557   29.1422   55.6759 O   0  0  0  0  0
    1.6973   26.5155   62.5043 O   0  0  0  0  0
    0.9557   26.4088   65.0092 O   0  0  0  0  0
    3.4899   25.9697   64.5493 O   0  0  0  0  0
    2.3790   28.4908   64.3272 O   0  0  0  0  0
    2.1005   26.8347   64.1192 P   0  0  0  0  0
  1  2  1  0  0  0
  1 10  1  0  0  0
  2  9  1  0  0  0
  3  9  1  0  0  0
  3  4  1  0  0  0
  4 10  1  0  0  0
  4  5  1  0  0  0
  5 12  1  0  0  0
  6  9  1  0  0  0
  6  7  1  0  0  0
  7  8  1  0  0  0
  8 13  1  0  0  0
 17 13  1  0  0  0
 17 15  1  0  0  0
 17 16  1  0  0  0
  5 11  2  0  0  0
 17 14  2  0  0  0
M  END
> <rmsd>
0.810863674

$$$$
PubChem-60111854


 20 20  0  0  0  0  0  0  0  0999 V2000
   -0.2506   27.9299   61.1843 B   0  0  0  0  0
    1.0542   28.8084   61.3971 C   0  0  0  0  0
    2.1232   27.9855   62.0951 C   0  0  0  0  0
    3.3284   28.1080   61.2051 C   0  0  0  0  0
    2.9364   29.2571   60.2936 C   0  0  0  0  0
    3.6230   29.2054   58.9352 C   0  0  0  0  0
    1.1229   31.5706   56.4861 C   0  0  0  0  0
    4.7250   26.4255   60.8533 C   0  0  0  0  0
    2.6969   27.8881   66.1080 C   0  0  0  0  0
    1.5422   29.2401   60.1521 O   0  0  0  0  0
    3.2922   30.3406   58.1920 O   0  0  0  0  0
    3.9517   29.1339   55.9560 O   0  0  0  0  0
    1.5642   28.5988   56.8807 O   0  0  0  0  0
    2.1880   31.0474   55.7518 O   0  0  0  0  0
    3.4726   26.9178   60.4832 O   0  0  0  0  0
    2.4028   28.5486   63.3434 O   0  0  0  0  0
    0.7596   26.8575   64.5114 O   0  0  0  0  0
    3.1823   25.9744   64.0462 O   0  0  0  0  0
    2.7813   29.7601   56.6807 P   0  0  0  0  0
    2.2075   27.2921   64.4676 P   0  0  0  0  0
  2  1  1  0  0  0
  2  3  1  0  0  0
  2 10  1  0  0  0
  3  4  1  0  0  0
  3 16  1  0  0  0
  4  5  1  0  0  0
  4 15  1  0  0  0
  5 10  1  0  0  0
  5  6  1  0  0  0
  6 11  1  0  0  0
  7 14  1  0  0  0
  8 15  1  0  0  0
 19 11  1  0  0  0
 19 13  1  0  0  0
 19 14  1  0  0  0
 20 16  1  0  0  0
 20  9  1  0  0  0
 20 18  1  0  0  0
 19 12  2  0  0  0
 20 17  2  0  0  0
M  END
> <rmsd>
0.697648346

$$$$
PubChem-19371837


 28 30  0  0  0  0  0  0  0  0999 V2000
    0.6547   25.0923   64.0670 C   0  0  0  0  0
    1.8129   26.7946   61.6167 C   0  0  0  0  0
    0.4475   27.2893   61.1250 C   0  0  0  0  0
    0.4684   28.7941   60.8721 C   0  0  0  0  0
    2.7653   28.5061   60.0117 C   0  0  0  0  0
    3.8320   28.9978   59.2451 C   0  0  0  0  0
    3.6536   30.1863   58.3384 C   0  0  0  0  0
    4.9778   30.9234   58.1282 C   0  0  0  0  0
    6.0833   29.9540   57.7082 C   0  0  0  0  0
    5.0838   28.3604   59.3290 C   0  0  0  0  0
    4.2114   26.7618   60.8538 C   0  0  0  0  0
    2.9543   27.3718   60.8211 C   0  0  0  0  0
    0.7283   28.7421   55.7930 C   0  0  0  0  0
    3.8064   27.4443   56.3239 C   0  0  0  0  0
    3.6579   31.5564   55.2081 C   0  0  0  0  0
    0.9779   29.2702   64.0832 C   0  0  0  0  0
    3.6148   26.5743   65.3236 C   0  0  0  0  0
    0.6734   26.4629   64.3284 O   0  0  0  0  0
    1.5118   29.1282   59.9605 O   0  0  0  0  0
    6.1821   28.8551   58.6159 O   0  0  0  0  0
    1.3554   28.8988   57.0295 O   0  0  0  0  0
    3.8756   28.7166   55.7546 O   0  0  0  0  0
    2.4708   31.1713   55.8321 O   0  0  0  0  0
    2.2408   28.7712   63.7624 O   0  0  0  0  0
    3.4611   26.2553   63.9743 O   0  0  0  0  0
    2.0372   27.0815   63.4682 Si  0  0  0  0  0
    2.8326   29.7225   56.6970 Si  0  0  0  0  0
    5.2386   27.2674   60.1222 N   0  0  0  0  0
  1 18  1  0  0  0
  2 26  1  0  0  0
  2  3  1  0  0  0
  2 12  1  0  0  0
  3  4  1  0  0  0
  4 19  1  0  0  0
  5 19  1  0  0  0
  7  6  1  0  0  0
  7  8  1  0  0  0
  7 27  1  0  0  0
  8  9  1  0  0  0
  9 20  1  0  0  0
 10 20  1  0  0  0
 10  6  1  0  0  0
 11 28  1  0  0  0
 12  5  1  0  0  0
 13 21  1  0  0  0
 14 22  1  0  0  0
 15 23  1  0  0  0
 16 24  1  0  0  0
 17 25  1  0  0  0
 26 18  1  0  0  0
 26 24  1  0  0  0
 26 25  1  0  0  0
 27 21  1  0  0  0
 27 22  1  0  0  0
 27 23  1  0  0  0
  5  6  2  0  0  0
 10 28  2  0  0  0
 11 12  2  0  0  0
M  END
> <rmsd>
0.642035484

$$$$
PubChem-19371837


 28 30  0  0  0  0  0  0  0  0999 V2000
    1.3834   29.4358   64.2841 C   0  0  0  0  0
    1.6800   27.2519   61.7570 C   0  0  0  0  0
    0.3083   27.9212   61.6024 C   0  0  0  0  0
    0.0683   28.3479   60.1631 C   0  0  0  0  0
    2.4453   28.9398   60.0181 C   0  0  0  0  0
    3.4652   29.6067   59.3242 C   0  0  0  0  0
    3.1471   30.6491   58.2896 C   0  0  0  0  0
    4.2868   31.6617   58.1718 C   0  0  0  0  0
    5.6364   30.9676   57.9665 C   0  0  0  0  0
    4.8027   29.2528   59.5696 C   0  0  0  0  0
    4.1186   27.6181   61.1504 C   0  0  0  0  0
    2.7719   27.9617   60.9768 C   0  0  0  0  0
    1.0366   28.4043   55.5267 C   0  0  0  0  0
    1.3395   31.8176   55.9382 C   0  0  0  0  0
    4.1298   28.9290   54.7550 C   0  0  0  0  0
    3.6708   26.0549   65.1739 C   0  0  0  0  0
    0.4358   25.2881   63.9855 C   0  0  0  0  0
    2.5526   28.6807   64.1897 O   0  0  0  0  0
    1.1039   29.2341   59.7547 O   0  0  0  0  0
    5.8464   29.9134   58.9101 O   0  0  0  0  0
    1.3359   28.8826   56.8026 O   0  0  0  0  0
    2.4528   31.1204   55.4670 O   0  0  0  0  0
    4.0800   28.8869   56.1488 O   0  0  0  0  0
    3.3742   26.0254   63.8110 O   0  0  0  0  0
    0.6888   26.5719   64.4702 O   0  0  0  0  0
    2.0710   27.1320   63.6018 Si  0  0  0  0  0
    2.7393   29.8677   56.6206 Si  0  0  0  0  0
    5.0915   28.2660   60.4578 N   0  0  0  0  0
  1 18  1  0  0  0
  2 26  1  0  0  0
  2  3  1  0  0  0
  2 12  1  0  0  0
  3  4  1  0  0  0
  4 19  1  0  0  0
  5 19  1  0  0  0
  7  6  1  0  0  0
  7  8  1  0  0  0
  7 27  1  0  0  0
  8  9  1  0  0  0
  9 20  1  0  0  0
 10 20  1  0  0  0
 10  6  1  0  0  0
 11 28  1  0  0  0
 12  5  1  0  0  0
 13 21  1  0  0  0
 14 22  1  0  0  0
 15 23  1  0  0  0
 16 24  1  0  0  0
 17 25  1  0  0  0
 26 18  1  0  0  0
 26 24  1  0  0  0
 26 25  1  0  0  0
 27 21  1  0  0  0
 27 22  1  0  0  0
 27 23  1  0  0  0
  5  6  2  0  0  0
 10 28  2  0  0  0
 11 12  2  0  0  0
M  END
> <rmsd>
0.637960076

$$$$
PubChem-7034895


 27 28  0  0  0  0  0  0  0  0999 V2000
    1.1910   26.1144   58.8547 C   0  0  0  0  0
    2.4572   25.9084   59.4043 C   0  0  0  0  0
    2.6904   26.2050   60.7484 C   0  0  0  0  0
    1.6614   26.7107   61.5506 C   0  0  0  0  0
    0.3813   26.9162   61.0037 C   0  0  0  0  0
    0.1581   26.6161   59.6495 C   0  0  0  0  0
   -1.9462   27.7273   61.3151 C   0  0  0  0  0
   -2.0482   29.2187   61.0403 C   0  0  0  0  0
   -0.5733   30.7638   60.4569 C   0  0  0  0  0
    0.8707   30.5020   60.8439 C   0  0  0  0  0
    2.9375   29.6635   59.7683 C   0  0  0  0  0
    3.6230   29.6310   60.9942 C   0  0  0  0  0
    4.9473   29.1934   61.0554 C   0  0  0  0  0
    5.6017   28.7890   59.8909 C   0  0  0  0  0
    4.9316   28.8239   58.6661 C   0  0  0  0  0
    3.6011   29.2521   58.5978 C   0  0  0  0  0
   -0.6522   27.4050   61.8137 O   0  0  0  0  0
   -1.1704   29.5802   60.0164 O   0  0  0  0  0
    1.6057   30.0859   59.7009 O   0  0  0  0  0
    2.7999   30.7609   56.5070 O   0  0  0  0  0
    3.6287   28.3589   55.8907 O   0  0  0  0  0
    1.1995   28.7876   57.1198 O   0  0  0  0  0
    1.6708   28.5247   63.5576 O   0  0  0  0  0
    1.0498   26.0817   64.2544 O   0  0  0  0  0
    3.6344   26.8005   63.6116 O   0  0  0  0  0
    2.7961   29.3310   56.9962 P   0  0  0  0  0
    2.0004   27.0774   63.2726 P   0  0  0  0  0
  2  3  1  0  0  0
  4  5  1  0  0  0
  5 17  1  0  0  0
  6  1  1  0  0  0
  7 17  1  0  0  0
  7  8  1  0  0  0
  8 18  1  0  0  0
  9 18  1  0  0  0
  9 10  1  0  0  0
 10 19  1  0  0  0
 11 19  1  0  0  0
 12 13  1  0  0  0
 14 15  1  0  0  0
 16 11  1  0  0  0
 26 16  1  0  0  0
 26 21  1  0  0  0
 26 22  1  0  0  0
 27  4  1  0  0  0
 27 24  1  0  0  0
 27 25  1  0  0  0
  1  2  2  0  0  0
  3  4  2  0  0  0
  5  6  2  0  0  0
 11 12  2  0  0  0
 13 14  2  0  0  0
 15 16  2  0  0  0
 26 20  2  0  0  0
 27 23  2  0  0  0
M  CHG  4  21  -1  22  -1  24  -1  25  -1
M  END
> <rmsd>
0.743730605

$$$$
PubChem-20080233


 32 34  0  0  0  0  0  0  0  0999 V2000
   -5.3153   31.1112   61.4757 C   0  0  0  0  0
   -4.7666   31.3868   62.8684 C   0  0  0  0  0
   -3.3101   30.9652   62.8481 C   0  0  0  0  0
   -4.1139   30.9313   60.5681 C   0  0  0  0  0
   -1.6528   30.4526   60.9894 C   0  0  0  0  0
   -0.5982   30.3015   61.9010 C   0  0  0  0  0
    0.6806   29.9958   61.4319 C   0  0  0  0  0
   -0.1127   29.9451   59.1922 C   0  0  0  0  0
   -1.4019   30.2659   59.6223 C   0  0  0  0  0
    0.1467   29.7086   57.7355 C   0  0  0  0  0
    0.8832   27.4674   57.8611 C   0  0  0  0  0
    2.0943   26.5761   58.1392 C   0  0  0  0  0
    2.4077   27.0129   60.4699 C   0  0  0  0  0
    3.0330   28.0168   61.4268 C   0  0  0  0  0
    1.7985   29.7629   62.3919 C   0  0  0  0  0
    2.7863   28.1412   63.7494 C   0  0  0  0  0
    2.4743   26.7924   64.3011 C   0  0  0  0  0
    4.3057   26.5232   59.0561 C   0  0  0  0  0
    4.3142   25.0794   59.4790 C   0  0  0  0  0
    1.5870   28.8560   56.1026 C   0  0  0  0  0
    2.8440   29.6170   55.8560 C   0  0  0  0  0
   -2.9738   30.7782   61.4503 N   0  0  0  0  0
    0.8938   29.8354   60.0996 N   0  0  0  0  0
    1.2945   28.8282   57.5279 N   0  0  0  0  0
    2.9859   27.1686   59.1355 N   0  0  0  0  0
    2.0891   28.3376   62.4888 N   0  0  0  0  0
    3.3970   25.9533   64.4658 O   0  0  0  0  0
    1.1686   26.4619   64.6393 O   0  0  0  0  0
    3.7278   24.2061   58.7878 O   0  0  0  0  0
    4.9989   24.7045   60.6267 O   0  0  0  0  0
    3.9368   29.2044   56.3253 O   0  0  0  0  0
    2.8110   30.7790   55.0978 O   0  0  0  0  0
  1  2  1  0  0  0
  2  3  1  0  0  0
  3 22  1  0  0  0
  4 22  1  0  0  0
  4  1  1  0  0  0
  6  7  1  0  0  0
  8 23  1  0  0  0
  9  5  1  0  0  0
 10  8  1  0  0  0
 10 24  1  0  0  0
 11 24  1  0  0  0
 11 12  1  0  0  0
 12 25  1  0  0  0
 13 25  1  0  0  0
 13 14  1  0  0  0
 14 26  1  0  0  0
 15 26  1  0  0  0
 15  7  1  0  0  0
 16 26  1  0  0  0
 16 17  1  0  0  0
 17 28  1  0  0  0
 18 25  1  0  0  0
 18 19  1  0  0  0
 19 30  1  0  0  0
 20 24  1  0  0  0
 20 21  1  0  0  0
 21 32  1  0  0  0
 22  5  1  0  0  0
  5  6  2  0  0  0
  7 23  2  0  0  0
  8  9  2  0  0  0
 17 27  2  0  0  0
 19 29  2  0  0  0
 21 31  2  0  0  0
M  END
> <rmsd>
0.746689677

$$$$
PubChem-142240469 PubChem-142240470


 38 39  0  0  0  0  0  0  0  0999 V2000
    7.6428   25.2289   60.6459 C   0  0  0  0  0
    6.7481   26.4557   60.5826 C   0  0  0  0  0
    5.2643   26.0917   60.4432 C   0  0  0  0  0
    4.6409   25.5274   61.7273 C   0  0  0  0  0
    4.7496   26.5259   62.8841 C   0  0  0  0  0
    3.9223   27.7860   62.6006 C   0  0  0  0  0
    2.4345   27.5797   62.7490 C   0  0  0  0  0
    1.5664   27.3129   61.5426 C   0  0  0  0  0
    2.2654   27.6049   60.2109 C   0  0  0  0  0
    1.3336   28.2360   59.1713 C   0  0  0  0  0
    2.1357   28.5576   57.8921 C   0  0  0  0  0
    2.7561   27.2993   57.2385 C   0  0  0  0  0
    4.1629   27.5032   56.6594 C   0  0  0  0  0
    5.2485   27.0933   57.6590 C   0  0  0  0  0
    5.1472   25.6330   58.0129 C   0  0  0  0  0
    6.6348   27.3741   57.0976 C   0  0  0  0  0
    1.8558   26.6509   56.2016 C   0  0  0  0  0
    1.8832   30.5540   56.9094 C   0  0  0  0  0
    0.8371   31.5691   57.3837 C   0  0  0  0  0
    1.4185   32.9794   57.2943 C   0  0  0  0  0
    2.0498   33.2076   55.9252 C   0  0  0  0  0
    2.9848   32.0375   55.6076 C   0  0  0  0  0
    3.6350   32.2671   54.2599 C   0  0  0  0  0
    0.4487   34.7658   58.4953 C   0  0  0  0  0
    0.1688   27.3038   58.8522 C   0  0  0  0  0
    1.0860   25.8707   61.5596 C   0  0  0  0  0
    4.4195   28.9644   63.4214 C   0  0  0  0  0
    1.9046   27.6326   63.9346 N   0  0  0  0  0
    0.3758   33.9470   57.5133 N   0  0  0  0  0
    0.5537   27.4794   64.1345 O   0  0  0  0  0
    5.1430   24.7668   57.0966 O   0  0  0  0  0
    5.0402   25.2163   59.3415 O   0  0  0  0  0
    4.3508   28.8235   56.2312 O   0  0  0  0  0
    1.3427   29.2672   56.9722 O   0  0  0  0  0
    2.2504   30.8369   55.5798 O   0  0  0  0  0
    0.8209   29.4259   59.6948 O   0  0  0  0  0
    4.3659   25.9351   64.0942 O   0  0  0  0  0
    5.2276   24.3043   62.0680 O   0  0  0  0  0
  1  2  1  0  0  0
  3  2  1  0  0  0
  3  4  1  0  0  0
  3 32  1  0  0  0
  4  5  1  0  0  0
  4 38  1  0  0  0
  5  6  1  0  0  0
  5 37  1  0  0  0
  6  7  1  0  0  0
  6 27  1  0  0  0
  8  7  1  0  0  0
  8  9  1  0  0  0
  8 26  1  0  0  0
  9 10  1  0  0  0
 10 11  1  0  0  0
 10 25  1  0  0  0
 10 36  1  0  0  0
 11 12  1  0  0  0
 11 34  1  0  0  0
 12 13  1  0  0  0
 12 17  1  0  0  0
 13 14  1  0  0  0
 13 33  1  0  0  0
 14 15  1  0  0  0
 14 16  1  0  0  0
 15 32  1  0  0  0
 18 34  1  0  0  0
 18 19  1  0  0  0
 18 35  1  0  0  0
 19 20  1  0  0  0
 20 21  1  0  0  0
 20 29  1  0  0  0
 21 22  1  0  0  0
 22 35  1  0  0  0
 22 23  1  0  0  0
 28 30  1  0  0  0
  7 28  2  0  0  0
 15 31  2  0  0  0
 24 29  2  0  0  0
M  END
> <rmsd>
0.675343692

$$$$
PubChem-164784789 PubChem-165038632


 17 16  0  0  0  0  0  0  0  0999 V2000
    3.1825   32.8757   55.5651 C   0  0  0  0  0
    3.1656   31.8720   56.4275 C   0  0  0  0  0
    1.8281   28.9856   59.7268 C   0  0  0  0  0
    2.3980   29.3089   61.0984 C   0  0  0  0  0
    3.9186   29.3668   61.0422 C   0  0  0  0  0
    1.9689   28.2253   62.0693 C   0  0  0  0  0
    2.2909   30.8100   56.2397 O   0  0  0  0  0
    3.6190   28.8350   57.3664 O   0  0  0  0  0
    1.0851   28.3944   56.8720 O   0  0  0  0  0
    1.8999   30.1079   58.8980 O   0  0  0  0  0
    2.2564   28.6159   63.3796 O   0  0  0  0  0
    0.9715   26.5129   64.2971 O   0  0  0  0  0
    3.4636   26.1239   63.5888 O   0  0  0  0  0
    2.7976   27.5365   65.8590 O   0  0  0  0  0
    2.2643   29.5084   57.3538 P   0  0  0  0  0
    2.3300   27.1773   64.2744 P   0  0  0  0  0
    4.3524   30.6307   60.4726 N   0  0  0  0  0
  2  7  1  0  0  0
  3 10  1  0  0  0
  3  4  1  0  0  0
  4  5  1  0  0  0
  4  6  1  0  0  0
  5 17  1  0  0  0
  6 11  1  0  0  0
 15  7  1  0  0  0
 15  9  1  0  0  0
 15 10  1  0  0  0
 16 11  1  0  0  0
 16 13  1  0  0  0
 16 14  1  0  0  0
  1  2  2  0  0  0
 15  8  2  0  0  0
 16 12  2  0  0  0
M  CHG  2   9  -1  14  -1
M  END
> <rmsd>
0.726798713

$$$$
PubChem-157608519 PubChem-160199478 PubChem-88913774


 27 31  0  0  0  0  0  0  0  0999 V2000
    0.9927   25.9924   62.2314 C   0  0  0  0  0
    0.8633   28.9577   63.2906 C   0  0  0  0  0
    0.8175   30.0022   62.1875 C   0  0  0  0  0
    0.8574   29.3427   60.8194 C   0  0  0  0  0
   -0.5035   28.7682   60.4758 C   0  0  0  0  0
   -0.3323   27.9348   59.2239 C   0  0  0  0  0
    0.3607   28.7169   58.1019 C   0  0  0  0  0
    1.4548   29.6844   58.5937 C   0  0  0  0  0
    2.6644   28.8043   58.5785 C   0  0  0  0  0
    2.3800   28.0452   57.2973 C   0  0  0  0  0
    2.7337   28.9443   56.1020 C   0  0  0  0  0
    2.0238   30.2809   56.1322 C   0  0  0  0  0
    1.6774   30.7958   57.5510 C   0  0  0  0  0
    4.1780   30.5496   55.5633 C   0  0  0  0  0
    5.1158   31.3488   56.4774 C   0  0  0  0  0
    5.3780   32.7488   55.9246 C   0  0  0  0  0
    5.9760   32.6565   54.5253 C   0  0  0  0  0
    5.0250   31.9057   53.6003 C   0  0  0  0  0
    4.7607   30.5024   54.1443 C   0  0  0  0  0
    1.8610   26.7202   63.6042 S   0  0  0  0  0
    3.1883   26.0321   63.7513 O   0  0  0  0  0
    1.0684   26.5251   64.8674 O   0  0  0  0  0
    2.1281   28.3631   63.3308 O   0  0  0  0  0
    1.2122   30.2991   59.8510 O   0  0  0  0  0
    0.9902   27.7769   57.2526 O   0  0  0  0  0
    2.9067   31.1738   55.5314 O   0  0  0  0  0
    4.0937   29.2315   56.0588 O   0  0  0  0  0
  1 20  1  0  0  0
  2 23  1  0  0  0
  2  3  1  0  0  0
  4  3  1  0  0  0
  4  5  1  0  0  0
  4 24  1  0  0  0
  5  6  1  0  0  0
  7  6  1  0  0  0
  7  8  1  0  0  0
  7 25  1  0  0  0
  8 24  1  0  0  0
  8  9  1  0  0  0
 10  9  1  0  0  0
 10 25  1  0  0  0
 10 11  1  0  0  0
 11 12  1  0  0  0
 11 27  1  0  0  0
 12 13  1  0  0  0
 12 26  1  0  0  0
 13  8  1  0  0  0
 14 26  1  0  0  0
 14 27  1  0  0  0
 14 15  1  0  0  0
 15 16  1  0  0  0
 16 17  1  0  0  0
 17 18  1  0  0  0
 18 19  1  0  0  0
 19 14  1  0  0  0
 20 23  1  0  0  0
 20 21  2  0  0  0
 20 22  2  0  0  0
M  END
> <rmsd>
0.646890461

$$$$
PubChem-158364367 PubChem-158601277 PubChem-159229665 PubChem-160264518


 16 15  0  0  0  0  0  0  0  0999 V2000
    4.6169   29.6858   57.5664 C   0  0  0  0  0
    1.9683   28.9662   59.7250 C   0  0  0  0  0
    2.3742   29.3823   61.1251 C   0  0  0  0  0
    2.2957   28.1796   62.0443 C   0  0  0  0  0
   -0.0838   27.3947   64.4799 C   0  0  0  0  0
    3.6638   28.7201   57.2395 O   0  0  0  0  0
    1.0691   28.5563   56.9319 O   0  0  0  0  0
    2.1593   30.8250   56.2517 O   0  0  0  0  0
    1.8910   30.0903   58.8992 O   0  0  0  0  0
    2.5114   28.5774   63.3660 O   0  0  0  0  0
    3.4469   26.1831   63.9047 O   0  0  0  0  0
    2.5491   27.5569   65.9306 O   0  0  0  0  0
    0.8463   26.4475   64.0491 O   0  0  0  0  0
    3.6801   29.8751   61.1081 O   0  0  0  0  0
    2.1687   29.5174   57.3259 P   0  0  0  0  0
    2.3642   27.1647   64.2948 P   0  0  0  0  0
  1  6  1  0  0  0
  2  9  1  0  0  0
  2  3  1  0  0  0
  3  4  1  0  0  0
  3 14  1  0  0  0
  4 10  1  0  0  0
  5 13  1  0  0  0
 15  6  1  0  0  0
 15  8  1  0  0  0
 15  9  1  0  0  0
 16 10  1  0  0  0
 16 12  1  0  0  0
 16 13  1  0  0  0
 15  7  2  0  0  0
 16 11  2  0  0  0
M  CHG  1  12  -1
M  END
> <rmsd>
0.715825558

$$$$
PubChem-71467807


 37 41  0  0  0  0  0  0  0  0999 V2000
    4.5140   24.3636   60.4972 C   0  0  0  0  0
    3.5268   25.2550   61.2289 C   0  0  0  0  0
    3.1399   24.6207   62.5581 C   0  0  0  0  0
    2.2398   23.3900   62.4107 C   0  0  0  0  0
    2.0549   22.6880   63.7618 C   0  0  0  0  0
    1.4267   23.6701   64.7571 C   0  0  0  0  0
    2.4065   24.8318   64.9942 C   0  0  0  0  0
    2.6426   25.5911   63.6643 C   0  0  0  0  0
    1.6353   26.6906   63.3412 C   0  0  0  0  0
    1.0774   26.8159   61.9268 C   0  0  0  0  0
    1.2282   28.0139   61.2107 C   0  0  0  0  0
    0.6668   28.1816   59.9403 C   0  0  0  0  0
   -0.0829   27.1216   59.3700 C   0  0  0  0  0
   -0.2346   25.9251   60.0931 C   0  0  0  0  0
    0.3337   25.7747   61.3584 C   0  0  0  0  0
   -1.4469   26.2344   57.4948 C   0  0  0  0  0
    0.4988   29.7052   57.9587 C   0  0  0  0  0
    0.1694   31.1918   57.7699 C   0  0  0  0  0
    1.4514   32.0396   57.7867 C   0  0  0  0  0
    2.5460   31.4227   56.9108 C   0  0  0  0  0
    2.6878   29.9470   57.2894 C   0  0  0  0  0
    3.8279   29.2985   56.5245 C   0  0  0  0  0
   -0.3691   26.0251   64.2847 C   0  0  0  0  0
    3.7423   24.3123   65.5760 C   0  0  0  0  0
    3.8687   22.7795   65.5887 C   0  0  0  0  0
    3.4092   22.1448   64.2684 C   0  0  0  0  0
    2.7054   27.5814   63.5176 O   0  0  0  0  0
    3.5754   26.6181   63.8422 O   0  0  0  0  0
   -0.6973   27.2707   58.1196 O   0  0  0  0  0
    0.8659   29.4195   59.3075 O   0  0  0  0  0
    1.4832   29.2523   57.0449 O   0  0  0  0  0
    4.0740   28.0190   57.0233 O   0  0  0  0  0
    2.2157   31.5461   55.5583 O   0  0  0  0  0
    1.1814   33.3501   57.3857 O   0  0  0  0  0
   -0.5104   31.3584   56.5644 O   0  0  0  0  0
    0.6712   26.9654   64.3475 O   0  0  0  0  0
    5.5497   22.3127   65.9305 Cl  0  0  0  0  0
  1  2  1  0  0  0
  3  2  1  0  0  0
  3  4  1  0  0  0
  5  4  1  0  0  0
  5  6  1  0  0  0
  7  6  1  0  0  0
  7  8  1  0  0  0
  7 24  1  0  0  0
  8  9  1  0  0  0
  8  3  1  0  0  0
  8 28  1  0  0  0
  9 27  1  0  0  0
  9 10  1  0  0  0
  9 36  1  0  0  0
 11 12  1  0  0  0
 12 30  1  0  0  0
 13 14  1  0  0  0
 13 29  1  0  0  0
 15 10  1  0  0  0
 16 29  1  0  0  0
 17 30  1  0  0  0
 17 18  1  0  0  0
 17 31  1  0  0  0
 18 19  1  0  0  0
 18 35  1  0  0  0
 19 20  1  0  0  0
 19 34  1  0  0  0
 20 21  1  0  0  0
 20 33  1  0  0  0
 21 31  1  0  0  0
 21 22  1  0  0  0
 22 32  1  0  0  0
 23 36  1  0  0  0
 24 25  1  0  0  0
 25 26  1  0  0  0
 25 37  1  0  0  0
 26  5  1  0  0  0
 27 28  1  0  0  0
 10 11  2  0  0  0
 12 13  2  0  0  0
 14 15  2  0  0  0
M  END
> <rmsd>
0.758124173

$$$$
PubChem-20400418


 27 27  0  0  0  0  0  0  0  0999 V2000
    0.9935   26.4874   56.4755 C   0  0  0  0  0
    1.1510   27.9274   56.8208 C   0  0  0  0  0
    2.3483   28.3707   57.6095 C   0  0  0  0  0
    1.9692   28.9299   58.9533 C   0  0  0  0  0
    2.3900   28.2370   60.1992 C   0  0  0  0  0
    2.0741   28.7324   61.4864 C   0  0  0  0  0
    2.4620   28.0058   62.6352 C   0  0  0  0  0
    3.2465   26.8412   62.5041 C   0  0  0  0  0
    3.5695   26.3772   61.2242 C   0  0  0  0  0
    3.1396   27.0595   60.0910 C   0  0  0  0  0
    4.4524   25.0041   63.7131 C   0  0  0  0  0
    4.8785   24.4778   65.0355 C   0  0  0  0  0
    1.4966   27.6611   64.8909 C   0  0  0  0  0
    1.3184   28.2089   66.2603 C   0  0  0  0  0
    1.6792   30.9758   62.4575 C   0  0  0  0  0
    0.7142   32.0856   62.6681 C   0  0  0  0  0
    3.2183   29.3108   56.8360 C   0  0  0  0  0
    0.3048   28.7313   56.4610 O   0  0  0  0  0
    1.2869   29.9898   59.0044 O   0  0  0  0  0
    3.7063   26.1903   63.6623 O   0  0  0  0  0
    4.7642   24.3694   62.6707 O   0  0  0  0  0
    2.0624   28.4679   63.8979 O   0  0  0  0  0
    1.0952   26.4948   64.6327 O   0  0  0  0  0
    1.3331   29.9171   61.6111 O   0  0  0  0  0
    2.8110   31.0250   63.0097 O   0  0  0  0  0
    4.4042   28.9847   56.5708 O   0  0  0  0  0
    2.7314   30.5420   56.4127 O   0  0  0  0  0
  1  2  1  0  0  0
  3  2  1  0  0  0
  3  4  1  0  0  0
  3 17  1  0  0  0
  4  5  1  0  0  0
  6  7  1  0  0  0
  6 24  1  0  0  0
  7 22  1  0  0  0
  8  9  1  0  0  0
  8 20  1  0  0  0
 10  5  1  0  0  0
 11 20  1  0  0  0
 12 11  1  0  0  0
 13 22  1  0  0  0
 14 13  1  0  0  0
 15 24  1  0  0  0
 16 15  1  0  0  0
 17 27  1  0  0  0
  2 18  2  0  0  0
  4 19  2  0  0  0
  5  6  2  0  0  0
  7  8  2  0  0  0
  9 10  2  0  0  0
 11 21  2  0  0  0
 13 23  2  0  0  0
 15 25  2  0  0  0
 17 26  2  0  0  0
M  END
> <rmsd>
0.677872956

$$$$
PubChem-20400418


 27 27  0  0  0  0  0  0  0  0999 V2000
    1.0567   26.4763   56.4015 C   0  0  0  0  0
    1.1832   27.9144   56.7672 C   0  0  0  0  0
    2.3578   28.3677   57.5838 C   0  0  0  0  0
    1.9435   28.9040   58.9266 C   0  0  0  0  0
    2.3476   28.2002   60.1718 C   0  0  0  0  0
    1.9749   28.6586   61.4573 C   0  0  0  0  0
    2.3951   27.9540   62.6082 C   0  0  0  0  0
    3.1848   26.7920   62.4769 C   0  0  0  0  0
    3.5215   26.3376   61.1970 C   0  0  0  0  0
    3.1088   27.0305   60.0640 C   0  0  0  0  0
    4.3900   24.9522   63.6822 C   0  0  0  0  0
    4.8411   24.4385   65.0013 C   0  0  0  0  0
    1.5685   27.7065   64.9319 C   0  0  0  0  0
    1.4872   28.3071   66.2882 C   0  0  0  0  0
    0.0329   29.9182   62.3280 C   0  0  0  0  0
   -0.5796   31.2502   62.5678 C   0  0  0  0  0
    3.2264   29.3315   56.8384 C   0  0  0  0  0
    0.3303   28.7084   56.4012 O   0  0  0  0  0
    1.2463   29.9541   58.9773 O   0  0  0  0  0
    3.6522   26.1438   63.6334 O   0  0  0  0  0
    4.6704   24.3007   62.6413 O   0  0  0  0  0
    2.0733   28.4692   63.8729 O   0  0  0  0  0
    1.1362   26.5376   64.7448 O   0  0  0  0  0
    1.2136   29.8295   61.5831 O   0  0  0  0  0
   -0.5414   28.8841   62.7625 O   0  0  0  0  0
    4.4228   29.0291   56.5935 O   0  0  0  0  0
    2.7265   30.5588   56.4188 O   0  0  0  0  0
  1  2  1  0  0  0
  3  2  1  0  0  0
  3  4  1  0  0  0
  3 17  1  0  0  0
  4  5  1  0  0  0
  6  7  1  0  0  0
  6 24  1  0  0  0
  7 22  1  0  0  0
  8  9  1  0  0  0
  8 20  1  0  0  0
 10  5  1  0  0  0
 11 20  1  0  0  0
 12 11  1  0  0  0
 13 22  1  0  0  0
 14 13  1  0  0  0
 15 24  1  0  0  0
 16 15  1  0  0  0
 17 27  1  0  0  0
  2 18  2  0  0  0
  4 19  2  0  0  0
  5  6  2  0  0  0
  7  8  2  0  0  0
  9 10  2  0  0  0
 11 21  2  0  0  0
 13 23  2  0  0  0
 15 25  2  0  0  0
 17 26  2  0  0  0
M  END
> <rmsd>
0.701625049

$$$$
PubChem-130375698


 31 36  0  0  0  0  0  0  0  0999 V2000
    5.8679   28.2950   63.2904 C   0  0  0  0  0
    6.1732   27.4984   62.0119 C   0  0  0  0  0
    5.2780   26.2500   61.9629 C   0  0  0  0  0
    3.7955   26.6660   61.9733 C   0  0  0  0  0
    3.5250   27.5415   60.7365 C   0  0  0  0  0
    4.4042   28.8079   60.7809 C   0  0  0  0  0
    5.8807   28.3785   60.7861 C   0  0  0  0  0
    4.1187   29.6004   62.0729 C   0  0  0  0  0
    4.3873   28.7177   63.3050 C   0  0  0  0  0
    3.4797   27.4622   63.2624 C   0  0  0  0  0
    2.6688   26.8358   65.2454 C   0  0  0  0  0
    2.1821   25.5091   65.7434 C   0  0  0  0  0
    0.8705   25.2844   65.0046 C   0  0  0  0  0
   -0.2495   25.2562   66.0576 C   0  0  0  0  0
    1.7433   25.6161   67.1500 C   0  0  0  0  0
    1.5535   27.3676   64.4130 C   0  0  0  0  0
    2.9286   30.1904   59.3050 C   0  0  0  0  0
    2.7923   30.9725   58.0374 C   0  0  0  0  0
    3.7444   26.6488   64.3843 O   0  0  0  0  0
    0.3852   25.4666   67.3041 O   0  0  0  0  0
    2.5220   25.8141   68.1192 O   0  0  0  0  0
    0.6496   26.3353   64.0960 O   0  0  0  0  0
    2.1244   27.8600   63.2419 O   0  0  0  0  0
    4.1680   29.6211   59.6310 O   0  0  0  0  0
    1.9200   30.0065   60.0404 O   0  0  0  0  0
    1.1398   29.1549   56.9344 O   0  0  0  0  0
    2.3337   30.6565   55.4085 O   0  0  0  0  0
    3.6745   28.7394   56.5372 O   0  0  0  0  0
    1.7677   31.8953   58.1559 F   0  0  0  0  0
    3.9722   31.6461   57.7791 F   0  0  0  0  0
    2.4385   29.8681   56.6832 S   0  0  0  0  0
  1  2  1  0  0  0
  2  3  1  0  0  0
  3  4  1  0  0  0
  4  5  1  0  0  0
  5  6  1  0  0  0
  6  7  1  0  0  0
  6  8  1  0  0  0
  6 24  1  0  0  0
  7  2  1  0  0  0
  8  9  1  0  0  0
  9 10  1  0  0  0
  9  1  1  0  0  0
 10 19  1  0  0  0
 10  4  1  0  0  0
 10 23  1  0  0  0
 11 19  1  0  0  0
 11 12  1  0  0  0
 12 13  1  0  0  0
 12 15  1  0  0  0
 13 14  1  0  0  0
 13 22  1  0  0  0
 14 20  1  0  0  0
 15 20  1  0  0  0
 16 22  1  0  0  0
 16 23  1  0  0  0
 16 11  1  0  0  0
 17 24  1  0  0  0
 18 17  1  0  0  0
 18 29  1  0  0  0
 18 30  1  0  0  0
 18 31  1  0  0  0
 31 28  1  0  0  0
 15 21  2  0  0  0
 17 25  2  0  0  0
 31 26  2  0  0  0
 31 27  2  0  0  0
M  END
> <rmsd>
0.641447186

$$$$
PubChem-20711570 13538980 ZINC000013538980


 22 24  0  0  0  0  0  0  0  0999 V2000
    1.9699   24.9424   65.6568 N   0  0  0  0  0
    0.7998   26.8598   64.7445 N   0  0  0  0  0
    1.8353   28.3438   63.1992 N   0  0  0  0  0
    4.2405   25.9104   63.9617 N   0  0  0  0  0
    4.1173   27.7501   62.6498 N   0  0  0  0  0
    1.9283   26.0939   64.8214 C   0  0  0  0  0
    0.7493   27.9735   63.9437 C   0  0  0  0  0
    2.9497   27.5766   63.2810 C   0  0  0  0  0
    3.0240   26.4781   64.0619 C   0  0  0  0  0
    4.8921   26.7235   63.0816 C   0  0  0  0  0
    4.5128   28.8031   61.7221 C   0  0  0  0  0
    4.6058   30.1401   62.4333 C   0  0  0  0  0
    3.9540   31.0888   61.4816 C   0  0  0  0  0
    3.0184   30.1660   60.7263 C   0  0  0  0  0
    2.6592   30.6834   59.3404 C   0  0  0  0  0
    4.9319   31.6165   60.6323 O   0  0  0  0  0
    1.6822   29.8659   58.7676 O   0  0  0  0  0
    3.5025   28.7488   57.2335 O   0  0  0  0  0
    2.4936   31.0064   56.3685 O   0  0  0  0  0
    1.0394   28.6658   56.3690 O   0  0  0  0  0
    3.5986   28.8876   60.6524 O   0  0  0  0  0
    2.2217   29.5522   57.1905 P   0  0  0  0  0
  1  6  1  0  0  0
  5  8  1  0  0  0
  7  2  1  0  0  0
  8  3  1  0  0  0
  9  4  1  0  0  0
  9  6  1  0  0  0
 10  5  1  0  0  0
 11  5  1  0  0  0
 11 12  1  0  0  0
 11 21  1  0  0  0
 12 13  1  0  0  0
 13 16  1  0  0  0
 13 14  1  0  0  0
 14 15  1  0  0  0
 14 21  1  0  0  0
 15 17  1  0  0  0
 22 17  1  0  0  0
 22 19  1  0  0  0
 22 20  1  0  0  0
  6  2  2  0  0  0
  7  3  2  0  0  0
  8  9  2  0  0  0
 10  4  2  0  0  0
 22 18  2  0  0  0
M  END
> <rmsd>
0.680054247

$$$$
PubChem-122544683


 32 33  0  0  0  0  0  0  0  0999 V2000
    7.1964   27.5161   61.6725 C   0  0  0  0  0
    6.3012   28.3553   60.7833 C   0  0  0  0  0
    4.8563   28.2839   61.2691 C   0  0  0  0  0
    4.0190   27.1593   60.6101 C   0  0  0  0  0
    4.6529   25.7902   60.8390 C   0  0  0  0  0
    4.0065   27.3694   59.0907 C   0  0  0  0  0
    3.3898   28.7012   58.6612 C   0  0  0  0  0
    1.8762   28.6076   58.6174 C   0  0  0  0  0
    1.5177   29.0112   57.2250 C   0  0  0  0  0
    2.8238   28.8913   56.4831 C   0  0  0  0  0
    2.9095   29.9081   55.3850 C   0  0  0  0  0
    2.9977   29.5211   54.0360 C   0  0  0  0  0
    3.0704   31.8015   53.3865 C   0  0  0  0  0
    2.9806   32.1898   54.7301 C   0  0  0  0  0
    2.9653   33.6276   55.1223 C   0  0  0  0  0
    3.0032   28.1343   53.6474 C   0  0  0  0  0
    3.0052   26.9726   53.3255 C   0  0  0  0  0
    3.0075   25.5628   52.9368 C   0  0  0  0  0
    0.8064   26.6509   63.1668 C   0  0  0  0  0
   -0.1598   27.6204   62.5111 C   0  0  0  0  0
   -1.5750   27.0834   62.5871 C   0  0  0  0  0
    3.8814   29.0629   57.3923 O   0  0  0  0  0
    3.1432   32.6602   52.4671 O   0  0  0  0  0
    0.5876   28.1168   56.6966 O   0  0  0  0  0
    1.3226   29.5123   59.5229 O   0  0  0  0  0
    2.6670   27.1495   61.0513 O   0  0  0  0  0
    3.4561   26.1312   63.3943 O   0  0  0  0  0
    0.6359   26.6726   64.5517 O   0  0  0  0  0
    2.8066   28.6688   63.3914 O   0  0  0  0  0
    3.0753   30.4788   53.0749 N   0  0  0  0  0
    2.9021   31.2344   55.6925 N   0  0  0  0  0
    2.5099   27.1261   62.7615 P   0  0  0  0  0
  1  2  1  0  0  0
  2  3  1  0  0  0
  3  4  1  0  0  0
  4  5  1  0  0  0
  4  6  1  0  0  0
  4 26  1  0  0  0
  7  6  1  0  0  0
  7  8  1  0  0  0
  7 22  1  0  0  0
  8  9  1  0  0  0
  8 25  1  0  0  0
  9 10  1  0  0  0
  9 24  1  0  0  0
 10 22  1  0  0  0
 10 11  1  0  0  0
 11 31  1  0  0  0
 12 30  1  0  0  0
 12 16  1  0  0  0
 13 14  1  0  0  0
 15 14  1  0  0  0
 18 17  1  0  0  0
 19 20  1  0  0  0
 19 28  1  0  0  0
 20 21  1  0  0  0
 30 13  1  0  0  0
 32 26  1  0  0  0
 32 19  1  0  0  0
 32 29  1  0  0  0
 11 12  2  0  0  0
 13 23  2  0  0  0
 14 31  2  0  0  0
 32 27  2  0  0  0
 16 17  3  0  0  0
M  END
> <rmsd>
0.631280124

$$$$
PubChem-143757417


 38 41  0  0  0  0  0  0  0  0999 V2000
    3.5877   31.8867   53.9539 C   0  0  0  0  0
    3.7040   30.9078   55.0659 C   0  0  0  0  0
    4.9621   30.5243   55.5277 C   0  0  0  0  0
    5.0306   29.6084   56.5755 C   0  0  0  0  0
    2.6676   29.4982   56.6569 C   0  0  0  0  0
    1.5104   28.0574   58.2993 C   0  0  0  0  0
    1.7916   28.7596   59.5947 C   0  0  0  0  0
    2.9954   28.6865   61.7423 C   0  0  0  0  0
    4.3934   28.2788   62.2366 C   0  0  0  0  0
    4.3506   27.5584   63.5893 C   0  0  0  0  0
    3.3032   28.1631   64.5311 C   0  0  0  0  0
    2.0461   28.6302   63.7799 C   0  0  0  0  0
    0.8237   28.2719   64.5522 C   0  0  0  0  0
    0.2206   27.1750   58.3558 C   0  0  0  0  0
   -0.0112   26.3844   57.0635 C   0  0  0  0  0
    0.9671   26.3074   56.0558 C   0  0  0  0  0
    0.7430   25.5532   54.9012 C   0  0  0  0  0
   -0.4585   24.8598   54.7429 C   0  0  0  0  0
   -1.4354   24.9186   55.7396 C   0  0  0  0  0
   -1.2115   25.6730   56.8942 C   0  0  0  0  0
    0.4347   26.1482   59.4636 C   0  0  0  0  0
   -0.4059   26.1112   60.5904 C   0  0  0  0  0
   -0.1780   25.1941   61.6196 C   0  0  0  0  0
    0.8946   24.3035   61.5376 C   0  0  0  0  0
    1.7395   24.3286   60.4260 C   0  0  0  0  0
    1.5122   25.2448   59.3959 C   0  0  0  0  0
   -1.2587   28.8424   57.6436 C   0  0  0  0  0
    6.3519   29.1735   57.0978 C   0  0  0  0  0
    3.8892   29.1118   57.1186 N   0  0  0  0  0
    2.5841   30.3928   55.6370 N   0  0  0  0  0
    1.4960   28.9844   57.2162 O   0  0  0  0  0
    1.0501   29.7033   59.9831 O   0  0  0  0  0
    2.8597   28.3217   60.3775 O   0  0  0  0  0
    1.9815   28.0649   62.4956 O   0  0  0  0  0
    0.0619   29.1798   64.9741 O   0  0  0  0  0
    0.5166   26.9396   64.8024 O   0  0  0  0  0
    4.0733   26.2054   63.3894 O   0  0  0  0  0
   -0.9209   27.9642   58.6898 O   0  0  0  0  0
  1  2  1  0  0  0
  2 30  1  0  0  0
  3  4  1  0  0  0
  5 29  1  0  0  0
  5 31  1  0  0  0
  6 31  1  0  0  0
  6  7  1  0  0  0
  6 14  1  0  0  0
  7 33  1  0  0  0
  8 33  1  0  0  0
  8  9  1  0  0  0
  8 34  1  0  0  0
  9 10  1  0  0  0
 10 11  1  0  0  0
 10 37  1  0  0  0
 11 12  1  0  0  0
 12 34  1  0  0  0
 12 13  1  0  0  0
 13 36  1  0  0  0
 14 15  1  0  0  0
 14 21  1  0  0  0
 14 38  1  0  0  0
 16 17  1  0  0  0
 18 19  1  0  0  0
 20 15  1  0  0  0
 22 23  1  0  0  0
 24 25  1  0  0  0
 26 21  1  0  0  0
 27 38  1  0  0  0
 28  4  1  0  0  0
  2  3  2  0  0  0
  4 29  2  0  0  0
  5 30  2  0  0  0
  7 32  2  0  0  0
 13 35  2  0  0  0
 15 16  2  0  0  0
 17 18  2  0  0  0
 19 20  2  0  0  0
 21 22  2  0  0  0
 23 24  2  0  0  0
 25 26  2  0  0  0
M  END
> <rmsd>
0.703567922

$$$$
PubChem-118265126


 26 29  0  0  0  0  0  0  0  0999 V2000
    5.9210   26.5248   61.8683 C   0  0  0  0  0
    6.5199   27.9299   62.0391 C   0  0  0  0  0
    6.0269   28.5367   63.3624 C   0  0  0  0  0
    4.4896   28.6251   63.3593 C   0  0  0  0  0
    4.0542   29.5237   62.1878 C   0  0  0  0  0
    4.5270   28.9175   60.8507 C   0  0  0  0  0
    6.0614   28.8201   60.8728 C   0  0  0  0  0
    3.9475   27.4979   60.6836 C   0  0  0  0  0
    4.3832   26.6065   61.8604 C   0  0  0  0  0
    3.8793   27.2108   63.1942 C   0  0  0  0  0
    3.1623   26.1670   65.0351 C   0  0  0  0  0
    2.0014   26.4515   64.1471 C   0  0  0  0  0
    0.8995   27.1228   64.9444 C   0  0  0  0  0
    2.8079   30.0598   59.4343 C   0  0  0  0  0
    2.5231   30.8935   58.2252 C   0  0  0  0  0
    4.2979   26.3909   64.2654 O   0  0  0  0  0
    2.4703   27.3115   63.1588 O   0  0  0  0  0
   -0.2228   27.3078   64.1371 O   0  0  0  0  0
    4.1365   29.7489   59.7572 O   0  0  0  0  0
    1.8526   29.6027   60.1203 O   0  0  0  0  0
    3.7407   29.1363   56.5869 O   0  0  0  0  0
    1.3311   28.8468   56.9430 O   0  0  0  0  0
    2.1207   30.8045   55.4300 O   0  0  0  0  0
    3.5320   31.8242   58.0551 F   0  0  0  0  0
    1.3217   31.5621   58.3814 F   0  0  0  0  0
    2.4343   29.8541   56.7789 S   0  0  0  0  0
  1  2  1  0  0  0
  2  3  1  0  0  0
  3  4  1  0  0  0
  4  5  1  0  0  0
  5  6  1  0  0  0
  6  7  1  0  0  0
  6  8  1  0  0  0
  6 19  1  0  0  0
  7  2  1  0  0  0
  8  9  1  0  0  0
  9 10  1  0  0  0
  9  1  1  0  0  0
 10 16  1  0  0  0
 10  4  1  0  0  0
 10 17  1  0  0  0
 11 16  1  0  0  0
 11 12  1  0  0  0
 12 17  1  0  0  0
 12 13  1  0  0  0
 13 18  1  0  0  0
 14 19  1  0  0  0
 15 14  1  0  0  0
 15 24  1  0  0  0
 15 25  1  0  0  0
 15 26  1  0  0  0
 26 23  1  0  0  0
 14 20  2  0  0  0
 26 21  2  0  0  0
 26 22  2  0  0  0
M  END
> <rmsd>
0.751630425

$$$$
PubChem-11846775 PubChem-159225


 22 22  0  0  0  0  0  0  0  0999 V2000
    2.3898   25.9423   55.6875 C   0  0  0  0  0
    1.5619   26.3003   52.4853 C   0  0  0  0  0
    0.7551   28.7090   54.6538 C   0  0  0  0  0
    1.0959   29.3580   55.9913 C   0  0  0  0  0
    2.4690   29.9887   55.9780 C   0  0  0  0  0
    3.0386   29.6541   57.3225 C   0  0  0  0  0
    1.9614   28.8319   57.9978 C   0  0  0  0  0
    1.4194   28.8223   60.1422 C   0  0  0  0  0
    1.1435   29.6859   61.3610 C   0  0  0  0  0
    1.0585   28.8271   62.6138 C   0  0  0  0  0
    1.9168   27.1635   54.2174 As  0  0  0  0  0
    3.3607   27.8919   53.9165 O   0  0  0  0  0
    1.0184   28.4242   57.0374 O   0  0  0  0  0
    1.3314   29.5955   58.9833 O   0  0  0  0  0
    2.2857   28.2072   62.8729 O   0  0  0  0  0
    1.2553   26.9778   64.9363 O   0  0  0  0  0
    3.1701   25.9522   63.8069 O   0  0  0  0  0
    0.8679   25.8540   62.6174 O   0  0  0  0  0
    2.1456   30.6472   61.5061 O   0  0  0  0  0
    4.1815   28.8726   57.1564 O   0  0  0  0  0
    2.3468   31.3717   55.8495 O   0  0  0  0  0
    1.9057   26.7369   63.6024 S   0  0  0  0  0
  1 11  1  0  0  0
  4  3  1  0  0  0
  4  5  1  0  0  0
  4 13  1  0  0  0
  5  6  1  0  0  0
  5 21  1  0  0  0
  6  7  1  0  0  0
  6 20  1  0  0  0
  7 13  1  0  0  0
  7 14  1  0  0  0
  8 14  1  0  0  0
  9  8  1  0  0  0
  9 10  1  0  0  0
  9 19  1  0  0  0
 10 15  1  0  0  0
 11  2  1  0  0  0
 11  3  1  0  0  0
 22 15  1  0  0  0
 22 18  1  0  0  0
 11 12  2  0  0  0
 22 16  2  0  0  0
 22 17  2  0  0  0
M  END
> <rmsd>
0.696191728

$$$$
PubChem-59093023


 21 21  0  0  0  0  0  0  0  0999 V2000
    7.6811   29.6722   53.3878 C   0  0  0  0  0
    6.2906   29.9068   53.9385 C   0  0  0  0  0
    5.6765   31.1187   53.2627 C   0  0  0  0  0
    4.2839   31.3777   53.8080 C   0  0  0  0  0
    4.3656   31.9936   55.1947 C   0  0  0  0  0
    2.9748   32.1465   55.7898 C   0  0  0  0  0
    2.7291   30.5294   57.4830 C   0  0  0  0  0
    3.9697   29.6301   57.5783 C   0  0  0  0  0
    4.1612   29.1606   59.0168 C   0  0  0  0  0
    2.8488   28.5845   59.5478 C   0  0  0  0  0
    1.5222   29.9031   58.2009 C   0  0  0  0  0
    3.0591   28.0783   60.9610 C   0  0  0  0  0
    2.4047   30.8416   56.0964 N   0  0  0  0  0
    1.8359   29.5699   59.5400 O   0  0  0  0  0
    1.0136   28.7970   57.5076 O   0  0  0  0  0
    1.9152   27.4062   61.3980 O   0  0  0  0  0
    2.0260   28.6598   63.6889 O   0  0  0  0  0
    0.9343   26.4697   63.6118 O   0  0  0  0  0
    3.5223   26.5380   63.4672 O   0  0  0  0  0
    3.8531   28.5252   56.7298 O   0  0  0  0  0
    2.0713   27.2894   63.0717 S   0  0  0  0  0
  1  2  1  0  0  0
  2  3  1  0  0  0
  3  4  1  0  0  0
  4  5  1  0  0  0
  5  6  1  0  0  0
  6 13  1  0  0  0
  7 13  1  0  0  0
  7  8  1  0  0  0
  8  9  1  0  0  0
  8 20  1  0  0  0
  9 10  1  0  0  0
 10 14  1  0  0  0
 10 12  1  0  0  0
 11 14  1  0  0  0
 11 15  1  0  0  0
 11  7  1  0  0  0
 12 16  1  0  0  0
 21 16  1  0  0  0
 21 19  1  0  0  0
 21 17  2  0  0  0
 21 18  2  0  0  0
M  END
> <rmsd>
0.674342752

$$$$
PubChem-132077368


 25 27  0  0  0  0  0  0  0  0999 V2000
    6.7055   30.3550   62.8513 C   0  0  0  0  0
    5.2552   29.9209   62.8480 C   0  0  0  0  0
    3.9198   27.9775   63.5545 C   0  0  0  0  0
    1.6027   27.8921   63.2710 C   0  0  0  0  0
    1.5436   26.6602   63.8172 C   0  0  0  0  0
    2.7050   26.0447   64.2595 C   0  0  0  0  0
   -0.4215   27.2282   63.2448 C   0  0  0  0  0
   -0.0213   29.4992   62.2315 C   0  0  0  0  0
    0.2187   29.3759   60.7658 C   0  0  0  0  0
    1.7006   29.5686   58.9207 C   0  0  0  0  0
    0.7152   29.0881   58.0465 C   0  0  0  0  0
   -0.5350   28.7459   58.5661 C   0  0  0  0  0
   -0.7886   28.8855   59.9314 C   0  0  0  0  0
    2.3199   28.9938   54.1874 C   0  0  0  0  0
    5.1465   28.6296   63.4278 O   0  0  0  0  0
    0.9474   28.9406   56.6760 O   0  0  0  0  0
    2.7533   30.7770   56.1392 O   0  0  0  0  0
    3.5330   28.4803   56.5201 O   0  0  0  0  0
    2.7637   28.5740   63.1216 N   0  0  0  0  0
    3.8807   26.7256   64.1173 N   0  0  0  0  0
    2.6832   24.7445   64.8379 N   0  0  0  0  0
    0.2759   26.2061   63.8190 N   0  0  0  0  0
    0.3750   28.2740   62.9091 N   0  0  0  0  0
    1.4348   29.6980   60.2480 N   0  0  0  0  0
    2.4379   29.3229   55.9293 S   0  0  0  0  0
  1  2  1  0  0  0
  2 15  1  0  0  0
  3 15  1  0  0  0
  3 20  1  0  0  0
  4 19  1  0  0  0
  5  6  1  0  0  0
  5 22  1  0  0  0
  6 21  1  0  0  0
  7 23  1  0  0  0
  8 23  1  0  0  0
  8  9  1  0  0  0
 10 24  1  0  0  0
 11 12  1  0  0  0
 11 16  1  0  0  0
 13  9  1  0  0  0
 23  4  1  0  0  0
 25 16  1  0  0  0
 25 14  1  0  0  0
  3 19  2  0  0  0
  4  5  2  0  0  0
  6 20  2  0  0  0
  7 22  2  0  0  0
  9 24  2  0  0  0
 10 11  2  0  0  0
 12 13  2  0  0  0
 25 17  2  0  0  0
 25 18  2  0  0  0
M  END
> <rmsd>
0.681478977

$$$$
PubChem-155417589


 34 37  0  0  0  0  0  0  0  0999 V2000
   -1.7521   26.2848   66.5836 C   0  0  0  0  0
   -0.2889   26.4417   66.2234 C   0  0  0  0  0
    0.2277   27.7618   66.7447 C   0  0  0  0  0
    1.1195   28.2585   65.6479 C   0  0  0  0  0
    1.0120   27.1871   64.5776 C   0  0  0  0  0
    0.9569   27.7662   63.1509 C   0  0  0  0  0
    1.8316   28.9687   61.4576 C   0  0  0  0  0
    3.2565   28.5791   63.3778 C   0  0  0  0  0
    3.9430   27.4801   64.2173 C   0  0  0  0  0
    4.9186   28.0920   65.2249 C   0  0  0  0  0
    5.9511   28.9737   64.5280 C   0  0  0  0  0
    5.2547   30.0717   63.7290 C   0  0  0  0  0
    4.3134   29.4702   62.6782 C   0  0  0  0  0
    5.3966   29.6713   60.7447 C   0  0  0  0  0
    3.9857   25.3241   63.7132 C   0  0  0  0  0
    3.2516   29.5964   58.4015 C   0  0  0  0  0
    3.8988   28.2878   57.9042 C   0  0  0  0  0
    5.5501   29.4512   56.8834 C   0  0  0  0  0
    4.8903   30.8373   56.9396 C   0  0  0  0  0
    3.4339   30.7569   57.4102 C   0  0  0  0  0
    1.1165   30.9732   62.4626 C   0  0  0  0  0
   -1.1991   28.5528   62.6786 C   0  0  0  0  0
   -0.1362   26.4235   64.8296 O   0  0  0  0  0
    5.0383   28.7427   61.7245 O   0  0  0  0  0
    4.5917   26.5433   63.4055 O   0  0  0  0  0
    0.9176   30.6607   59.2258 O   0  0  0  0  0
    0.7980   28.7281   57.7291 O   0  0  0  0  0
    4.5808   28.4541   56.6804 O   0  0  0  0  0
    2.6019   30.5942   56.2994 O   0  0  0  0  0
    0.1453   28.9699   63.0440 N   0  0  0  0  0
    0.6569   29.6913   61.9508 N   0  0  0  0  0
    2.2375   27.9962   62.4708 N   0  0  0  0  0
    1.4808   28.2570   60.2313 N   0  0  0  0  0
    1.5501   29.3411   58.8776 S   0  0  0  0  0
  1  2  1  0  0  0
  2  3  1  0  0  0
  2 23  1  0  0  0
  3  4  1  0  0  0
  4  5  1  0  0  0
  5 23  1  0  0  0
  5  6  1  0  0  0
  6 30  1  0  0  0
  6 32  1  0  0  0
  7 31  1  0  0  0
  7 32  1  0  0  0
  7 33  1  0  0  0
  8 32  1  0  0  0
  8  9  1  0  0  0
  9 10  1  0  0  0
  9 25  1  0  0  0
 10 11  1  0  0  0
 11 12  1  0  0  0
 12 13  1  0  0  0
 13 24  1  0  0  0
 13  8  1  0  0  0
 14 24  1  0  0  0
 15 25  1  0  0  0
 16 17  1  0  0  0
 17 28  1  0  0  0
 18 28  1  0  0  0
 18 19  1  0  0  0
 19 20  1  0  0  0
 20 29  1  0  0  0
 20 16  1  0  0  0
 21 31  1  0  0  0
 22 30  1  0  0  0
 30 31  1  0  0  0
 34 33  1  0  0  0
 34 16  1  0  0  0
 34 26  2  0  0  0
 34 27  2  0  0  0
M  END
> <rmsd>
0.852126956

$$$$
PubChem-11303749


 23 24  0  0  0  0  0  0  0  0999 V2000
    3.6747   21.1204   64.7231 C   0  0  0  0  0
    2.8588   22.1482   64.5139 C   0  0  0  0  0
    3.4147   23.5195   64.3503 C   0  0  0  0  0
    2.5614   25.8540   63.9342 C   0  0  0  0  0
    4.0497   27.7143   63.7507 C   0  0  0  0  0
    1.7526   28.0465   63.5350 C   0  0  0  0  0
    1.5080   26.7320   63.7214 C   0  0  0  0  0
   -0.3488   27.7153   63.4063 C   0  0  0  0  0
    0.3909   30.0986   63.0483 C   0  0  0  0  0
    0.2615   30.3206   61.5496 C   0  0  0  0  0
    1.6119   30.1496   60.8762 C   0  0  0  0  0
    2.5863   29.4929   59.0108 C   0  0  0  0  0
    2.3285   24.4587   64.1295 N   0  0  0  0  0
    3.8272   26.3739   63.9449 N   0  0  0  0  0
    3.0029   28.5693   63.5412 N   0  0  0  0  0
    0.1863   26.4840   63.6478 N   0  0  0  0  0
    0.5965   28.6871   63.3401 N   0  0  0  0  0
    1.4548   30.1511   59.4907 O   0  0  0  0  0
    3.6706   28.5595   56.6985 O   0  0  0  0  0
    2.3864   30.8299   56.4871 O   0  0  0  0  0
    1.0607   28.4317   56.8317 O   0  0  0  0  0
   -0.2168   31.6093   61.3147 O   0  0  0  0  0
    2.4594   29.3036   57.2119 P   0  0  0  0  0
  3  2  1  0  0  0
  3 13  1  0  0  0
  5 14  1  0  0  0
  6 15  1  0  0  0
  7 16  1  0  0  0
  7  4  1  0  0  0
  8 17  1  0  0  0
  9 17  1  0  0  0
 10  9  1  0  0  0
 10 11  1  0  0  0
 10 22  1  0  0  0
 11 18  1  0  0  0
 12 18  1  0  0  0
 12 23  1  0  0  0
 13  4  1  0  0  0
 17  6  1  0  0  0
 23 20  1  0  0  0
 23 21  1  0  0  0
  1  2  2  0  0  0
  4 14  2  0  0  0
  5 15  2  0  0  0
  6  7  2  0  0  0
  8 16  2  0  0  0
 23 19  2  0  0  0
M  CHG  2  20  -1  21  -1
M  END
> <rmsd>
0.674383819

$$$$
PubChem-138700806


 32 35  0  0  0  0  0  0  0  0999 V2000
   -0.0639   25.3599   66.3377 C   0  0  0  0  0
    0.7211   25.1978   65.0529 C   0  0  0  0  0
    2.2280   26.9660   64.2366 C   0  0  0  0  0
    4.5997   26.6902   64.3491 C   0  0  0  0  0
    4.7335   27.9452   63.7746 C   0  0  0  0  0
    3.6332   28.6611   63.4567 C   0  0  0  0  0
    5.3606   29.7711   62.8978 C   0  0  0  0  0
    6.2552   30.8297   62.3765 C   0  0  0  0  0
    5.7705   32.0878   61.9991 C   0  0  0  0  0
    6.6437   33.0640   61.5196 C   0  0  0  0  0
    8.0053   32.7754   61.4256 C   0  0  0  0  0
    7.6316   30.5879   62.2692 C   0  0  0  0  0
    3.1038   30.8318   62.3381 C   0  0  0  0  0
    2.6941   30.4447   60.9571 C   0  0  0  0  0
    1.5083   29.7381   60.7465 C   0  0  0  0  0
    1.9253   29.6512   58.4058 C   0  0  0  0  0
    3.1264   30.3537   58.5831 C   0  0  0  0  0
    3.5093   30.7475   59.8654 C   0  0  0  0  0
    1.5021   28.8455   54.3244 C   0  0  0  0  0
    0.9438   26.4725   64.4688 O   0  0  0  0  0
    1.5002   29.2361   57.1401 O   0  0  0  0  0
    3.7378   28.8913   55.7996 O   0  0  0  0  0
    2.5411   31.0146   55.5041 O   0  0  0  0  0
    3.3362   26.2228   64.5714 N   0  0  0  0  0
    2.3760   28.2018   63.6690 N   0  0  0  0  0
    3.9956   29.8242   62.9031 N   0  0  0  0  0
    5.8492   28.6152   63.4345 N   0  0  0  0  0
    8.4679   31.5532   61.8004 N   0  0  0  0  0
    1.1524   29.3629   59.4885 N   0  0  0  0  0
    5.7360   25.9056   64.6935 N   0  0  0  0  0
    6.1744   34.2797   61.1505 F   0  0  0  0  0
    2.3827   29.5339   55.7053 S   0  0  0  0  0
  1  2  1  0  0  0
  2 20  1  0  0  0
  3 20  1  0  0  0
  3 25  1  0  0  0
  4 24  1  0  0  0
  4 30  1  0  0  0
  5  6  1  0  0  0
  5 27  1  0  0  0
  6 26  1  0  0  0
  7  8  1  0  0  0
  9 10  1  0  0  0
 10 31  1  0  0  0
 11 28  1  0  0  0
 12  8  1  0  0  0
 13 26  1  0  0  0
 13 14  1  0  0  0
 15 29  1  0  0  0
 16 17  1  0  0  0
 16 21  1  0  0  0
 18 14  1  0  0  0
 26  7  1  0  0  0
 32 21  1  0  0  0
 32 19  1  0  0  0
  3 24  2  0  0  0
  4  5  2  0  0  0
  6 25  2  0  0  0
  7 27  2  0  0  0
  8  9  2  0  0  0
 10 11  2  0  0  0
 12 28  2  0  0  0
 14 15  2  0  0  0
 16 29  2  0  0  0
 17 18  2  0  0  0
 32 22  2  0  0  0
 32 23  2  0  0  0
M  END
> <rmsd>
0.67594403

$$$$
PubChem-18398583


 20 20  0  0  0  0  0  0  0  0999 V2000
    0.0783   31.5446   57.5337 C   0  0  0  0  0
    1.1328   30.4551   57.7314 C   0  0  0  0  0
    1.5782   30.9068   60.0346 C   0  0  0  0  0
    1.6872   30.3245   61.4508 C   0  0  0  0  0
   -0.2951   29.0533   60.9477 C   0  0  0  0  0
   -0.2021   29.3932   59.4534 C   0  0  0  0  0
    0.9116   28.5913   62.9571 C   0  0  0  0  0
    0.2006   29.6211   63.8358 C   0  0  0  0  0
    1.1361   29.8835   59.0848 N   0  0  0  0  0
    1.0374   29.0077   61.5537 N   0  0  0  0  0
    2.1721   28.2974   63.4893 O   0  0  0  0  0
    1.1441   26.1391   64.5587 O   0  0  0  0  0
    2.0810   25.9702   62.2915 O   0  0  0  0  0
    3.7221   26.1857   64.2873 O   0  0  0  0  0
    0.9599   29.4443   56.7800 O   0  0  0  0  0
    2.3832   28.1108   55.0650 O   0  0  0  0  0
    2.8089   30.5128   55.2714 O   0  0  0  0  0
    3.6459   28.9399   57.1726 O   0  0  0  0  0
    2.2340   26.6178   63.6400 S   0  0  0  0  0
    2.4577   29.2616   56.0275 S   0  0  0  0  0
  2  1  1  0  0  0
  2  9  1  0  0  0
  2 15  1  0  0  0
  3  9  1  0  0  0
  3  4  1  0  0  0
  4 10  1  0  0  0
  5 10  1  0  0  0
  5  6  1  0  0  0
  6  9  1  0  0  0
  7 10  1  0  0  0
  7  8  1  0  0  0
  7 11  1  0  0  0
 19 11  1  0  0  0
 19 14  1  0  0  0
 20 15  1  0  0  0
 20 18  1  0  0  0
 19 12  2  0  0  0
 19 13  2  0  0  0
 20 16  2  0  0  0
 20 17  2  0  0  0
M  END
> <rmsd>
0.696460187

$$$$
PubChem-18398583


 20 20  0  0  0  0  0  0  0  0999 V2000
    0.0858   29.5322   63.8053 C   0  0  0  0  0
    0.8633   28.5361   62.9442 C   0  0  0  0  0
   -0.3168   28.9416   60.9070 C   0  0  0  0  0
   -0.2054   29.2850   59.4149 C   0  0  0  0  0
    1.4891   30.8796   60.0348 C   0  0  0  0  0
    1.5923   30.3032   61.4540 C   0  0  0  0  0
    1.1180   30.4072   57.7226 C   0  0  0  0  0
    0.0193   31.4471   57.4997 C   0  0  0  0  0
    1.0019   28.9577   61.5436 N   0  0  0  0  0
    1.1168   29.8366   59.0765 N   0  0  0  0  0
    1.0132   29.3888   56.7684 O   0  0  0  0  0
    2.9092   30.5675   55.3991 O   0  0  0  0  0
    3.5669   28.8996   57.0819 O   0  0  0  0  0
    2.4861   28.0631   54.8785 O   0  0  0  0  0
    2.1229   28.3004   63.5051 O   0  0  0  0  0
    3.6256   26.2849   64.1569 O   0  0  0  0  0
    1.2333   26.1256   64.6519 O   0  0  0  0  0
    2.0031   25.8843   62.1744 O   0  0  0  0  0
    2.5353   29.2648   56.0505 S   0  0  0  0  0
    2.2488   26.6264   63.6628 S   0  0  0  0  0
  2  1  1  0  0  0
  2  9  1  0  0  0
  2 15  1  0  0  0
  3  9  1  0  0  0
  3  4  1  0  0  0
  4 10  1  0  0  0
  5 10  1  0  0  0
  5  6  1  0  0  0
  6  9  1  0  0  0
  7 10  1  0  0  0
  7  8  1  0  0  0
  7 11  1  0  0  0
 19 11  1  0  0  0
 19 14  1  0  0  0
 20 15  1  0  0  0
 20 18  1  0  0  0
 19 12  2  0  0  0
 19 13  2  0  0  0
 20 16  2  0  0  0
 20 17  2  0  0  0
M  END
> <rmsd>
0.689132631

$$$$
PubChem-159253754 PubChem-21942279


 15 15  0  0  0  0  0  0  0  0999 V2000
    1.6800   25.7394   61.8842 C   0  0  0  0  0
    1.4166   28.8531   62.1477 C   0  0  0  0  0
    1.8080   29.5677   60.8712 C   0  0  0  0  0
    1.4258   28.7476   59.7038 C   0  0  0  0  0
    2.2516   29.1552   58.5024 C   0  0  0  0  0
    1.8996   28.6465   54.5359 C   0  0  0  0  0
    2.1117   26.7689   63.2709 S   0  0  0  0  0
    2.5683   29.2672   56.0605 S   0  0  0  0  0
    3.2765   26.1464   63.9867 O   0  0  0  0  0
    0.9477   26.8583   64.2189 O   0  0  0  0  0
    2.5556   28.3094   62.7466 O   0  0  0  0  0
    0.6490   29.8426   60.1232 O   0  0  0  0  0
    1.6777   28.6300   57.3425 O   0  0  0  0  0
    2.4753   30.7680   56.0576 O   0  0  0  0  0
    4.0082   28.8471   56.1674 O   0  0  0  0  0
  1  7  1  0  0  0
  2 11  1  0  0  0
  3  2  1  0  0  0
  3  4  1  0  0  0
  3 12  1  0  0  0
  4 12  1  0  0  0
  4  5  1  0  0  0
  5 13  1  0  0  0
  7 11  1  0  0  0
  8 13  1  0  0  0
  8  6  1  0  0  0
  7  9  2  0  0  0
  7 10  2  0  0  0
  8 14  2  0  0  0
  8 15  2  0  0  0
M  END
> <rmsd>
0.717207968

$$$$
PubChem-159253754 PubChem-21942279


 15 15  0  0  0  0  0  0  0  0999 V2000
    2.0959   25.7783   61.7929 C   0  0  0  0  0
    1.4434   28.8372   62.1368 C   0  0  0  0  0
    1.9144   29.4950   60.8567 C   0  0  0  0  0
    1.4174   28.7306   59.6946 C   0  0  0  0  0
    2.2792   29.0240   58.4854 C   0  0  0  0  0
    1.6815   28.8423   54.5197 C   0  0  0  0  0
    2.2083   26.7773   63.2620 S   0  0  0  0  0
    2.4806   29.2877   56.0427 S   0  0  0  0  0
    3.3220   26.2470   64.1195 O   0  0  0  0  0
    0.9188   26.6953   64.0316 O   0  0  0  0  0
    2.5476   28.3804   62.8605 O   0  0  0  0  0
    0.7948   29.9183   60.1174 O   0  0  0  0  0
    1.6043   28.6341   57.3265 O   0  0  0  0  0
    3.8809   28.7396   56.0363 O   0  0  0  0  0
    2.5215   30.7870   56.1505 O   0  0  0  0  0
  1  7  1  0  0  0
  2 11  1  0  0  0
  3  2  1  0  0  0
  3  4  1  0  0  0
  3 12  1  0  0  0
  4 12  1  0  0  0
  4  5  1  0  0  0
  5 13  1  0  0  0
  7 11  1  0  0  0
  8 13  1  0  0  0
  8  6  1  0  0  0
  7  9  2  0  0  0
  7 10  2  0  0  0
  8 14  2  0  0  0
  8 15  2  0  0  0
M  END
> <rmsd>
0.694378197

$$$$
PubChem-141453281


 22 23  0  0  0  0  0  0  0  0999 V2000
    0.7055   25.8661   62.1879 C   0  0  0  0  0
    4.0115   26.9035   62.1583 C   0  0  0  0  0
    3.3427   27.5438   60.9739 C   0  0  0  0  0
    3.7880   26.9093   59.6221 C   0  0  0  0  0
    4.9541   27.6561   58.9060 C   0  0  0  0  0
    4.9417   29.1885   59.1181 C   0  0  0  0  0
    4.9190   29.3659   60.6316 C   0  0  0  0  0
    2.8621   29.6562   59.9059 C   0  0  0  0  0
    1.5458   26.8251   63.4270 S   0  0  0  0  0
    2.8087   29.8225   56.4503 S   0  0  0  0  0
    1.2546   28.2861   63.2296 O   0  0  0  0  0
    1.0483   26.4068   64.7819 O   0  0  0  0  0
    5.2562   26.7001   62.1351 O   0  0  0  0  0
    1.6858   30.0953   60.0007 O   0  0  0  0  0
    3.4663   30.6549   57.7606 O   0  0  0  0  0
    3.8365   28.8911   55.8715 O   0  0  0  0  0
    2.3917   30.8119   55.3998 O   0  0  0  0  0
    1.4628   28.9433   56.9407 O   0  0  0  0  0
    3.2569   26.5499   63.3268 N   0  0  0  0  0
    3.5478   28.9947   60.9556 N   0  0  0  0  0
    3.6415   29.7220   58.7276 N   0  0  0  0  0
    3.9110   25.9636   64.4186 N   0  0  0  0  0
  1  9  1  0  0  0
  3  2  1  0  0  0
  3  4  1  0  0  0
  3 20  1  0  0  0
  4  5  1  0  0  0
  6  5  1  0  0  0
  6  7  1  0  0  0
  6 21  1  0  0  0
  7 20  1  0  0  0
  8 21  1  0  0  0
  9 19  1  0  0  0
 10 15  1  0  0  0
 10 18  1  0  0  0
 19  2  1  0  0  0
 19 22  1  0  0  0
 20  8  1  0  0  0
 21 15  1  0  0  0
  2 13  2  0  0  0
  8 14  2  0  0  0
  9 11  2  0  0  0
  9 12  2  0  0  0
 10 16  2  0  0  0
 10 17  2  0  0  0
M  CHG  1  22  -1
M  END
> <rmsd>
0.72324264

$$$$
PubChem-447249 2047684 CHEMBL594840 MCULE-2671673599 MCULE-5882142259 MolPort-046-588-273 ZINC000002047684


 21 21  0  0  0  0  0  0  0  0999 V2000
   -3.3516   26.4610   60.6185 C   0  0  0  0  0
   -1.9170   26.3988   61.1113 C   0  0  0  0  0
   -1.9191   26.6048   62.6140 C   0  0  0  0  0
   -1.3626   25.0219   60.7971 C   0  0  0  0  0
   -1.0792   27.4588   60.4433 C   0  0  0  0  0
    0.5348   28.7576   59.7845 C   0  0  0  0  0
    1.9790   30.4301   58.6957 C   0  0  0  0  0
    0.2771   27.6875   60.6074 C   0  0  0  0  0
    1.2405   26.9774   61.5027 C   0  0  0  0  0
    1.2894   27.6323   62.8749 C   0  0  0  0  0
    1.9267   26.7109   63.8575 C   0  0  0  0  0
   -1.5390   28.3418   59.5797 O   0  0  0  0  0
    1.7790   29.3671   59.6168 O   0  0  0  0  0
    2.5728   30.9120   56.0844 O   0  0  0  0  0
    3.6881   28.7754   57.0997 O   0  0  0  0  0
    0.9969   28.8660   56.4933 O   0  0  0  0  0
    1.2697   26.3084   64.8520 O   0  0  0  0  0
    3.2416   26.2952   63.6842 O   0  0  0  0  0
   -0.5972   29.1402   59.1626 N   0  0  0  0  0
    2.0392   28.8757   62.8111 N   0  0  0  0  0
    2.3200   29.7673   57.0380 P   0  0  0  0  0
  1  2  1  0  0  0
  2  3  1  0  0  0
  2  4  1  0  0  0
  2  5  1  0  0  0
  5 12  1  0  0  0
  6 13  1  0  0  0
  6  8  1  0  0  0
  7 13  1  0  0  0
  7 21  1  0  0  0
  9  8  1  0  0  0
 10  9  1  0  0  0
 10 20  1  0  0  0
 10 11  1  0  0  0
 11 18  1  0  0  0
 12 19  1  0  0  0
 21 15  1  0  0  0
 21 16  1  0  0  0
  6 19  2  0  0  0
  8  5  2  0  0  0
 11 17  2  0  0  0
 21 14  2  0  0  0
M  END
> <rmsd>
0.795660377

$$$$
PubChem-162407185


 28 29  0  0  0  0  0  0  0  0999 V2000
    2.1737   26.9830   65.7262 C   0  0  0  0  0
    2.5824   26.9248   64.2483 C   0  0  0  0  0
    1.4182   26.2758   63.4280 C   0  0  0  0  0
    1.9628   27.6193   61.6271 C   0  0  0  0  0
    3.1132   28.2407   62.4223 C   0  0  0  0  0
    2.2251   27.6519   60.1215 C   0  0  0  0  0
    2.2245   29.0818   59.5782 C   0  0  0  0  0
    2.4714   29.0926   58.0723 C   0  0  0  0  0
    2.7313   30.5200   57.5736 C   0  0  0  0  0
    2.6689   29.5040   55.4645 C   0  0  0  0  0
    1.6836   28.3787   55.9886 C   0  0  0  0  0
    2.3117   26.9945   55.7605 C   0  0  0  0  0
   -0.4813   27.5677   55.7646 C   0  0  0  0  0
    2.3997   29.7823   53.9780 C   0  0  0  0  0
    4.8966   30.1334   55.2871 C   0  0  0  0  0
    1.2587   24.8139   63.8660 C   0  0  0  0  0
   -0.8126   26.5014   62.8520 C   0  0  0  0  0
    4.8415   26.7682   64.7291 C   0  0  0  0  0
    1.7528   26.2885   62.0461 O   0  0  0  0  0
    2.7922   28.2567   63.7953 O   0  0  0  0  0
    2.4133   30.6935   56.2000 O   0  0  0  0  0
    1.3830   28.5334   57.3776 O   0  0  0  0  0
    0.4705   28.4691   55.2520 O   0  0  0  0  0
    4.0224   29.0822   55.6211 O   0  0  0  0  0
    1.0086   29.7078   59.8699 O   0  0  0  0  0
    3.4342   27.0149   59.8242 O   0  0  0  0  0
    0.2148   26.9928   63.6778 O   0  0  0  0  0
    3.7559   26.1341   64.0981 O   0  0  0  0  0
  1  2  1  0  0  0
  2  3  1  0  0  0
  2 28  1  0  0  0
  2 20  1  0  0  0
  3 19  1  0  0  0
  3 16  1  0  0  0
  3 27  1  0  0  0
  4 19  1  0  0  0
  4  5  1  0  0  0
  4  6  1  0  0  0
  5 20  1  0  0  0
  6  7  1  0  0  0
  6 26  1  0  0  0
  7  8  1  0  0  0
  7 25  1  0  0  0
  8  9  1  0  0  0
  8 22  1  0  0  0
  9 21  1  0  0  0
 10 21  1  0  0  0
 10 11  1  0  0  0
 10 14  1  0  0  0
 10 24  1  0  0  0
 11 22  1  0  0  0
 11 12  1  0  0  0
 11 23  1  0  0  0
 13 23  1  0  0  0
 15 24  1  0  0  0
 17 27  1  0  0  0
 18 28  1  0  0  0
M  END
> <rmsd>
0.696433485

$$$$
PubChem-71488928


 32 35  0  0  0  0  0  0  0  0999 V2000
    7.2840   25.9159   48.1479 C   0  0  0  0  0
    7.7803   26.4458   49.3574 C   0  0  0  0  0
    6.9090   26.7198   50.4262 C   0  0  0  0  0
    5.5483   26.4532   50.2459 C   0  0  0  0  0
    5.0738   25.9361   49.0709 C   0  0  0  0  0
    5.9117   25.6527   47.9947 C   0  0  0  0  0
    3.7109   25.7660   49.1866 C   0  0  0  0  0
    3.4143   26.2058   50.4782 C   0  0  0  0  0
    4.5783   27.1232   52.4721 C   0  0  0  0  0
    5.7726   27.6004   53.0324 C   0  0  0  0  0
    5.8106   28.0701   54.3483 C   0  0  0  0  0
    4.6451   28.0729   55.1283 C   0  0  0  0  0
    3.4479   27.5982   54.5724 C   0  0  0  0  0
    3.4153   27.1296   53.2576 C   0  0  0  0  0
    3.5546   28.6131   57.2918 C   0  0  0  0  0
    2.9576   30.0267   57.2409 C   0  0  0  0  0
    1.7204   30.0922   58.1419 C   0  0  0  0  0
    2.0426   29.5023   59.5208 C   0  0  0  0  0
    2.7495   28.1442   59.3564 C   0  0  0  0  0
    3.1099   27.5533   60.7093 C   0  0  0  0  0
    4.5346   26.6251   51.1190 N   0  0  0  0  0
    4.6999   28.5314   56.4502 O   0  0  0  0  0
    3.9324   28.3141   58.6132 O   0  0  0  0  0
    1.9975   26.9214   61.2698 O   0  0  0  0  0
    1.0338   26.4106   63.6463 O   0  0  0  0  0
    3.6394   26.5226   63.4728 O   0  0  0  0  0
    2.0648   28.7911   63.3145 O   0  0  0  0  0
    0.8700   29.3703   60.2695 O   0  0  0  0  0
    0.6574   29.3966   57.5546 O   0  0  0  0  0
    2.6219   30.3786   55.9317 O   0  0  0  0  0
    2.1551   27.1415   62.9430 P   0  0  0  0  0
    7.3349   28.6402   55.0057 Cl  0  0  0  0  0
  2  3  1  0  0  0
  4  5  1  0  0  0
  5  7  1  0  0  0
  6  1  1  0  0  0
  8 21  1  0  0  0
 10 11  1  0  0  0
 11 32  1  0  0  0
 12 13  1  0  0  0
 12 22  1  0  0  0
 14  9  1  0  0  0
 15 22  1  0  0  0
 15 16  1  0  0  0
 15 23  1  0  0  0
 16 17  1  0  0  0
 16 30  1  0  0  0
 17 18  1  0  0  0
 17 29  1  0  0  0
 18 19  1  0  0  0
 18 28  1  0  0  0
 19 23  1  0  0  0
 19 20  1  0  0  0
 20 24  1  0  0  0
 21  9  1  0  0  0
 21  4  1  0  0  0
 31 24  1  0  0  0
 31 26  1  0  0  0
 31 27  1  0  0  0
  1  2  2  0  0  0
  3  4  2  0  0  0
  5  6  2  0  0  0
  7  8  2  0  0  0
  9 10  2  0  0  0
 11 12  2  0  0  0
 13 14  2  0  0  0
 31 25  2  0  0  0
M  CHG  2  26  -1  27  -1
M  END
> <rmsd>
0.855333805

$$$$
PubChem-153916600


 22 22  0  0  0  0  0  0  0  0999 V2000
    7.4571   29.5582   55.5291 C   0  0  0  0  0
    6.2185   29.4504   56.1685 C   0  0  0  0  0
    5.2644   30.4642   56.0254 C   0  0  0  0  0
    5.5553   31.5886   55.2445 C   0  0  0  0  0
    6.7940   31.6964   54.6050 C   0  0  0  0  0
    7.7446   30.6809   54.7469 C   0  0  0  0  0
    1.7235   26.9022   58.5458 C   0  0  0  0  0
    2.9527   26.3192   59.2306 C   0  0  0  0  0
    3.0975   26.8358   60.6534 C   0  0  0  0  0
    2.0463   26.2141   61.5546 C   0  0  0  0  0
    8.9445   30.7853   54.1273 F   0  0  0  0  0
    3.7142   30.3337   56.8332 S   0  0  0  0  0
    1.9905   28.6042   58.0856 S   0  0  0  0  0
    2.1780   26.8930   63.1932 S   0  0  0  0  0
    3.7283   31.2223   58.0459 O   0  0  0  0  0
    2.6349   30.7742   55.8833 O   0  0  0  0  0
    3.4738   28.7177   57.2779 O   0  0  0  0  0
    0.8642   29.0315   57.1865 O   0  0  0  0  0
    1.9945   29.4497   59.3291 O   0  0  0  0  0
    1.1007   26.3073   64.0608 O   0  0  0  0  0
    3.5228   26.5579   63.7741 O   0  0  0  0  0
    1.9955   28.5617   63.1293 O   0  0  0  0  0
  2  3  1  0  0  0
  4  5  1  0  0  0
  6 11  1  0  0  0
  6  1  1  0  0  0
  7  8  1  0  0  0
  8  9  1  0  0  0
  9 10  1  0  0  0
 10 14  1  0  0  0
 12  3  1  0  0  0
 12 17  1  0  0  0
 13 17  1  0  0  0
 13  7  1  0  0  0
 14 22  1  0  0  0
  1  2  2  0  0  0
  3  4  2  0  0  0
  5  6  2  0  0  0
 12 15  2  0  0  0
 12 16  2  0  0  0
 13 18  2  0  0  0
 13 19  2  0  0  0
 14 20  2  0  0  0
 14 21  2  0  0  0
M  CHG  1  22  -1
M  END
> <rmsd>
0.706369519

$$$$
PubChem-88989605


 24 27  0  0  0  0  0  0  0  0999 V2000
    3.1777   27.8867   65.3484 C   0  0  0  0  0
    4.5045   27.2460   65.1212 C   0  0  0  0  0
    3.3260   27.2426   63.2205 C   0  0  0  0  0
    3.7666   27.9697   61.9324 C   0  0  0  0  0
    4.0037   26.7976   61.0312 C   0  0  0  0  0
    2.6300   26.2062   61.1667 C   0  0  0  0  0
    2.4130   26.0978   62.6900 C   0  0  0  0  0
    0.9812   26.4869   62.7617 C   0  0  0  0  0
    1.7076   27.3824   60.7938 C   0  0  0  0  0
    2.5324   28.6017   61.2608 C   0  0  0  0  0
    2.0449   30.1729   59.4140 C   0  0  0  0  0
    2.5196   30.8709   58.1794 C   0  0  0  0  0
    4.4553   26.6786   63.8516 O   0  0  0  0  0
    2.6495   28.1317   64.0871 O   0  0  0  0  0
    0.1991   26.1779   63.6978 O   0  0  0  0  0
    0.5985   27.2259   61.6637 O   0  0  0  0  0
    2.9384   29.3823   60.1416 O   0  0  0  0  0
    0.8355   30.2611   59.7628 O   0  0  0  0  0
    2.9726   30.4446   55.5648 O   0  0  0  0  0
    1.0492   29.2982   56.5625 O   0  0  0  0  0
    3.4287   28.4101   57.1141 O   0  0  0  0  0
    1.7180   31.9672   57.9130 F   0  0  0  0  0
    3.8205   31.3028   58.3631 F   0  0  0  0  0
    2.4641   29.7483   56.7953 S   0  0  0  0  0
  1  2  1  0  0  0
  1 14  1  0  0  0
  2 13  1  0  0  0
  3 13  1  0  0  0
  3 14  1  0  0  0
  3  4  1  0  0  0
  4  5  1  0  0  0
  5  6  1  0  0  0
  6  7  1  0  0  0
  7  8  1  0  0  0
  7  3  1  0  0  0
  8 16  1  0  0  0
  9 16  1  0  0  0
  9 10  1  0  0  0
  9  6  1  0  0  0
 10 17  1  0  0  0
 10  4  1  0  0  0
 11 17  1  0  0  0
 12 11  1  0  0  0
 12 22  1  0  0  0
 12 23  1  0  0  0
 12 24  1  0  0  0
 24 21  1  0  0  0
  8 15  2  0  0  0
 11 18  2  0  0  0
 24 19  2  0  0  0
 24 20  2  0  0  0
M  END
> <rmsd>
0.817579567

$$$$
PubChem-70469086


 24 24  0  0  0  0  0  0  0  0999 V2000
    1.8876   31.2068   59.3726 C   0  0  0  0  0
    2.3822   29.1161   58.1975 C   0  0  0  0  0
    3.3000   28.5514   59.3188 C   0  0  0  0  0
    4.3355   29.5494   59.8539 C   0  0  0  0  0
    5.2653   28.8628   60.8480 C   0  0  0  0  0
    4.4610   28.2805   62.0052 C   0  0  0  0  0
    3.4372   27.2641   61.4844 C   0  0  0  0  0
    2.4987   27.9421   60.4751 C   0  0  0  0  0
    2.6721   26.4944   62.6045 C   0  0  0  0  0
    1.7327   25.5178   61.9256 C   0  0  0  0  0
    1.8642   27.4180   63.5112 C   0  0  0  0  0
    4.4111   26.4627   64.3386 C   0  0  0  0  0
    1.7064   27.9390   57.5329 C   0  0  0  0  0
    3.1894   29.8140   57.1185 C   0  0  0  0  0
    1.3371   30.0067   58.7484 N   0  0  0  0  0
    3.6155   25.6792   63.3958 N   0  0  0  0  0
    2.2026   24.5726   61.2369 O   0  0  0  0  0
    0.3512   25.6573   62.0220 O   0  0  0  0  0
    1.2556   26.9423   64.5071 O   0  0  0  0  0
    1.7819   28.7838   63.2623 O   0  0  0  0  0
    0.4495   27.8605   57.4760 O   0  0  0  0  0
    2.4726   26.9207   56.9754 O   0  0  0  0  0
    2.7537   30.8567   56.5605 O   0  0  0  0  0
    4.3965   29.2721   56.6900 O   0  0  0  0  0
  1 15  1  0  0  0
  2 15  1  0  0  0
  2  3  1  0  0  0
  2 13  1  0  0  0
  2 14  1  0  0  0
  3  4  1  0  0  0
  4  5  1  0  0  0
  5  6  1  0  0  0
  6  7  1  0  0  0
  7  8  1  0  0  0
  7  9  1  0  0  0
  8  3  1  0  0  0
  9 10  1  0  0  0
  9 11  1  0  0  0
  9 16  1  0  0  0
 10 18  1  0  0  0
 11 20  1  0  0  0
 12 16  1  0  0  0
 13 22  1  0  0  0
 14 24  1  0  0  0
 10 17  2  0  0  0
 11 19  2  0  0  0
 13 21  2  0  0  0
 14 23  2  0  0  0
M  END
> <rmsd>
0.814971387

$$$$
PubChem-25051580


 22 22  0  0  0  0  0  0  0  0999 V2000
    0.1926   30.3743   61.3671 C   0  0  0  0  0
    1.7644   28.8638   60.1291 C   0  0  0  0  0
    2.1574   28.4558   58.9050 C   0  0  0  0  0
    3.3038   27.4906   58.7090 C   0  0  0  0  0
    4.1641   27.3316   59.9262 C   0  0  0  0  0
    5.3589   26.7548   59.8509 C   0  0  0  0  0
    3.6464   27.7266   61.2349 C   0  0  0  0  0
    2.5092   28.4202   61.3526 C   0  0  0  0  0
    2.6406   28.3154   63.9081 C   0  0  0  0  0
    2.1618   29.1804   65.0692 C   0  0  0  0  0
    2.3759   26.8629   64.1587 C   0  0  0  0  0
    1.7849   28.5685   56.3870 C   0  0  0  0  0
    2.9436   29.3934   55.9430 C   0  0  0  0  0
    0.6504   29.7193   60.1937 O   0  0  0  0  0
    5.8796   26.3205   58.6367 O   0  0  0  0  0
    0.7684   29.1613   65.1675 O   0  0  0  0  0
    1.1963   26.4266   64.2290 O   0  0  0  0  0
    3.4431   25.9869   64.3023 O   0  0  0  0  0
    4.0804   28.8680   55.8219 O   0  0  0  0  0
    2.7742   30.7461   55.6804 O   0  0  0  0  0
    2.0200   28.7494   62.6598 N   0  0  0  0  0
    1.4237   28.9042   57.7578 N   0  0  0  0  0
  1 14  1  0  0  0
  2 14  1  0  0  0
  3 22  1  0  0  0
  4  3  1  0  0  0
  4  5  1  0  0  0
  5  7  1  0  0  0
  6 15  1  0  0  0
  8 21  1  0  0  0
  8  2  1  0  0  0
  9 21  1  0  0  0
  9 10  1  0  0  0
  9 11  1  0  0  0
 10 16  1  0  0  0
 11 18  1  0  0  0
 12 22  1  0  0  0
 12 13  1  0  0  0
 13 20  1  0  0  0
  2  3  2  0  0  0
  5  6  2  0  0  0
  7  8  2  0  0  0
 11 17  2  0  0  0
 13 19  2  0  0  0
M  END
> <rmsd>
0.804429591

$$$$
PubChem-142100437


 28 29  0  0  0  0  0  0  0  0999 V2000
    0.5460   28.1693   61.8727 C   0  0  0  0  0
    2.8955   26.4257   62.4698 C   0  0  0  0  0
    3.8699   27.2723   61.6687 C   0  0  0  0  0
    4.2088   28.5523   59.7499 C   0  0  0  0  0
    3.6831   28.9463   58.4104 C   0  0  0  0  0
    1.8597   30.0176   56.9843 C   0  0  0  0  0
    0.5677   30.8324   57.1449 C   0  0  0  0  0
    1.2552   32.5478   55.8165 C   0  0  0  0  0
    2.8287   30.8677   56.1537 C   0  0  0  0  0
    1.8421   33.9215   55.7827 C   0  0  0  0  0
    1.1635   34.8605   55.1083 C   0  0  0  0  0
    1.5136   36.2891   54.9788 C   0  0  0  0  0
    2.7490   36.7873   55.0156 C   0  0  0  0  0
    3.9729   35.9383   55.1081 C   0  0  0  0  0
    3.9742   35.1061   56.3461 C   0  0  0  0  0
    3.0420   34.1907   56.6084 C   0  0  0  0  0
    1.5376   28.7300   56.2240 C   0  0  0  0  0
    1.5819   27.4644   63.1854 P   0  0  0  0  0
    0.7152   26.6220   64.0938 O   0  0  0  0  0
    4.3275   28.6027   57.3839 O   0  0  0  0  0
    0.8703   32.2036   57.1386 O   0  0  0  0  0
    2.1280   31.6138   55.1829 O   0  0  0  0  0
    0.6853   27.9118   56.9710 O   0  0  0  0  0
    1.8668   30.1468   59.4300 O   0  0  0  0  0
    3.5869   25.7860   63.4978 O   0  0  0  0  0
    2.2779   28.7177   64.0838 O   0  0  0  0  0
    3.2890   27.6251   60.3849 N   0  0  0  0  0
    2.4658   29.7096   58.2937 N   0  0  0  0  0
  1 18  1  0  0  0
  2  3  1  0  0  0
  2 25  1  0  0  0
  3 27  1  0  0  0
  4 27  1  0  0  0
  4  5  1  0  0  0
  5 28  1  0  0  0
  6 28  1  0  0  0
  6  7  1  0  0  0
  6 17  1  0  0  0
  7 21  1  0  0  0
  8 21  1  0  0  0
  8 22  1  0  0  0
  8 10  1  0  0  0
  9 22  1  0  0  0
  9  6  1  0  0  0
 11 12  1  0  0  0
 14 13  1  0  0  0
 14 15  1  0  0  0
 16 10  1  0  0  0
 17 23  1  0  0  0
 18  2  1  0  0  0
 18 26  1  0  0  0
 28 24  1  0  0  0
  5 20  2  0  0  0
 10 11  2  0  0  0
 12 13  2  0  0  0
 15 16  2  0  0  0
 18 19  2  0  0  0
M  END
> <rmsd>
0.792862833

$$$$
PubChem-136119644 PubChem-157502873 PubChem-160320302


 31 34  0  0  0  0  0  0  0  0999 V2000
    0.9960   31.8550   57.7189 C   0  0  0  0  0
    1.4327   32.2563   56.3086 C   0  0  0  0  0
    2.5830   31.3731   56.0452 C   0  0  0  0  0
    1.8636   30.6646   58.1561 C   0  0  0  0  0
    1.0119   29.4427   58.2955 C   0  0  0  0  0
    3.9159   29.4984   57.1145 C   0  0  0  0  0
    4.4431   28.9229   58.3725 C   0  0  0  0  0
    5.1994   27.7419   58.3369 C   0  0  0  0  0
    5.7144   27.1923   59.5145 C   0  0  0  0  0
    5.4846   27.8179   60.7427 C   0  0  0  0  0
    4.7447   29.0078   60.7826 C   0  0  0  0  0
    4.2309   29.5561   59.6053 C   0  0  0  0  0
    5.7729   27.7565   63.2741 C   0  0  0  0  0
    4.3760   27.4599   63.7032 C   0  0  0  0  0
    3.4696   28.5047   63.9118 C   0  0  0  0  0
    1.7870   26.9399   64.4726 C   0  0  0  0  0
    2.6975   25.8902   64.2646 C   0  0  0  0  0
    2.2560   24.5781   64.4557 C   0  0  0  0  0
    0.1024   25.3827   65.0314 C   0  0  0  0  0
    3.2602   31.4183   54.9843 O   0  0  0  0  0
    0.9095   28.8780   59.4150 O   0  0  0  0  0
    0.3334   28.9264   57.1977 O   0  0  0  0  0
    4.4064   29.1139   56.0177 O   0  0  0  0  0
    3.0363   23.6050   64.2803 O   0  0  0  0  0
    2.8584   30.4787   57.1086 N   0  0  0  0  0
    6.0152   27.2317   61.9355 N   0  0  0  0  0
    2.1945   28.2232   64.2921 N   0  0  0  0  0
    3.9723   26.1733   63.8847 N   0  0  0  0  0
    0.9699   24.3529   64.8344 N   0  0  0  0  0
    0.5121   26.6668   64.8506 N   0  0  0  0  0
   -1.2370   25.1152   65.4276 N   0  0  0  0  0
  1  2  1  0  0  0
  2  3  1  0  0  0
  3 25  1  0  0  0
  4 25  1  0  0  0
  4  5  1  0  0  0
  4  1  1  0  0  0
  5 22  1  0  0  0
  6  7  1  0  0  0
  8  9  1  0  0  0
 10 11  1  0  0  0
 10 26  1  0  0  0
 12  7  1  0  0  0
 13 26  1  0  0  0
 13 14  1  0  0  0
 14 28  1  0  0  0
 15 27  1  0  0  0
 16 17  1  0  0  0
 16 30  1  0  0  0
 17 18  1  0  0  0
 18 29  1  0  0  0
 19 31  1  0  0  0
 25  6  1  0  0  0
 29 19  1  0  0  0
  3 20  2  0  0  0
  5 21  2  0  0  0
  6 23  2  0  0  0
  7  8  2  0  0  0
  9 10  2  0  0  0
 11 12  2  0  0  0
 14 15  2  0  0  0
 16 27  2  0  0  0
 17 28  2  0  0  0
 18 24  2  0  0  0
 19 30  2  0  0  0
M  CHG  1  26  -1
M  END
> <rmsd>
0.719821334

$$$$
PubChem-160470114


 26 28  0  0  0  0  0  0  0  0999 V2000
   -0.2347   26.9868   59.9048 C   0  0  0  0  0
   -0.5452   28.3714   60.4431 C   0  0  0  0  0
   -0.4091   29.3891   59.3004 C   0  0  0  0  0
    1.0059   30.8386   60.5832 C   0  0  0  0  0
    0.3814   30.1243   61.7914 C   0  0  0  0  0
    1.7904   26.0508   62.5559 C   0  0  0  0  0
    2.8566   25.2795   63.3149 C   0  0  0  0  0
    4.5601   25.9098   64.7941 C   0  0  0  0  0
    5.1590   25.1339   63.7174 C   0  0  0  0  0
    2.4660   31.1235   60.8842 C   0  0  0  0  0
    3.6472   30.0646   57.8036 C   0  0  0  0  0
    4.6376   29.5579   56.7689 C   0  0  0  0  0
    5.6672   27.6314   55.9247 C   0  0  0  0  0
    4.5263   27.9434   55.0755 C   0  0  0  0  0
    0.9002   30.0404   59.3516 N   0  0  0  0  0
    0.3514   28.6784   61.5687 N   0  0  0  0  0
   -0.2148   28.1055   62.7173 N   0  0  0  0  0
    4.0686   26.0733   63.4180 N   0  0  0  0  0
    0.9472   30.9358   58.2726 N   0  0  0  0  0
    4.4278   28.1408   56.5292 N   0  0  0  0  0
    1.0592   27.3139   63.5837 S   0  0  0  0  0
    2.0233   30.2675   57.0910 S   0  0  0  0  0
    2.1020   28.3236   63.9749 O   0  0  0  0  0
    0.4911   26.6824   64.8231 O   0  0  0  0  0
    1.4964   28.9375   56.6288 O   0  0  0  0  0
    2.1059   31.2028   55.9178 O   0  0  0  0  0
  1  2  1  0  0  0
  2  3  1  0  0  0
  2 16  1  0  0  0
  3 15  1  0  0  0
  4 15  1  0  0  0
  4  5  1  0  0  0
  4 10  1  0  0  0
  5 16  1  0  0  0
  6  7  1  0  0  0
  7 18  1  0  0  0
  8 18  1  0  0  0
  8  9  1  0  0  0
  9 18  1  0  0  0
 11 12  1  0  0  0
 12 20  1  0  0  0
 13 20  1  0  0  0
 13 14  1  0  0  0
 14 20  1  0  0  0
 15 19  1  0  0  0
 16 17  1  0  0  0
 21 17  1  0  0  0
 21  6  1  0  0  0
 22 19  1  0  0  0
 22 11  1  0  0  0
 21 23  2  0  0  0
 21 24  2  0  0  0
 22 25  2  0  0  0
 22 26  2  0  0  0
M  END
> <rmsd>
0.675983787

$$$$
PubChem-160470114


 26 28  0  0  0  0  0  0  0  0999 V2000
    2.4693   31.1228   60.8833 C   0  0  0  0  0
    1.0087   30.8399   60.5831 C   0  0  0  0  0
    0.3839   30.1263   61.7915 C   0  0  0  0  0
   -0.5460   28.3750   60.4435 C   0  0  0  0  0
   -0.4092   29.3926   59.3009 C   0  0  0  0  0
    3.6481   30.0656   57.8013 C   0  0  0  0  0
    4.6372   29.5583   56.7659 C   0  0  0  0  0
    4.5172   27.9429   55.0739 C   0  0  0  0  0
    5.6640   27.6328   55.9158 C   0  0  0  0  0
   -0.2377   26.9900   59.9048 C   0  0  0  0  0
    1.7898   26.0529   62.5539 C   0  0  0  0  0
    2.8558   25.2803   63.3120 C   0  0  0  0  0
    5.1592   25.1333   63.7081 C   0  0  0  0  0
    4.5625   25.9024   64.7909 C   0  0  0  0  0
    0.3517   28.6804   61.5686 N   0  0  0  0  0
    0.9011   30.0421   59.3515 N   0  0  0  0  0
    0.9487   30.9375   58.2726 N   0  0  0  0  0
    4.4278   28.1408   56.5281 N   0  0  0  0  0
   -0.2146   28.1082   62.7175 N   0  0  0  0  0
    4.0678   26.0740   63.4170 N   0  0  0  0  0
    2.0233   30.2681   57.0904 S   0  0  0  0  0
    1.0589   27.3149   63.5832 S   0  0  0  0  0
    1.4959   28.9378   56.6299 O   0  0  0  0  0
    2.1048   31.2024   55.9163 O   0  0  0  0  0
    2.1020   28.3237   63.9759 O   0  0  0  0  0
    0.4903   26.6820   64.8217 O   0  0  0  0  0
  1  2  1  0  0  0
  2  3  1  0  0  0
  2 16  1  0  0  0
  3 15  1  0  0  0
  4 15  1  0  0  0
  4  5  1  0  0  0
  4 10  1  0  0  0
  5 16  1  0  0  0
  6  7  1  0  0  0
  7 18  1  0  0  0
  8 18  1  0  0  0
  8  9  1  0  0  0
  9 18  1  0  0  0
 11 12  1  0  0  0
 12 20  1  0  0  0
 13 20  1  0  0  0
 13 14  1  0  0  0
 14 20  1  0  0  0
 15 19  1  0  0  0
 16 17  1  0  0  0
 21 17  1  0  0  0
 21  6  1  0  0  0
 22 19  1  0  0  0
 22 11  1  0  0  0
 21 23  2  0  0  0
 21 24  2  0  0  0
 22 25  2  0  0  0
 22 26  2  0  0  0
M  END
> <rmsd>
0.67597425

$$$$
PubChem-140981656


 27 32  0  0  0  0  0  0  0  0999 V2000
    6.4517   25.4690   59.9770 C   0  0  0  0  0
    5.0616   25.9846   60.2824 C   0  0  0  0  0
    5.0872   26.7673   61.5818 C   0  0  0  0  0
    3.7271   27.2909   61.9009 C   0  0  0  0  0
    3.0598   26.8703   62.9703 C   0  0  0  0  0
    1.7439   27.3255   63.3159 C   0  0  0  0  0
    1.0114   28.3133   62.4851 C   0  0  0  0  0
    1.8103   28.7443   61.2596 C   0  0  0  0  0
    3.0608   28.2784   61.0190 C   0  0  0  0  0
    1.5788   29.9854   59.0902 C   0  0  0  0  0
    1.0858   31.1250   58.5564 C   0  0  0  0  0
    1.3867   31.5516   57.1700 C   0  0  0  0  0
    2.1651   30.7644   56.4340 C   0  0  0  0  0
    2.7163   29.5277   56.9059 C   0  0  0  0  0
    2.4611   29.0307   58.2797 C   0  0  0  0  0
    3.5910   29.9182   54.8944 C   0  0  0  0  0
    0.8494   32.8350   56.6354 C   0  0  0  0  0
   -0.5350   32.6175   56.0564 C   0  0  0  0  0
   -1.0660   33.9272   55.5139 C   0  0  0  0  0
    2.2764   25.6949   64.7381 C   0  0  0  0  0
    1.7198   28.6908   63.6493 O   0  0  0  0  0
    1.2067   29.6851   60.4101 O   0  0  0  0  0
    1.7267   28.5636   57.1656 O   0  0  0  0  0
    3.6656   29.0231   56.0100 O   0  0  0  0  0
    2.6745   30.9793   55.1889 O   0  0  0  0  0
    1.2014   26.5603   64.3547 O   0  0  0  0  0
    3.3941   25.8992   63.8654 O   0  0  0  0  0
  1  2  1  0  0  0
  2  3  1  0  0  0
  3  4  1  0  0  0
  5 27  1  0  0  0
  6  5  1  0  0  0
  6  7  1  0  0  0
  6 26  1  0  0  0
  6 21  1  0  0  0
  7 21  1  0  0  0
  7  8  1  0  0  0
  8 22  1  0  0  0
  9  4  1  0  0  0
 10 22  1  0  0  0
 11 12  1  0  0  0
 13 25  1  0  0  0
 14 13  1  0  0  0
 14 15  1  0  0  0
 14 24  1  0  0  0
 14 23  1  0  0  0
 15 23  1  0  0  0
 15 10  1  0  0  0
 16 24  1  0  0  0
 16 25  1  0  0  0
 17 12  1  0  0  0
 17 18  1  0  0  0
 18 19  1  0  0  0
 20 26  1  0  0  0
 20 27  1  0  0  0
  4  5  2  0  0  0
  8  9  2  0  0  0
 10 11  2  0  0  0
 12 13  2  0  0  0
M  END
> <rmsd>
0.744741499

$$$$
PubChem-124920912 254479168 ZINC000254479168


 33 36  0  0  0  0  0  0  0  0999 V2000
    5.5697   27.9613   54.0334 C   0  0  0  0  0
    4.7996   28.6512   55.1028 C   0  0  0  0  0
    3.2883   28.8109   58.3513 C   0  0  0  0  0
    4.4301   28.6374   59.3349 C   0  0  0  0  0
   -0.2042   26.8641   58.8135 C   0  0  0  0  0
    0.4386   25.8087   59.7016 C   0  0  0  0  0
   -0.4191   24.5595   59.7019 C   0  0  0  0  0
   -2.5002   24.5077   60.8493 C   0  0  0  0  0
   -0.7018   23.1597   61.6016 C   0  0  0  0  0
   -0.6048   25.5201   61.8616 C   0  0  0  0  0
    0.4891   26.2799   61.1366 C   0  0  0  0  0
    1.8473   25.9398   61.7268 C   0  0  0  0  0
    3.6476   30.1029   56.2430 C   0  0  0  0  0
    2.9462   32.2262   55.5908 C   0  0  0  0  0
    2.2795   33.4271   55.8426 C   0  0  0  0  0
    2.2434   34.4246   54.8630 C   0  0  0  0  0
    2.8722   34.2275   53.6284 C   0  0  0  0  0
    3.5439   33.0307   53.3593 C   0  0  0  0  0
    3.5896   32.0240   54.3262 C   0  0  0  0  0
    4.2541   29.9125   55.0467 C   0  0  0  0  0
    4.5125   28.1136   56.3171 N   0  0  0  0  0
    3.8092   29.0119   57.0065 N   0  0  0  0  0
   -1.0583   24.4347   61.0045 N   0  0  0  0  0
    2.9848   31.2458   56.5440 N   0  0  0  0  0
    4.2434   30.8500   54.0693 N   0  0  0  0  0
    2.4674   27.6799   58.3781 O   0  0  0  0  0
    0.4595   29.0157   57.3614 O   0  0  0  0  0
    0.8100   29.1444   59.7899 O   0  0  0  0  0
    3.5910   26.7081   63.6137 O   0  0  0  0  0
    1.2305   26.6001   64.2637 O   0  0  0  0  0
    2.0006   28.5728   62.7539 O   0  0  0  0  0
    0.8917   28.2519   58.5817 S   0  0  0  0  0
    2.1819   26.9515   63.1549 S   0  0  0  0  0
  1  2  1  0  0  0
  3 22  1  0  0  0
  3  4  1  0  0  0
  3 26  1  0  0  0
  6  5  1  0  0  0
  6  7  1  0  0  0
  7 23  1  0  0  0
 10 11  1  0  0  0
 11 12  1  0  0  0
 11  6  1  0  0  0
 12 33  1  0  0  0
 14 24  1  0  0  0
 15 16  1  0  0  0
 17 18  1  0  0  0
 19 25  1  0  0  0
 19 14  1  0  0  0
 20  2  1  0  0  0
 20 13  1  0  0  0
 22 21  1  0  0  0
 22 13  1  0  0  0
 23  8  1  0  0  0
 23  9  1  0  0  0
 23 10  1  0  0  0
 32 26  1  0  0  0
 32  5  1  0  0  0
 33 31  1  0  0  0
  2 21  2  0  0  0
 13 24  2  0  0  0
 14 15  2  0  0  0
 16 17  2  0  0  0
 18 19  2  0  0  0
 20 25  2  0  0  0
 32 27  2  0  0  0
 32 28  2  0  0  0
 33 29  2  0  0  0
 33 30  2  0  0  0
M  CHG  1  23   1
M  END
> <rmsd>
0.812868059

$$$$
PubChem-91166812


 37 41  0  0  0  0  0  0  0  0999 V2000
    3.2768   30.4379   54.5562 C   0  0  0  0  0
    3.0097   32.5863   55.3611 C   0  0  0  0  0
    3.4250   30.8197   56.8992 C   0  0  0  0  0
    2.9828   31.6831   58.1020 C   0  0  0  0  0
    4.0356   31.6038   59.2055 C   0  0  0  0  0
    3.7019   32.5843   60.3257 C   0  0  0  0  0
    4.7991   32.5808   61.3884 C   0  0  0  0  0
    4.8349   31.2785   62.1328 C   0  0  0  0  0
    3.6443   30.5752   62.4181 C   0  0  0  0  0
    3.7165   29.3554   63.1301 C   0  0  0  0  0
    4.9687   28.8709   63.5400 C   0  0  0  0  0
    6.1367   29.5748   63.2511 C   0  0  0  0  0
    6.0692   30.7757   62.5478 C   0  0  0  0  0
    3.1532   27.4408   65.9104 C   0  0  0  0  0
    3.8935   26.4427   66.5543 C   0  0  0  0  0
    4.3998   26.6645   67.8384 C   0  0  0  0  0
    4.1663   27.8844   68.4808 C   0  0  0  0  0
    3.4253   28.8819   67.8400 C   0  0  0  0  0
    2.9185   28.6599   66.5563 C   0  0  0  0  0
    2.3525   31.1295   61.9319 C   0  0  0  0  0
    2.3303   32.2840   60.9547 C   0  0  0  0  0
    1.2699   32.1171   59.8948 C   0  0  0  0  0
    1.5512   31.3512   58.6098 C   0  0  0  0  0
    1.3874   29.8507   58.8079 C   0  0  0  0  0
    1.9024   28.8889   57.7753 C   0  0  0  0  0
    3.2193   29.3622   57.2408 C   0  0  0  0  0
    2.7131   31.1936   55.6663 N   0  0  0  0  0
    0.9404   28.7658   56.6932 N   0  0  0  0  0
    2.5477   28.6352   63.4106 O   0  0  0  0  0
    1.1087   26.6719   64.3916 O   0  0  0  0  0
    3.3626   26.1492   63.5815 O   0  0  0  0  0
    1.2604   30.6981   62.3915 O   0  0  0  0  0
    0.1547   32.5704   60.1049 O   0  0  0  0  0
    0.7704   29.4073   59.7646 O   0  0  0  0  0
    4.1468   28.5772   57.1326 O   0  0  0  0  0
    0.6377   31.7643   57.6351 O   0  0  0  0  0
    2.5223   27.1708   64.2959 S   0  0  0  0  0
  1 27  1  0  0  0
  2 27  1  0  0  0
  3 27  1  0  0  0
  3  4  1  0  0  0
  3 26  1  0  0  0
  4  5  1  0  0  0
  6  5  1  0  0  0
  6  7  1  0  0  0
  7  8  1  0  0  0
  9 10  1  0  0  0
  9 20  1  0  0  0
 10 29  1  0  0  0
 11 12  1  0  0  0
 13  8  1  0  0  0
 15 16  1  0  0  0
 17 18  1  0  0  0
 19 14  1  0  0  0
 21 20  1  0  0  0
 21 22  1  0  0  0
 21  6  1  0  0  0
 23 22  1  0  0  0
 23 24  1  0  0  0
 23 36  1  0  0  0
 23  4  1  0  0  0
 25 24  1  0  0  0
 25 26  1  0  0  0
 25 28  1  0  0  0
 37 29  1  0  0  0
 37 14  1  0  0  0
  8  9  2  0  0  0
 10 11  2  0  0  0
 12 13  2  0  0  0
 14 15  2  0  0  0
 16 17  2  0  0  0
 18 19  2  0  0  0
 20 32  2  0  0  0
 22 33  2  0  0  0
 24 34  2  0  0  0
 26 35  2  0  0  0
 37 30  2  0  0  0
 37 31  2  0  0  0
M  END
> <rmsd>
0.609850526

$$$$
PubChem-130375596


 28 32  0  0  0  0  0  0  0  0999 V2000
    5.9015   28.5913   63.3120 C   0  0  0  0  0
    6.4302   28.0144   61.9892 C   0  0  0  0  0
    5.8619   26.6009   61.7862 C   0  0  0  0  0
    4.3237   26.6537   61.7504 C   0  0  0  0  0
    3.8917   27.5544   60.5797 C   0  0  0  0  0
    4.4405   28.9820   60.7789 C   0  0  0  0  0
    5.9760   28.9135   60.8281 C   0  0  0  0  0
    3.9317   29.5584   62.1158 C   0  0  0  0  0
    4.3630   28.6506   63.2818 C   0  0  0  0  0
    3.7835   27.2293   63.0859 C   0  0  0  0  0
    3.0858   25.6422   64.5044 C   0  0  0  0  0
    2.7910   25.8057   66.0039 C   0  0  0  0  0
    1.0092   26.6559   64.8319 C   0  0  0  0  0
    1.9067   26.2073   63.7500 C   0  0  0  0  0
    2.7261   30.1127   59.3477 C   0  0  0  0  0
    2.4478   30.9578   58.1455 C   0  0  0  0  0
    4.1944   26.4125   64.1603 O   0  0  0  0  0
    1.5232   26.4269   66.0852 O   0  0  0  0  0
   -0.1131   27.1924   64.6408 O   0  0  0  0  0
    2.3756   27.3091   63.0385 O   0  0  0  0  0
    4.0543   29.8224   59.6909 O   0  0  0  0  0
    1.7673   29.6277   60.0092 O   0  0  0  0  0
    2.1629   30.7946   55.4782 O   0  0  0  0  0
    1.3139   28.9164   56.8048 O   0  0  0  0  0
    3.8858   29.1478   56.5111 O   0  0  0  0  0
    3.4404   31.9112   58.0092 F   0  0  0  0  0
    1.2293   31.5987   58.2862 F   0  0  0  0  0
    2.4120   29.9353   56.6853 S   0  0  0  0  0
  1  2  1  0  0  0
  2  3  1  0  0  0
  3  4  1  0  0  0
  4  5  1  0  0  0
  5  6  1  0  0  0
  6  7  1  0  0  0
  6  8  1  0  0  0
  6 21  1  0  0  0
  7  2  1  0  0  0
  8  9  1  0  0  0
  9 10  1  0  0  0
  9  1  1  0  0  0
 10 17  1  0  0  0
 10  4  1  0  0  0
 10 20  1  0  0  0
 11 17  1  0  0  0
 11 12  1  0  0  0
 12 18  1  0  0  0
 13 18  1  0  0  0
 14 13  1  0  0  0
 14 20  1  0  0  0
 14 11  1  0  0  0
 15 21  1  0  0  0
 16 15  1  0  0  0
 16 26  1  0  0  0
 16 27  1  0  0  0
 16 28  1  0  0  0
 28 25  1  0  0  0
 13 19  2  0  0  0
 15 22  2  0  0  0
 28 23  2  0  0  0
 28 24  2  0  0  0
M  END
> <rmsd>
0.698646545

$$$$
PubChem-21816480


 19 20  0  0  0  0  0  0  0  0999 V2000
    1.0223   28.6209   60.1098 C   0  0  0  0  0
    2.0014   27.5739   60.6639 C   0  0  0  0  0
    2.8921   27.0231   59.5391 C   0  0  0  0  0
    3.2172   30.1882   56.3702 C   0  0  0  0  0
    1.1877   26.4263   61.2826 C   0  0  0  0  0
    2.9032   28.2255   61.7240 C   0  0  0  0  0
    4.0304   26.9502   65.3797 C   0  0  0  0  0
    2.1789   26.8579   58.3408 O   0  0  0  0  0
    0.6206   28.4309   56.9277 O   0  0  0  0  0
    1.6244   29.4398   59.1406 O   0  0  0  0  0
    3.2077   31.3315   55.8967 O   0  0  0  0  0
    1.9452   25.6838   62.2031 O   0  0  0  0  0
    0.9965   26.5803   64.4855 O   0  0  0  0  0
    2.2638   28.3148   62.9708 O   0  0  0  0  0
    4.4012   27.5962   66.3678 O   0  0  0  0  0
    1.8635   28.4349   57.7888 P   0  0  0  0  0
    2.1672   26.7143   63.5379 P   0  0  0  0  0
    3.2270   29.0150   56.8563 N   0  0  0  0  0
    3.6497   26.2874   64.3654 N   0  0  0  0  0
  1  2  1  0  0  0
  1 10  1  0  0  0
  2  3  1  0  0  0
  2  5  1  0  0  0
  3  8  1  0  0  0
  5 12  1  0  0  0
  6 14  1  0  0  0
  6  2  1  0  0  0
 16  8  1  0  0  0
 16 10  1  0  0  0
 16 18  1  0  0  0
 17 12  1  0  0  0
 17 14  1  0  0  0
 17 19  1  0  0  0
  4 11  2  0  0  0
  7 15  2  0  0  0
 16  9  2  0  0  0
 17 13  2  0  0  0
 18  4  2  0  0  0
 19  7  2  0  0  0
M  END
> <rmsd>
0.57374841

$$$$
PubChem-21816480


 19 20  0  0  0  0  0  0  0  0999 V2000
    3.0377   26.6117   61.1575 C   0  0  0  0  0
    1.9806   27.6157   60.6711 C   0  0  0  0  0
    1.0900   28.0663   61.8396 C   0  0  0  0  0
    3.8206   27.4386   65.5013 C   0  0  0  0  0
    1.0907   26.9497   59.6097 C   0  0  0  0  0
    2.7039   28.8348   60.0776 C   0  0  0  0  0
    3.2665   29.9681   56.2488 C   0  0  0  0  0
    1.8271   28.2445   63.0215 O   0  0  0  0  0
    1.1831   26.0703   64.3555 O   0  0  0  0  0
    2.5183   25.7302   62.1192 O   0  0  0  0  0
    3.8749   28.1053   66.5423 O   0  0  0  0  0
    1.7037   26.9348   58.3462 O   0  0  0  0  0
    0.4089   28.8718   57.1281 O   0  0  0  0  0
    1.8799   29.5537   59.1969 O   0  0  0  0  0
    3.4761   31.0917   55.7747 O   0  0  0  0  0
    2.2789   26.6788   63.5101 P   0  0  0  0  0
    1.7100   28.5556   57.8303 P   0  0  0  0  0
    3.7647   26.7544   64.4328 N   0  0  0  0  0
    3.0512   28.8150   56.7355 N   0  0  0  0  0
  1  2  1  0  0  0
  1 10  1  0  0  0
  2  3  1  0  0  0
  2  5  1  0  0  0
  3  8  1  0  0  0
  5 12  1  0  0  0
  6 14  1  0  0  0
  6  2  1  0  0  0
 16  8  1  0  0  0
 16 10  1  0  0  0
 16 18  1  0  0  0
 17 12  1  0  0  0
 17 14  1  0  0  0
 17 19  1  0  0  0
  4 11  2  0  0  0
  7 15  2  0  0  0
 16  9  2  0  0  0
 17 13  2  0  0  0
 18  4  2  0  0  0
 19  7  2  0  0  0
M  END
> <rmsd>
0.758507192

$$$$
PubChem-165343114


 22 22  0  0  0  0  0  0  0  0999 V2000
    1.7716   25.1703   58.7998 C   0  0  0  0  0
    1.1499   26.4201   58.8766 C   0  0  0  0  0
    1.9078   27.5685   59.1310 C   0  0  0  0  0
    3.2961   27.4596   59.3035 C   0  0  0  0  0
    3.9166   26.2098   59.2266 C   0  0  0  0  0
    3.1547   25.0651   58.9748 C   0  0  0  0  0
    1.2214   28.9009   59.1925 C   0  0  0  0  0
    1.6149   29.7718   58.0084 C   0  0  0  0  0
    0.4600   29.3706   61.3737 C   0  0  0  0  0
    0.7105   28.1213   62.2033 C   0  0  0  0  0
    5.6474   26.0778   59.4453 Cl  0  0  0  0  0
    1.1243   29.2211   56.8220 O   0  0  0  0  0
    1.9055   28.8622   54.3720 O   0  0  0  0  0
    3.5420   28.4870   56.1521 O   0  0  0  0  0
    2.8821   30.9424   55.5757 O   0  0  0  0  0
    1.8795   28.2752   62.9545 O   0  0  0  0  0
    3.5492   26.8038   64.2878 O   0  0  0  0  0
    2.5365   25.8319   62.2834 O   0  0  0  0  0
    1.0607   26.0852   64.4148 O   0  0  0  0  0
    2.3862   29.3415   55.7123 S   0  0  0  0  0
    2.2933   26.7251   63.4683 S   0  0  0  0  0
    1.5524   29.5883   60.4343 N   0  0  0  0  0
  2  3  1  0  0  0
  4  5  1  0  0  0
  5 11  1  0  0  0
  6  1  1  0  0  0
  7  3  1  0  0  0
  7  8  1  0  0  0
  7 22  1  0  0  0
  8 12  1  0  0  0
  9 22  1  0  0  0
  9 10  1  0  0  0
 10 16  1  0  0  0
 20 12  1  0  0  0
 20 15  1  0  0  0
 21 16  1  0  0  0
 21 19  1  0  0  0
  1  2  2  0  0  0
  3  4  2  0  0  0
  5  6  2  0  0  0
 20 13  2  0  0  0
 20 14  2  0  0  0
 21 17  2  0  0  0
 21 18  2  0  0  0
M  END
> <rmsd>
0.750346422

$$$$
PubChem-6604194 CHEMBL1416083


 22 25  0  0  0  0  0  0  0  0999 V2000
    0.8244   30.5939   54.2433 N   0  0  0  0  0
    3.0938   30.7720   55.0776 N   0  0  0  0  0
    3.8238   29.5703   56.9977 N   0  0  0  0  0
    0.4545   28.7144   56.5449 N   0  0  0  0  0
    2.1105   28.1897   57.9975 N   0  0  0  0  0
    1.8389   30.2415   55.1772 C   0  0  0  0  0
    4.0785   30.4433   55.9758 C   0  0  0  0  0
    2.5767   29.0472   57.0857 C   0  0  0  0  0
    1.5912   29.3566   56.2166 C   0  0  0  0  0
    0.8080   28.0053   57.6547 C   0  0  0  0  0
    2.8231   27.6445   59.1508 C   0  0  0  0  0
    1.8608   26.4180   60.7580 C   0  0  0  0  0
    2.0744   25.1432   61.5634 C   0  0  0  0  0
    2.6238   27.5033   61.4631 C   0  0  0  0  0
    2.7266   28.5424   60.3929 C   0  0  0  0  0
    2.3719   26.3365   59.4553 O   0  0  0  0  0
    1.3945   25.2116   62.7990 O   0  0  0  0  0
    1.1129   26.8276   64.8582 O   0  0  0  0  0
    3.5758   26.2667   64.1753 O   0  0  0  0  0
    1.9630   27.9239   62.6260 O   0  0  0  0  0
    1.5659   29.3256   60.3643 O   0  0  0  0  0
    1.9926   26.5656   63.6579 P   0  0  0  0  0
  1  6  1  0  0  0
  5  8  1  0  0  0
  7  2  1  0  0  0
  8  3  1  0  0  0
  9  4  1  0  0  0
  9  6  1  0  0  0
 10  5  1  0  0  0
 11  5  1  0  0  0
 11 16  1  0  0  0
 12 16  1  0  0  0
 12 13  1  0  0  0
 13 17  1  0  0  0
 14 20  1  0  0  0
 14 15  1  0  0  0
 14 12  1  0  0  0
 15 21  1  0  0  0
 15 11  1  0  0  0
 22 17  1  0  0  0
 22 19  1  0  0  0
 22 20  1  0  0  0
  6  2  2  0  0  0
  7  3  2  0  0  0
  8  9  2  0  0  0
 10  4  2  0  0  0
 22 18  2  0  0  0
M  END
> <rmsd>
0.803394735

$$$$
PubChem-88177761


 23 22  0  0  0  0  0  0  0  0999 V2000
    1.8978   26.6350   66.5824 C   0  0  0  0  0
    1.5645   25.5745   65.5492 C   0  0  0  0  0
    1.0318   27.0281   63.5849 C   0  0  0  0  0
    0.0468   27.6092   62.8659 C   0  0  0  0  0
    0.2833   28.4679   61.6833 C   0  0  0  0  0
    1.7557   29.0261   59.7543 C   0  0  0  0  0
    2.9801   28.6742   58.9998 C   0  0  0  0  0
    3.1843   28.9672   57.6963 C   0  0  0  0  0
    4.7618   28.7864   55.7664 C   0  0  0  0  0
    4.2406   27.5503   55.0581 C   0  0  0  0  0
    2.1111   29.5171   56.8323 C   0  0  0  0  0
    4.0634   27.9838   59.7657 C   0  0  0  0  0
   -1.3775   27.3432   63.2397 C   0  0  0  0  0
    2.4628   27.3538   63.3700 C   0  0  0  0  0
    0.6677   26.0984   64.5751 O   0  0  0  0  0
   -0.5724   29.3431   61.3773 O   0  0  0  0  0
    1.4108   28.2585   60.8756 O   0  0  0  0  0
    1.0746   30.0386   59.4341 O   0  0  0  0  0
    4.4582   28.7196   57.1555 O   0  0  0  0  0
    2.3745   30.4157   55.9910 O   0  0  0  0  0
    0.8163   29.0164   56.9083 O   0  0  0  0  0
    3.3314   26.4434   63.4084 O   0  0  0  0  0
    2.8657   28.6693   63.1697 O   0  0  0  0  0
  1  2  1  0  0  0
  2 15  1  0  0  0
  3 15  1  0  0  0
  3 14  1  0  0  0
  4  5  1  0  0  0
  5 17  1  0  0  0
  6 17  1  0  0  0
  6  7  1  0  0  0
  8 19  1  0  0  0
  8 11  1  0  0  0
  9 19  1  0  0  0
  9 10  1  0  0  0
 11 21  1  0  0  0
 12  7  1  0  0  0
 13  4  1  0  0  0
 14 23  1  0  0  0
  3  4  2  0  0  0
  5 16  2  0  0  0
  6 18  2  0  0  0
  7  8  2  0  0  0
 11 20  2  0  0  0
 14 22  2  0  0  0
M  END
> <rmsd>
0.775524795

$$$$
PubChem-153520335


 33 36  0  0  0  0  0  0  0  0999 V2000
   -0.1738   33.3977   61.9666 C   0  0  0  0  0
   -0.5509   31.9223   62.0307 C   0  0  0  0  0
   -1.9133   31.6282   62.6076 C   0  0  0  0  0
   -2.3564   30.4170   61.8096 C   0  0  0  0  0
   -0.5984   31.2907   60.6629 C   0  0  0  0  0
    0.7809   30.7750   60.2907 C   0  0  0  0  0
    1.9980   29.6364   58.8490 C   0  0  0  0  0
   -3.4706   28.5151   62.9908 C   0  0  0  0  0
   -3.1201   27.4073   63.7744 C   0  0  0  0  0
   -1.7432   27.4828   63.8758 C   0  0  0  0  0
   -0.8127   26.6637   64.5018 C   0  0  0  0  0
    0.9109   28.1099   63.6910 C   0  0  0  0  0
   -1.3258   28.5757   63.1891 C   0  0  0  0  0
    3.2871   27.6439   64.1848 C   0  0  0  0  0
    3.5084   26.3784   63.3774 C   0  0  0  0  0
   -0.3237   24.5609   65.8887 C   0  0  0  0  0
    0.6352   23.9264   64.9012 C   0  0  0  0  0
    1.9235   23.7422   65.6681 C   0  0  0  0  0
    1.9631   24.8807   66.6652 C   0  0  0  0  0
    0.5184   25.2544   66.9485 C   0  0  0  0  0
   -2.9310   32.7406   62.3791 C   0  0  0  0  0
   -1.5156   30.2228   60.6920 O   0  0  0  0  0
    0.7655   30.2725   58.9902 O   0  0  0  0  0
    2.4899   30.8372   56.4559 O   0  0  0  0  0
    1.1827   28.5739   56.3174 O   0  0  0  0  0
    3.8757   28.6667   56.9197 O   0  0  0  0  0
    2.2655   28.4354   63.5912 O   0  0  0  0  0
    4.5075   25.6152   63.9777 O   0  0  0  0  0
    2.3956   29.4673   57.0869 P   0  0  0  0  0
   -2.3675   29.2197   62.6438 N   0  0  0  0  0
    0.5073   27.0007   64.3924 N   0  0  0  0  0
   -0.0152   28.9071   63.0805 N   0  0  0  0  0
   -1.2268   25.4976   65.2242 N   0  0  0  0  0
  2  1  1  0  0  0
  2  3  1  0  0  0
  3  4  1  0  0  0
  3 21  1  0  0  0
  4 22  1  0  0  0
  4 30  1  0  0  0
  5 22  1  0  0  0
  5  6  1  0  0  0
  5  2  1  0  0  0
  6 23  1  0  0  0
  7 23  1  0  0  0
  7 29  1  0  0  0
  9 10  1  0  0  0
 11 31  1  0  0  0
 11 33  1  0  0  0
 12 32  1  0  0  0
 12 27  1  0  0  0
 13 30  1  0  0  0
 13 10  1  0  0  0
 14 27  1  0  0  0
 14 15  1  0  0  0
 15 28  1  0  0  0
 16 33  1  0  0  0
 16 17  1  0  0  0
 17 18  1  0  0  0
 18 19  1  0  0  0
 19 20  1  0  0  0
 20 16  1  0  0  0
 29 25  1  0  0  0
 29 26  1  0  0  0
 30  8  1  0  0  0
  8  9  2  0  0  0
 10 11  2  0  0  0
 12 31  2  0  0  0
 13 32  2  0  0  0
 29 24  2  0  0  0
M  END
> <rmsd>
0.672964871

$$$$
PubChem-59093022


 21 21  0  0  0  0  0  0  0  0999 V2000
    7.6811   29.6722   53.3878 C   0  0  0  0  0
    6.2906   29.9068   53.9385 C   0  0  0  0  0
    5.6765   31.1187   53.2627 C   0  0  0  0  0
    4.2839   31.3777   53.8080 C   0  0  0  0  0
    4.3656   31.9936   55.1947 C   0  0  0  0  0
    2.9748   32.1465   55.7898 C   0  0  0  0  0
    2.7291   30.5294   57.4830 C   0  0  0  0  0
    3.9697   29.6301   57.5783 C   0  0  0  0  0
    4.1612   29.1606   59.0168 C   0  0  0  0  0
    2.8488   28.5845   59.5478 C   0  0  0  0  0
    1.5222   29.9031   58.2009 C   0  0  0  0  0
    3.0591   28.0783   60.9610 C   0  0  0  0  0
    2.4047   30.8416   56.0964 N   0  0  0  0  0
    1.8359   29.5699   59.5400 O   0  0  0  0  0
    1.0136   28.7970   57.5076 O   0  0  0  0  0
    1.9152   27.4062   61.3980 O   0  0  0  0  0
    2.0260   28.6598   63.6889 O   0  0  0  0  0
    0.9343   26.4697   63.6118 O   0  0  0  0  0
    3.5223   26.5380   63.4672 O   0  0  0  0  0
    3.8531   28.5252   56.7298 O   0  0  0  0  0
    2.0713   27.2894   63.0717 S   0  0  0  0  0
  1  2  1  0  0  0
  2  3  1  0  0  0
  3  4  1  0  0  0
  4  5  1  0  0  0
  5  6  1  0  0  0
  6 13  1  0  0  0
  7 13  1  0  0  0
  7  8  1  0  0  0
  8  9  1  0  0  0
  8 20  1  0  0  0
  9 10  1  0  0  0
 10 14  1  0  0  0
 10 12  1  0  0  0
 11 14  1  0  0  0
 11 15  1  0  0  0
 11  7  1  0  0  0
 12 16  1  0  0  0
 21 16  1  0  0  0
 21 19  1  0  0  0
 21 17  2  0  0  0
 21 18  2  0  0  0
M  CHG  1  19  -1
M  END
> <rmsd>
0.674342752

$$$$
PubChem-153538991


 35 40  0  0  0  0  0  0  0  0999 V2000
    1.0096   31.0208   62.7922 C   0  0  0  0  0
    0.5137   30.0461   63.8051 C   0  0  0  0  0
    0.1714   28.8287   62.9725 C   0  0  0  0  0
    1.5112   30.1254   61.6906 C   0  0  0  0  0
    1.3599   30.8221   60.3517 C   0  0  0  0  0
    1.9290   30.8654   58.2199 C   0  0  0  0  0
    1.8469   27.2258   63.9514 C   0  0  0  0  0
    1.8154   26.0183   64.5629 C   0  0  0  0  0
    0.4828   25.6510   64.6268 C   0  0  0  0  0
    3.0005   25.4175   64.9695 C   0  0  0  0  0
    4.1737   27.3092   64.1028 C   0  0  0  0  0
    4.0286   23.2195   66.1547 C   0  0  0  0  0
    3.0559   22.1989   66.6102 C   0  0  0  0  0
    2.0418   23.1330   66.0679 C   0  0  0  0  0
    3.1406   20.8778   65.9740 C   0  0  0  0  0
    3.1371   19.9600   66.9659 C   0  0  0  0  0
    3.0491   20.6448   68.2741 C   0  0  0  0  0
    3.2131   18.5931   66.6984 C   0  0  0  0  0
    3.2941   18.1858   65.3557 C   0  0  0  0  0
    3.2978   19.1444   64.3223 C   0  0  0  0  0
    3.2204   20.5137   64.6275 C   0  0  0  0  0
    0.7749   28.9259   61.7025 O   0  0  0  0  0
    1.9377   30.0451   59.3481 O   0  0  0  0  0
    3.5470   29.1678   56.8382 O   0  0  0  0  0
    2.1891   30.8550   55.3695 O   0  0  0  0  0
    0.9818   28.7005   56.6026 O   0  0  0  0  0
    3.0017   22.0458   68.0173 O   0  0  0  0  0
    2.2063   29.8590   56.7364 P   0  0  0  0  0
    0.5985   27.6061   63.6440 N   0  0  0  0  0
   -0.2342   26.6541   64.0502 N   0  0  0  0  0
    4.1673   26.0866   64.7260 N   0  0  0  0  0
    3.0016   27.8920   63.7070 N   0  0  0  0  0
    3.0152   24.1463   65.6172 N   0  0  0  0  0
    5.6923   28.1271   63.8094 Cl  0  0  0  0  0
    3.3954   16.4825   64.9662 Cl  0  0  0  0  0
  1  2  1  0  0  0
  2  3  1  0  0  0
  3 22  1  0  0  0
  3 29  1  0  0  0
  4 22  1  0  0  0
  4  5  1  0  0  0
  4  1  1  0  0  0
  5 23  1  0  0  0
  6 23  1  0  0  0
  6 28  1  0  0  0
  7 32  1  0  0  0
  8  9  1  0  0  0
  8 10  1  0  0  0
 10 33  1  0  0  0
 11 31  1  0  0  0
 11 34  1  0  0  0
 12 33  1  0  0  0
 12 13  1  0  0  0
 13 14  1  0  0  0
 13 15  1  0  0  0
 13 27  1  0  0  0
 14 33  1  0  0  0
 16 18  1  0  0  0
 17 16  1  0  0  0
 17 27  1  0  0  0
 19 20  1  0  0  0
 19 35  1  0  0  0
 21 15  1  0  0  0
 28 25  1  0  0  0
 28 26  1  0  0  0
 29  7  1  0  0  0
 29 30  1  0  0  0
  7  8  2  0  0  0
  9 30  2  0  0  0
 10 31  2  0  0  0
 11 32  2  0  0  0
 15 16  2  0  0  0
 18 19  2  0  0  0
 20 21  2  0  0  0
 28 24  2  0  0  0
M  END
> <rmsd>
0.757611513

$$$$
PubChem-14130886 PubChem-73124503


 22 22  0  0  0  0  0  0  0  0999 V2000
    0.3838   26.7547   68.0713 C   0  0  0  0  0
   -1.1969   29.5301   67.0925 C   0  0  0  0  0
    1.9439   28.9616   66.0911 C   0  0  0  0  0
    1.5828   28.3964   64.7283 C   0  0  0  0  0
    1.7560   26.8919   64.7154 C   0  0  0  0  0
    2.4998   26.6102   63.4461 C   0  0  0  0  0
    2.6373   27.9635   62.7871 C   0  0  0  0  0
    2.4452   28.4706   60.6421 C   0  0  0  0  0
    1.5406   28.5778   59.4303 C   0  0  0  0  0
    2.3853   28.8405   58.1996 C   0  0  0  0  0
    0.5099   28.5989   67.3955 As  0  0  0  0  0
    1.0762   29.3886   68.7225 O   0  0  0  0  0
    2.4179   28.9631   63.7506 O   0  0  0  0  0
    1.7000   28.0856   61.7581 O   0  0  0  0  0
    1.5924   28.7532   57.0528 O   0  0  0  0  0
    1.6989   29.4383   54.5510 O   0  0  0  0  0
    3.7625   28.6377   55.5976 O   0  0  0  0  0
    2.9102   31.0239   56.2079 O   0  0  0  0  0
    0.6359   29.6252   59.6102 O   0  0  0  0  0
    3.7667   26.1166   63.7562 O   0  0  0  0  0
    0.5034   26.2803   64.6670 O   0  0  0  0  0
    2.5088   29.4389   55.8164 S   0  0  0  0  0
  1 11  1  0  0  0
  4  3  1  0  0  0
  4  5  1  0  0  0
  4 13  1  0  0  0
  5  6  1  0  0  0
  5 21  1  0  0  0
  6  7  1  0  0  0
  6 20  1  0  0  0
  7 13  1  0  0  0
  7 14  1  0  0  0
  8 14  1  0  0  0
  9  8  1  0  0  0
  9 10  1  0  0  0
  9 19  1  0  0  0
 10 15  1  0  0  0
 11  2  1  0  0  0
 11  3  1  0  0  0
 22 15  1  0  0  0
 22 18  1  0  0  0
 11 12  2  0  0  0
 22 16  2  0  0  0
 22 17  2  0  0  0
M  END
> <rmsd>
0.709407687

$$$$
PubChem-14130886 PubChem-73124503


 22 22  0  0  0  0  0  0  0  0999 V2000
    1.1820   32.0777   52.9405 C   0  0  0  0  0
   -1.6268   32.4166   54.7167 C   0  0  0  0  0
    0.0968   29.5530   54.8572 C   0  0  0  0  0
    0.8319   29.8661   56.1490 C   0  0  0  0  0
    2.2747   30.2274   55.8639 C   0  0  0  0  0
    3.0643   29.4360   56.8608 C   0  0  0  0  0
    2.0159   28.7332   57.6924 C   0  0  0  0  0
    2.0005   28.3923   59.8784 C   0  0  0  0  0
    1.9136   28.9977   61.2656 C   0  0  0  0  0
    2.2230   27.9298   62.2956 C   0  0  0  0  0
   -0.3183   31.2119   53.8749 As  0  0  0  0  0
   -1.1890   30.6254   52.6086 O   0  0  0  0  0
    0.7978   28.7416   56.9909 O   0  0  0  0  0
    1.8616   29.3927   58.9145 O   0  0  0  0  0
    2.3339   28.5100   63.5616 O   0  0  0  0  0
    2.3308   27.7746   66.0513 O   0  0  0  0  0
    3.4511   26.3133   64.4374 O   0  0  0  0  0
    0.8453   26.3679   64.4572 O   0  0  0  0  0
    0.6283   29.4979   61.4805 O   0  0  0  0  0
    3.8331   28.4866   56.1882 O   0  0  0  0  0
    2.4667   31.5898   56.0933 O   0  0  0  0  0
    2.2767   27.2277   64.6530 S   0  0  0  0  0
  1 11  1  0  0  0
  4  3  1  0  0  0
  4  5  1  0  0  0
  4 13  1  0  0  0
  5  6  1  0  0  0
  5 21  1  0  0  0
  6  7  1  0  0  0
  6 20  1  0  0  0
  7 13  1  0  0  0
  7 14  1  0  0  0
  8 14  1  0  0  0
  9  8  1  0  0  0
  9 10  1  0  0  0
  9 19  1  0  0  0
 10 15  1  0  0  0
 11  2  1  0  0  0
 11  3  1  0  0  0
 22 15  1  0  0  0
 22 18  1  0  0  0
 11 12  2  0  0  0
 22 16  2  0  0  0
 22 17  2  0  0  0
M  END
> <rmsd>
0.637517691

$$$$
PubChem-89272925


 34 37  0  0  0  0  0  0  0  0999 V2000
    0.2680   31.0853   56.6031 C   0  0  0  0  0
    1.4687   30.2190   56.9778 C   0  0  0  0  0
    2.6947   30.7564   55.0921 C   0  0  0  0  0
    3.8329   29.8473   54.6206 C   0  0  0  0  0
    3.2947   27.8998   55.6056 C   0  0  0  0  0
    2.3346   28.0657   56.7750 C   0  0  0  0  0
    1.4988   30.1596   58.4893 C   0  0  0  0  0
    2.7641   30.7345   60.6300 C   0  0  0  0  0
    3.8666   31.3869   61.1873 C   0  0  0  0  0
    4.0187   31.4133   62.5736 C   0  0  0  0  0
    3.0764   30.7833   63.3883 C   0  0  0  0  0
    1.9906   30.1333   62.7980 C   0  0  0  0  0
    0.9956   29.4199   63.6425 C   0  0  0  0  0
    1.2766   26.2150   65.3119 C   0  0  0  0  0
    0.3859   25.3124   66.0776 C   0  0  0  0  0
   -0.8033   25.8009   66.6432 C   0  0  0  0  0
   -1.6625   24.9442   67.3363 C   0  0  0  0  0
   -1.3449   23.5902   67.4656 C   0  0  0  0  0
   -0.1691   23.0906   66.9000 C   0  0  0  0  0
    0.6893   23.9465   66.2069 C   0  0  0  0  0
    2.6850   25.8402   65.0400 C   0  0  0  0  0
    3.3819   25.1455   67.3639 C   0  0  0  0  0
    2.6590   30.8345   56.4990 O   0  0  0  0  0
    4.2289   28.9424   55.6183 O   0  0  0  0  0
    1.2722   28.9220   56.4203 O   0  0  0  0  0
    0.5452   29.6130   59.1084 O   0  0  0  0  0
    1.5589   28.2092   64.1153 O   0  0  0  0  0
    2.6059   30.7241   59.2068 N   0  0  0  0  0
    1.8601   30.1206   61.4443 N   0  0  0  0  0
    0.7945   27.3290   64.8473 N   0  0  0  0  0
    3.2875   25.9718   63.8426 N   0  0  0  0  0
    4.5313   25.5491   64.0312 N   0  0  0  0  0
    4.7000   25.1836   65.2937 N   0  0  0  0  0
    3.5602   25.3519   65.9365 N   0  0  0  0  0
  1  2  1  0  0  0
  2 23  1  0  0  0
  2  7  1  0  0  0
  2 25  1  0  0  0
  3 23  1  0  0  0
  3  4  1  0  0  0
  4 24  1  0  0  0
  5 24  1  0  0  0
  5  6  1  0  0  0
  6 25  1  0  0  0
  7 28  1  0  0  0
  8 29  1  0  0  0
  9 10  1  0  0  0
 11 12  1  0  0  0
 13 12  1  0  0  0
 13 27  1  0  0  0
 14 15  1  0  0  0
 14 21  1  0  0  0
 16 17  1  0  0  0
 18 19  1  0  0  0
 20 15  1  0  0  0
 22 34  1  0  0  0
 27 30  1  0  0  0
 28  8  1  0  0  0
 31 32  1  0  0  0
 34 33  1  0  0  0
 34 21  1  0  0  0
  7 26  2  0  0  0
  8  9  2  0  0  0
 10 11  2  0  0  0
 12 29  2  0  0  0
 14 30  2  0  0  0
 15 16  2  0  0  0
 17 18  2  0  0  0
 19 20  2  0  0  0
 21 31  2  0  0  0
 32 33  2  0  0  0
M  END
> <rmsd>
0.864313722

$$$$
PubChem-89272925


 34 37  0  0  0  0  0  0  0  0999 V2000
    0.2381   30.9785   56.7102 C   0  0  0  0  0
    1.4831   30.1575   57.0392 C   0  0  0  0  0
    2.6266   30.7570   55.1206 C   0  0  0  0  0
    3.7839   29.8971   54.6055 C   0  0  0  0  0
    3.3541   27.9225   55.5900 C   0  0  0  0  0
    2.4260   28.0416   56.7905 C   0  0  0  0  0
    1.5637   30.0880   58.5485 C   0  0  0  0  0
    2.8730   30.6964   60.6533 C   0  0  0  0  0
    3.9662   31.3876   61.1812 C   0  0  0  0  0
    4.1612   31.4096   62.5622 C   0  0  0  0  0
    3.2708   30.7368   63.4006 C   0  0  0  0  0
    2.1930   30.0489   62.8392 C   0  0  0  0  0
    1.2542   29.2904   63.7084 C   0  0  0  0  0
    1.7137   26.0867   65.3400 C   0  0  0  0  0
    0.8839   25.1440   66.1255 C   0  0  0  0  0
   -0.3050   25.5809   66.7325 C   0  0  0  0  0
   -1.1074   24.6857   67.4448 C   0  0  0  0  0
   -0.7330   23.3444   67.5522 C   0  0  0  0  0
    0.4429   22.8958   66.9455 C   0  0  0  0  0
    1.2446   23.7902   66.2332 C   0  0  0  0  0
    3.1263   25.7699   65.0206 C   0  0  0  0  0
    3.9236   25.0858   67.3152 C   0  0  0  0  0
    2.6326   30.8231   56.5286 O   0  0  0  0  0
    4.2467   29.0011   55.5824 O   0  0  0  0  0
    1.3201   28.8580   56.4769 O   0  0  0  0  0
    0.6524   29.4995   59.1925 O   0  0  0  0  0
    1.8793   28.0994   64.1526 O   0  0  0  0  0
    2.6701   30.6904   59.2356 N   0  0  0  0  0
    2.0201   30.0411   61.4902 N   0  0  0  0  0
    1.1737   27.1842   64.9005 N   0  0  0  0  0
    3.6848   25.9341   63.8060 N   0  0  0  0  0
    4.9496   25.5594   63.9516 N   0  0  0  0  0
    5.1726   25.1914   65.2049 N   0  0  0  0  0
    4.0481   25.3097   65.8848 N   0  0  0  0  0
  1  2  1  0  0  0
  2 23  1  0  0  0
  2  7  1  0  0  0
  2 25  1  0  0  0
  3 23  1  0  0  0
  3  4  1  0  0  0
  4 24  1  0  0  0
  5 24  1  0  0  0
  5  6  1  0  0  0
  6 25  1  0  0  0
  7 28  1  0  0  0
  8 29  1  0  0  0
  9 10  1  0  0  0
 11 12  1  0  0  0
 13 12  1  0  0  0
 13 27  1  0  0  0
 14 15  1  0  0  0
 14 21  1  0  0  0
 16 17  1  0  0  0
 18 19  1  0  0  0
 20 15  1  0  0  0
 22 34  1  0  0  0
 27 30  1  0  0  0
 28  8  1  0  0  0
 31 32  1  0  0  0
 34 33  1  0  0  0
 34 21  1  0  0  0
  7 26  2  0  0  0
  8  9  2  0  0  0
 10 11  2  0  0  0
 12 29  2  0  0  0
 14 30  2  0  0  0
 15 16  2  0  0  0
 17 18  2  0  0  0
 19 20  2  0  0  0
 21 31  2  0  0  0
 32 33  2  0  0  0
M  END
> <rmsd>
0.834951282

$$$$
PubChem-123274087


 23 25  0  0  0  0  0  0  0  0999 V2000
    0.9925   27.4879   57.1529 C   0  0  0  0  0
    2.5632   30.7767   59.2867 C   0  0  0  0  0
    2.7714   30.2264   60.6850 C   0  0  0  0  0
    3.7604   31.0844   61.4290 C   0  0  0  0  0
    4.4232   30.1065   62.3374 C   0  0  0  0  0
    4.2687   28.7951   61.5993 C   0  0  0  0  0
    4.7082   26.6166   62.7751 C   0  0  0  0  0
    2.9765   26.4042   63.9874 C   0  0  0  0  0
    2.8697   27.5586   63.2965 C   0  0  0  0  0
    0.7969   28.0163   64.2605 C   0  0  0  0  0
    1.9649   26.0206   64.8569 C   0  0  0  0  0
    1.1258   28.6009   56.3217 O   0  0  0  0  0
    2.3990   30.8794   56.2930 O   0  0  0  0  0
    3.6933   28.8531   57.3228 O   0  0  0  0  0
    1.5574   30.0556   58.6390 O   0  0  0  0  0
    3.2611   28.9085   60.6209 O   0  0  0  0  0
    2.2023   29.6330   57.1265 P   0  0  0  0  0
    3.9525   27.7153   62.5261 N   0  0  0  0  0
    4.1295   25.7794   63.6830 N   0  0  0  0  0
    1.8001   28.3831   63.4067 N   0  0  0  0  0
    0.8838   26.8475   64.9749 N   0  0  0  0  0
    2.0537   24.5311   65.7764 Cl  0  0  0  0  0
   -0.6076   29.0441   64.4421 Cl  0  0  0  0  0
  1 12  1  0  0  0
  2 15  1  0  0  0
  2  3  1  0  0  0
  3  4  1  0  0  0
  3 16  1  0  0  0
  4  5  1  0  0  0
  5  6  1  0  0  0
  6 16  1  0  0  0
  6 18  1  0  0  0
  8 19  1  0  0  0
  9 20  1  0  0  0
  9 18  1  0  0  0
 10 21  1  0  0  0
 10 23  1  0  0  0
 11 22  1  0  0  0
 11  8  1  0  0  0
 17 12  1  0  0  0
 17 14  1  0  0  0
 17 15  1  0  0  0
 18  7  1  0  0  0
  7 19  2  0  0  0
  8  9  2  0  0  0
 10 20  2  0  0  0
 11 21  2  0  0  0
 17 13  2  0  0  0
M  END
> <rmsd>
0.751887679

$$$$
PubChem-123274087


 23 25  0  0  0  0  0  0  0  0999 V2000
    0.7536   27.5835   56.9769 C   0  0  0  0  0
    2.4876   30.7232   59.2886 C   0  0  0  0  0
    2.6977   30.2032   60.6982 C   0  0  0  0  0
    3.6213   31.1252   61.4497 C   0  0  0  0  0
    4.3180   30.1982   62.3858 C   0  0  0  0  0
    4.2512   28.8698   61.6648 C   0  0  0  0  0
    4.7785   26.7352   62.8841 C   0  0  0  0  0
    3.0327   26.4477   64.0603 C   0  0  0  0  0
    2.8806   27.5845   63.3491 C   0  0  0  0  0
    0.7646   27.9444   64.2589 C   0  0  0  0  0
    2.0231   26.0230   64.9126 C   0  0  0  0  0
    1.0982   28.6881   56.1959 O   0  0  0  0  0
    3.4754   28.7511   57.3070 O   0  0  0  0  0
    2.5932   30.9970   56.2995 O   0  0  0  0  0
    1.5346   29.9406   58.6325 O   0  0  0  0  0
    3.2627   28.9148   60.6617 O   0  0  0  0  0
    2.2140   29.5674   57.1219 P   0  0  0  0  0
    3.9713   27.7881   62.6010 N   0  0  0  0  0
    4.2242   25.8813   63.7918 N   0  0  0  0  0
    1.7664   28.3520   63.4223 N   0  0  0  0  0
    0.8970   26.7923   64.9933 N   0  0  0  0  0
    2.1697   24.5540   65.8572 Cl  0  0  0  0  0
   -0.6965   28.8978   64.3926 Cl  0  0  0  0  0
  1 12  1  0  0  0
  2 15  1  0  0  0
  2  3  1  0  0  0
  3  4  1  0  0  0
  3 16  1  0  0  0
  4  5  1  0  0  0
  5  6  1  0  0  0
  6 16  1  0  0  0
  6 18  1  0  0  0
  8 19  1  0  0  0
  9 20  1  0  0  0
  9 18  1  0  0  0
 10 21  1  0  0  0
 10 23  1  0  0  0
 11 22  1  0  0  0
 11  8  1  0  0  0
 17 12  1  0  0  0
 17 14  1  0  0  0
 17 15  1  0  0  0
 18  7  1  0  0  0
  7 19  2  0  0  0
  8  9  2  0  0  0
 10 20  2  0  0  0
 11 21  2  0  0  0
 17 13  2  0  0  0
M  END
> <rmsd>
0.7579813

$$$$
PubChem-87734640


 26 28  0  0  0  0  0  0  0  0999 V2000
    1.8715   32.3536   57.4120 C   0  0  0  0  0
    3.0404   31.3989   57.5489 C   0  0  0  0  0
    2.0804   27.2286   58.3935 C   0  0  0  0  0
    2.0243   26.8139   59.8305 C   0  0  0  0  0
    1.4746   28.0644   60.5553 C   0  0  0  0  0
    1.2828   29.0618   59.4560 C   0  0  0  0  0
    2.8280   28.2715   61.2247 C   0  0  0  0  0
    3.3786   27.0227   60.4978 C   0  0  0  0  0
    3.5764   26.0254   61.5964 C   0  0  0  0  0
    2.7683   27.8545   62.6610 C   0  0  0  0  0
    2.3977   24.2697   66.0579 C   0  0  0  0  0
    3.6008   23.3565   65.9362 C   0  0  0  0  0
    2.7843   29.9695   56.5176 S   0  0  0  0  0
    2.0925   25.0820   64.5049 S   0  0  0  0  0
    3.9854   29.0692   56.6062 O   0  0  0  0  0
    2.6181   30.4148   55.0922 O   0  0  0  0  0
    1.3938   29.1360   56.9955 O   0  0  0  0  0
    2.4255   26.4664   57.4529 O   0  0  0  0  0
    0.7744   30.2015   59.6208 O   0  0  0  0  0
    4.0721   24.8803   61.4293 O   0  0  0  0  0
    2.4217   28.6146   63.6028 O   0  0  0  0  0
    3.4707   25.9493   64.0566 O   0  0  0  0  0
    1.7670   24.0489   63.4618 O   0  0  0  0  0
    0.9271   26.0173   64.6678 O   0  0  0  0  0
    1.6895   28.5722   58.1940 N   0  0  0  0  0
    3.1774   26.5167   62.8596 N   0  0  0  0  0
  1  2  1  0  0  0
  2 13  1  0  0  0
  4  3  1  0  0  0
  4  5  1  0  0  0
  5  6  1  0  0  0
  5  7  1  0  0  0
  6 25  1  0  0  0
  7  8  1  0  0  0
  7 10  1  0  0  0
  8  9  1  0  0  0
  8  4  1  0  0  0
  9 26  1  0  0  0
 11 12  1  0  0  0
 13 17  1  0  0  0
 14 22  1  0  0  0
 14 11  1  0  0  0
 25 17  1  0  0  0
 25  3  1  0  0  0
 26 10  1  0  0  0
 26 22  1  0  0  0
  3 18  2  0  0  0
  6 19  2  0  0  0
  9 20  2  0  0  0
 10 21  2  0  0  0
 13 15  2  0  0  0
 13 16  2  0  0  0
 14 23  2  0  0  0
 14 24  2  0  0  0
M  END
> <rmsd>
0.724121749

$$$$
PubChem-57378055


 18 17  0  0  0  0  0  0  0  0999 V2000
    4.7303   27.8698   57.4875 C   0  0  0  0  0
    3.4017   28.6058   57.3279 C   0  0  0  0  0
    3.1785   29.4768   58.5716 C   0  0  0  0  0
    1.8558   28.6817   60.5661 C   0  0  0  0  0
    1.7740   27.8358   61.7854 C   0  0  0  0  0
    3.1657   28.1699   65.5368 C   0  0  0  0  0
    3.0405   28.6600   59.7705 N   0  0  0  0  0
    2.2902   27.6559   57.1893 N   0  0  0  0  0
    3.4751   29.4418   56.1244 N   0  0  0  0  0
    0.8910   29.4323   60.2612 O   0  0  0  0  0
    2.3479   28.5125   62.8646 O   0  0  0  0  0
    1.0666   26.8962   64.4787 O   0  0  0  0  0
    3.3042   26.2249   63.7077 O   0  0  0  0  0
    1.1299   28.0797   57.0058 O   0  0  0  0  0
    2.4994   26.2969   57.2650 O   0  0  0  0  0
    3.6198   28.9078   55.0048 O   0  0  0  0  0
    3.3753   30.8134   56.1999 O   0  0  0  0  0
    2.4412   27.3866   64.1162 S   0  0  0  0  0
  1  2  1  0  0  0
  2  3  1  0  0  0
  2  8  1  0  0  0
  2  9  1  0  0  0
  3  7  1  0  0  0
  5  4  1  0  0  0
  5 11  1  0  0  0
  7  4  1  0  0  0
  8 15  1  0  0  0
  9 17  1  0  0  0
 18 11  1  0  0  0
 18  6  1  0  0  0
  4 10  2  0  0  0
  8 14  2  0  0  0
  9 16  2  0  0  0
 18 12  2  0  0  0
 18 13  2  0  0  0
M  CHG  4   8   1  15  -1   9   1  17  -1
M  END
> <rmsd>
0.75585264

$$$$
PubChem-132257416


 17 17  0  0  0  0  0  0  0  0999 V2000
   -0.7407   30.5238   61.3253 C   0  0  0  0  0
   -0.8733   30.6463   59.8471 C   0  0  0  0  0
    0.0765   29.5923   59.3389 C   0  0  0  0  0
    0.6624   29.9989   61.4925 C   0  0  0  0  0
    0.7168   29.0470   62.6731 C   0  0  0  0  0
    0.7274   30.0665   58.0533 C   0  0  0  0  0
    1.0595   29.3360   60.3148 O   0  0  0  0  0
    2.0413   28.6910   62.9354 O   0  0  0  0  0
    3.4312   26.5215   63.3803 O   0  0  0  0  0
    0.9621   26.4875   64.2328 O   0  0  0  0  0
    1.5832   26.3385   61.5435 O   0  0  0  0  0
    1.4855   29.0334   57.4974 O   0  0  0  0  0
    2.6499   30.7684   55.9004 O   0  0  0  0  0
    3.6873   30.5247   58.2945 O   0  0  0  0  0
    3.9628   28.5620   56.3802 O   0  0  0  0  0
    2.0403   26.9984   63.0326 P   0  0  0  0  0
    2.9328   29.7568   56.9888 P   0  0  0  0  0
  1  2  1  0  0  0
  2  3  1  0  0  0
  3  7  1  0  0  0
  3  6  1  0  0  0
  4  7  1  0  0  0
  4  5  1  0  0  0
  4  1  1  0  0  0
  5  8  1  0  0  0
  6 12  1  0  0  0
 16  8  1  0  0  0
 16 10  1  0  0  0
 16 11  1  0  0  0
 17 12  1  0  0  0
 17 14  1  0  0  0
 17 15  1  0  0  0
 16  9  2  0  0  0
 17 13  2  0  0  0
M  END
> <rmsd>
0.733304143

$$$$
PubChem-132257416


 17 17  0  0  0  0  0  0  0  0999 V2000
   -0.9736   30.5028   59.6754 C   0  0  0  0  0
   -0.8637   30.3974   61.1567 C   0  0  0  0  0
    0.5457   29.9007   61.3519 C   0  0  0  0  0
    0.0041   29.4618   59.1931 C   0  0  0  0  0
    0.6714   29.9373   57.9158 C   0  0  0  0  0
    0.5984   28.9657   62.5454 C   0  0  0  0  0
    0.9721   29.2287   60.1896 O   0  0  0  0  0
    1.4487   28.9107   57.3755 O   0  0  0  0  0
    3.8619   28.5786   56.4253 O   0  0  0  0  0
    2.7995   30.9337   56.0390 O   0  0  0  0  0
    3.6636   30.1099   58.5321 O   0  0  0  0  0
    1.9249   28.6286   62.8245 O   0  0  0  0  0
    1.0861   26.6818   64.3811 O   0  0  0  0  0
    1.2616   26.1244   61.8265 O   0  0  0  0  0
    3.4971   26.4385   63.4064 O   0  0  0  0  0
    2.9655   29.6064   57.0758 P   0  0  0  0  0
    1.9113   26.9632   63.1449 P   0  0  0  0  0
  1  2  1  0  0  0
  2  3  1  0  0  0
  3  7  1  0  0  0
  3  6  1  0  0  0
  4  7  1  0  0  0
  4  5  1  0  0  0
  4  1  1  0  0  0
  5  8  1  0  0  0
  6 12  1  0  0  0
 16  8  1  0  0  0
 16 10  1  0  0  0
 16 11  1  0  0  0
 17 12  1  0  0  0
 17 14  1  0  0  0
 17 15  1  0  0  0
 16  9  2  0  0  0
 17 13  2  0  0  0
M  END
> <rmsd>
0.697306752

$$$$
PubChem-77425867


 38 43  0  0  0  0  0  0  0  0999 V2000
    1.3408   26.3158   61.9545 C   0  0  0  0  0
    2.7061   26.4989   61.2944 C   0  0  0  0  0
    2.5702   26.6701   59.7827 C   0  0  0  0  0
    3.8841   26.3752   59.0957 C   0  0  0  0  0
    4.1642   26.9939   57.9566 C   0  0  0  0  0
    3.3101   27.9548   57.3420 C   0  0  0  0  0
    2.1903   28.4222   57.9155 C   0  0  0  0  0
    1.9077   28.0246   59.3543 C   0  0  0  0  0
    2.1933   29.1688   60.2993 C   0  0  0  0  0
    3.4766   27.6801   61.9037 C   0  0  0  0  0
    3.5949   27.5580   63.4288 C   0  0  0  0  0
    2.2454   27.2792   64.1061 C   0  0  0  0  0
    1.5207   26.0958   63.4525 C   0  0  0  0  0
    0.4842   27.1962   54.7846 C   0  0  0  0  0
   -0.6012   27.2315   55.6757 C   0  0  0  0  0
   -1.4808   26.1489   55.7600 C   0  0  0  0  0
   -1.2825   25.0242   54.9547 C   0  0  0  0  0
   -0.2049   24.9830   54.0657 C   0  0  0  0  0
    0.6749   26.0664   53.9820 C   0  0  0  0  0
   -0.5752   30.8775   53.9533 C   0  0  0  0  0
   -1.8028   31.5222   53.7661 C   0  0  0  0  0
   -2.2109   31.9086   52.4859 C   0  0  0  0  0
   -1.3917   31.6516   51.3833 C   0  0  0  0  0
   -0.1638   31.0083   51.5606 C   0  0  0  0  0
    0.2438   30.6225   52.8405 C   0  0  0  0  0
    5.1182   27.5959   55.9660 C   0  0  0  0  0
    1.7582   30.3203   60.0337 O   0  0  0  0  0
    0.2786   25.8959   64.0553 O   0  0  0  0  0
    1.4466   28.4258   64.0808 O   0  0  0  0  0
    4.5066   26.5525   63.7546 O   0  0  0  0  0
    1.2884   29.2989   57.2910 O   0  0  0  0  0
    2.4347   30.6093   55.2956 O   0  0  0  0  0
    1.3867   28.2584   54.6750 O   0  0  0  0  0
   -0.2032   30.5031   55.2486 O   0  0  0  0  0
    3.8777   28.2976   56.1287 O   0  0  0  0  0
    5.2627   26.7941   57.1455 O   0  0  0  0  0
    2.8658   28.9542   61.5429 N   0  0  0  0  0
    1.2728   29.6964   55.6153 P   0  0  0  0  0
  2  1  1  0  0  0
  2  3  1  0  0  0
  3  4  1  0  0  0
  5  6  1  0  0  0
  5 36  1  0  0  0
  6 35  1  0  0  0
  7 31  1  0  0  0
  8  7  1  0  0  0
  8  9  1  0  0  0
  8  3  1  0  0  0
  9 37  1  0  0  0
 10 37  1  0  0  0
 10 11  1  0  0  0
 10  2  1  0  0  0
 11 12  1  0  0  0
 11 30  1  0  0  0
 12 13  1  0  0  0
 12 29  1  0  0  0
 13 28  1  0  0  0
 13  1  1  0  0  0
 14 33  1  0  0  0
 15 16  1  0  0  0
 17 18  1  0  0  0
 19 14  1  0  0  0
 20 34  1  0  0  0
 21 22  1  0  0  0
 23 24  1  0  0  0
 25 20  1  0  0  0
 26 35  1  0  0  0
 26 36  1  0  0  0
 38 31  1  0  0  0
 38 33  1  0  0  0
 38 34  1  0  0  0
  4  5  2  0  0  0
  6  7  2  0  0  0
  9 27  2  0  0  0
 14 15  2  0  0  0
 16 17  2  0  0  0
 18 19  2  0  0  0
 20 21  2  0  0  0
 22 23  2  0  0  0
 24 25  2  0  0  0
 38 32  2  0  0  0
M  END
> <rmsd>
0.83906287

$$$$
PubChem-16113214


 33 36  0  0  0  0  0  0  0  0999 V2000
    1.8659   26.7367   56.8646 C   0  0  0  0  0
    1.1611   27.7416   57.7528 C   0  0  0  0  0
    0.8762   27.1488   59.1043 C   0  0  0  0  0
    1.0946   28.3046   60.0639 C   0  0  0  0  0
    2.0883   28.8866   58.1181 C   0  0  0  0  0
    1.0559   30.8535   57.0753 C   0  0  0  0  0
    1.0728   31.9153   56.1746 C   0  0  0  0  0
    2.1838   32.0640   55.3511 C   0  0  0  0  0
    3.1896   30.1582   56.3286 C   0  0  0  0  0
    1.9068   27.8528   61.2648 C   0  0  0  0  0
    4.3218   27.2617   63.2699 C   0  0  0  0  0
    4.4876   28.2727   64.4114 C   0  0  0  0  0
    3.1303   28.6117   65.0472 C   0  0  0  0  0
    3.1993   29.8913   65.8133 C   0  0  0  0  0
    3.4457   31.1093   65.1630 C   0  0  0  0  0
    3.4948   32.2988   65.8962 C   0  0  0  0  0
    3.2936   32.2761   67.2795 C   0  0  0  0  0
    3.0448   31.0636   67.9297 C   0  0  0  0  0
    2.9974   29.8734   67.1972 C   0  0  0  0  0
    1.7675   29.3546   59.4057 O   0  0  0  0  0
    4.1716   29.3693   56.3878 O   0  0  0  0  0
    1.1468   26.9980   62.0663 O   0  0  0  0  0
    0.9616   26.3582   64.5931 O   0  0  0  0  0
    3.3785   26.2687   63.5831 O   0  0  0  0  0
    2.1007   28.6661   64.0932 O   0  0  0  0  0
   -0.4352   26.6753   59.2047 O   0  0  0  0  0
   -0.0103   28.1958   57.1356 O   0  0  0  0  0
    2.1032   29.9810   57.1407 N   0  0  0  0  0
    3.2182   31.1898   55.4439 N   0  0  0  0  0
    2.2430   33.1399   54.4231 N   0  0  0  0  0
    1.8663   27.0536   63.6022 P   0  0  0  0  0
    2.8497   31.0424   69.2691 F   0  0  0  0  0
    3.7317   33.4744   65.2658 F   0  0  0  0  0
  2  1  1  0  0  0
  2  3  1  0  0  0
  2 27  1  0  0  0
  3  4  1  0  0  0
  3 26  1  0  0  0
  4 20  1  0  0  0
  4 10  1  0  0  0
  5 20  1  0  0  0
  5 28  1  0  0  0
  5  2  1  0  0  0
  7  8  1  0  0  0
  8 30  1  0  0  0
  9 29  1  0  0  0
  9 28  1  0  0  0
 10 22  1  0  0  0
 11 24  1  0  0  0
 11 12  1  0  0  0
 12 13  1  0  0  0
 13 25  1  0  0  0
 13 14  1  0  0  0
 15 16  1  0  0  0
 16 33  1  0  0  0
 17 18  1  0  0  0
 18 32  1  0  0  0
 19 14  1  0  0  0
 28  6  1  0  0  0
 31 22  1  0  0  0
 31 24  1  0  0  0
 31 25  1  0  0  0
  6  7  2  0  0  0
  8 29  2  0  0  0
  9 21  2  0  0  0
 14 15  2  0  0  0
 16 17  2  0  0  0
 18 19  2  0  0  0
 31 23  2  0  0  0
M  END
> <rmsd>
0.718759954

$$$$
PubChem-159282394 PubChem-59795926


 26 28  0  0  0  0  0  0  0  0999 V2000
   -0.1616   27.6999   54.6900 C   0  0  0  0  0
    0.9806   28.6045   55.1013 C   0  0  0  0  0
    2.6984   29.6103   58.6384 C   0  0  0  0  0
    1.6952   29.8524   60.5920 C   0  0  0  0  0
    1.4363   31.0862   61.4171 C   0  0  0  0  0
    0.8599   30.5240   62.6711 C   0  0  0  0  0
    0.2525   29.2154   62.2143 C   0  0  0  0  0
   -0.4219   27.4731   63.8963 C   0  0  0  0  0
    1.4529   26.6672   64.4854 C   0  0  0  0  0
    1.6778   27.6350   63.5718 C   0  0  0  0  0
    3.9806   27.2906   63.6827 C   0  0  0  0  0
    2.5184   25.9692   65.0351 C   0  0  0  0  0
    3.3779   24.2376   66.5570 C   0  0  0  0  0
    3.8988   27.5490   56.5787 C   0  0  0  0  0
    5.0332   26.8187   55.8921 C   0  0  0  0  0
    1.0821   28.6214   56.4936 O   0  0  0  0  0
    2.2796   30.9544   56.3250 O   0  0  0  0  0
    1.5608   30.1530   59.2366 O   0  0  0  0  0
    0.7716   28.8552   60.9548 O   0  0  0  0  0
    2.3044   24.9657   65.9809 O   0  0  0  0  0
    3.8364   28.8612   56.1062 O   0  0  0  0  0
    2.4654   29.5437   56.8384 P   0  0  0  0  0
    0.5084   28.1601   63.1870 N   0  0  0  0  0
    0.1335   26.5359   64.7169 N   0  0  0  0  0
    2.9209   27.9702   63.1491 N   0  0  0  0  0
    3.7777   26.3031   64.6140 N   0  0  0  0  0
  1  2  1  0  0  0
  2 16  1  0  0  0
  3 18  1  0  0  0
  4 18  1  0  0  0
  4  5  1  0  0  0
  4 19  1  0  0  0
  5  6  1  0  0  0
  6  7  1  0  0  0
  7 19  1  0  0  0
  7 23  1  0  0  0
  9 24  1  0  0  0
 10 25  1  0  0  0
 10 23  1  0  0  0
 11 26  1  0  0  0
 12 20  1  0  0  0
 12  9  1  0  0  0
 13 20  1  0  0  0
 14 21  1  0  0  0
 14 15  1  0  0  0
 22 16  1  0  0  0
 22  3  1  0  0  0
 22 21  1  0  0  0
 23  8  1  0  0  0
  8 24  2  0  0  0
  9 10  2  0  0  0
 11 25  2  0  0  0
 12 26  2  0  0  0
 22 17  2  0  0  0
M  END
> <rmsd>
0.68258363

$$$$
PubChem-163571080


 18 17  0  0  0  0  0  0  0  0999 V2000
    1.7077   28.7204   54.6545 C   0  0  0  0  0
    2.5958   28.6508   55.8967 C   0  0  0  0  0
    2.9019   27.1897   56.1994 C   0  0  0  0  0
    1.8534   29.2485   57.0940 C   0  0  0  0  0
    1.7504   27.6844   59.7967 C   0  0  0  0  0
    1.5604   27.6998   61.2994 C   0  0  0  0  0
    2.6860   26.9290   61.9574 C   0  0  0  0  0
    0.6460   28.5796   57.3319 O   0  0  0  0  0
   -0.8757   27.9312   59.3291 O   0  0  0  0  0
    0.4076   30.0070   59.5111 O   0  0  0  0  0
    2.5355   28.3531   64.2320 O   0  0  0  0  0
    3.5736   26.1357   64.3591 O   0  0  0  0  0
    0.9896   26.2648   64.1205 O   0  0  0  0  0
    3.5777   30.6763   55.3958 O   0  0  0  0  0
    4.5032   28.8652   54.6165 O   0  0  0  0  0
    0.4348   28.5907   59.0047 S   0  0  0  0  0
    2.4757   26.9403   63.7237 S   0  0  0  0  0
    3.8587   29.3822   55.6935 N   0  0  0  0  0
  1  2  1  0  0  0
  2  3  1  0  0  0
  2  4  1  0  0  0
  2 18  1  0  0  0
  4  8  1  0  0  0
  5  6  1  0  0  0
  6  7  1  0  0  0
  7 17  1  0  0  0
 16  8  1  0  0  0
 16  5  1  0  0  0
 17 13  1  0  0  0
 18 14  1  0  0  0
 18 15  1  0  0  0
 16  9  2  0  0  0
 16 10  2  0  0  0
 17 11  2  0  0  0
 17 12  2  0  0  0
M  CHG  1  15  -1
M  END
> <rmsd>
0.797629356

$$$$
PubChem-57199227 PubChem-88628530


 31 33  0  0  0  0  0  0  0  0999 V2000
    4.6478   30.7929   62.1296 C   0  0  0  0  0
    3.3495   29.5248   60.7387 C   0  0  0  0  0
    4.1495   29.5620   59.5452 C   0  0  0  0  0
    2.1307   29.4651   59.8781 C   0  0  0  0  0
    2.7209   27.9318   62.6311 C   0  0  0  0  0
    2.9836   26.6096   63.3397 C   0  0  0  0  0
    2.0011   26.3535   64.4710 C   0  0  0  0  0
    2.8310   25.4842   62.3258 C   0  0  0  0  0
    1.6719   25.3868   61.5325 C   0  0  0  0  0
    1.5285   24.3531   60.6035 C   0  0  0  0  0
    2.5391   23.4006   60.4568 C   0  0  0  0  0
    3.6925   23.4801   61.2402 C   0  0  0  0  0
    3.8367   24.5138   62.1694 C   0  0  0  0  0
    4.5125   27.6189   64.7815 C   0  0  0  0  0
    5.6088   27.2529   65.7188 C   0  0  0  0  0
    5.3370   27.1191   67.0841 C   0  0  0  0  0
    6.3632   26.7836   67.9730 C   0  0  0  0  0
    7.6629   26.5834   67.4970 C   0  0  0  0  0
    7.9370   26.7198   66.1325 C   0  0  0  0  0
    6.9111   27.0559   65.2435 C   0  0  0  0  0
    3.3895   30.7066   61.5113 O   0  0  0  0  0
    0.8899   29.4088   60.0838 O   0  0  0  0  0
    3.2332   30.7511   56.3665 O   0  0  0  0  0
    3.4581   28.3029   56.3713 O   0  0  0  0  0
    1.0870   29.3190   56.6640 O   0  0  0  0  0
    1.8135   28.7122   63.0317 O   0  0  0  0  0
    0.7944   26.3242   64.2804 O   0  0  0  0  0
    4.3135   26.5827   63.8459 O   0  0  0  0  0
    2.9917   29.4988   58.6788 N   0  0  0  0  0
    3.5361   28.2965   61.5113 N   0  0  0  0  0
    2.7308   29.4717   56.9726 S   0  0  0  0  0
  1 21  1  0  0  0
  2 21  1  0  0  0
  2  3  1  0  0  0
  2 30  1  0  0  0
  2  4  1  0  0  0
  3 29  1  0  0  0
  6  5  1  0  0  0
  6  7  1  0  0  0
  6  8  1  0  0  0
  6 28  1  0  0  0
  9 10  1  0  0  0
 11 12  1  0  0  0
 13  8  1  0  0  0
 14 28  1  0  0  0
 14 15  1  0  0  0
 16 17  1  0  0  0
 18 19  1  0  0  0
 20 15  1  0  0  0
 29  4  1  0  0  0
 30  5  1  0  0  0
 31 29  1  0  0  0
 31 25  1  0  0  0
  4 22  2  0  0  0
  5 26  2  0  0  0
  7 27  2  0  0  0
  8  9  2  0  0  0
 10 11  2  0  0  0
 12 13  2  0  0  0
 15 16  2  0  0  0
 17 18  2  0  0  0
 19 20  2  0  0  0
 31 23  2  0  0  0
 31 24  2  0  0  0
M  END
> <rmsd>
0.74196583

$$$$
PubChem-158797864


 24 26  0  0  0  0  0  0  0  0999 V2000
    5.1775   28.8005   63.5482 C   0  0  0  0  0
    3.9008   28.0445   63.6301 C   0  0  0  0  0
    2.7366   26.0529   64.2440 C   0  0  0  0  0
    1.5676   26.6416   63.7845 C   0  0  0  0  0
    1.6009   27.8930   63.2724 C   0  0  0  0  0
   -0.3882   27.1626   63.1758 C   0  0  0  0  0
   -0.0345   29.4828   62.2255 C   0  0  0  0  0
    0.2028   29.3828   60.7575 C   0  0  0  0  0
    1.6956   29.5466   58.9183 C   0  0  0  0  0
    0.6887   29.1387   58.0320 C   0  0  0  0  0
   -0.5782   28.8477   58.5422 C   0  0  0  0  0
   -0.8266   28.9659   59.9104 C   0  0  0  0  0
    2.2930   29.0594   54.1723 C   0  0  0  0  0
    3.8919   26.7765   64.1563 N   0  0  0  0  0
    2.7432   28.6161   63.1785 N   0  0  0  0  0
    0.3724   28.2493   62.8849 N   0  0  0  0  0
    0.3171   26.1428   63.7400 N   0  0  0  0  0
    1.4345   29.6562   60.2484 N   0  0  0  0  0
    2.7428   24.7369   64.7858 N   0  0  0  0  0
   -2.2634   27.0495   62.8280 Br  0  0  0  0  0
    0.9155   29.0137   56.6583 O   0  0  0  0  0
    2.8128   30.7692   56.1681 O   0  0  0  0  0
    3.4747   28.4272   56.4919 O   0  0  0  0  0
    2.4246   29.3385   55.9219 S   0  0  0  0  0
  1  2  1  0  0  0
  2 15  1  0  0  0
  3 14  1  0  0  0
  3 19  1  0  0  0
  4  5  1  0  0  0
  4 17  1  0  0  0
  5 16  1  0  0  0
  6 20  1  0  0  0
  7 16  1  0  0  0
  7  8  1  0  0  0
  9 18  1  0  0  0
 10 11  1  0  0  0
 10 21  1  0  0  0
 12  8  1  0  0  0
 16  6  1  0  0  0
 24 21  1  0  0  0
 24 13  1  0  0  0
  2 14  2  0  0  0
  3  4  2  0  0  0
  5 15  2  0  0  0
  6 17  2  0  0  0
  8 18  2  0  0  0
  9 10  2  0  0  0
 11 12  2  0  0  0
 24 22  2  0  0  0
 24 23  2  0  0  0
M  END
> <rmsd>
0.722391903

$$$$
PubChem-102001245


 21 22  0  0  0  0  0  0  0  0999 V2000
    0.0133   27.7977   62.1643 C   0  0  0  0  0
    1.1234   28.8192   62.4093 C   0  0  0  0  0
    0.7267   29.8656   63.4215 C   0  0  0  0  0
    0.3475   29.6984   64.7579 C   0  0  0  0  0
   -0.0385   30.8270   65.4969 C   0  0  0  0  0
   -0.0630   32.0970   64.8932 C   0  0  0  0  0
    0.2893   32.2468   63.5437 C   0  0  0  0  0
    0.6765   31.1125   62.8318 C   0  0  0  0  0
    1.2476   29.7030   61.1905 C   0  0  0  0  0
    1.5971   29.2607   59.9842 C   0  0  0  0  0
    0.9931   31.0830   61.4544 N   0  0  0  0  0
    1.7110   30.1346   58.9095 O   0  0  0  0  0
    1.1386   28.5431   56.8851 O   0  0  0  0  0
    2.2403   30.8355   56.2743 O   0  0  0  0  0
    3.6777   28.8014   57.4638 O   0  0  0  0  0
    2.3922   28.2236   62.6417 O   0  0  0  0  0
    3.4547   26.1952   63.9166 O   0  0  0  0  0
    3.0298   28.3307   65.3412 O   0  0  0  0  0
    0.9749   26.6697   64.5497 O   0  0  0  0  0
    2.1626   29.5459   57.3652 P   0  0  0  0  0
    2.4697   27.3262   64.1012 P   0  0  0  0  0
  1  2  1  0  0  0
  2  3  1  0  0  0
  2 16  1  0  0  0
  2  9  1  0  0  0
  4  5  1  0  0  0
  6  7  1  0  0  0
  8 11  1  0  0  0
  8  3  1  0  0  0
 10 12  1  0  0  0
 11  9  1  0  0  0
 20 12  1  0  0  0
 20 14  1  0  0  0
 20 15  1  0  0  0
 21 16  1  0  0  0
 21 18  1  0  0  0
 21 19  1  0  0  0
  3  4  2  0  0  0
  5  6  2  0  0  0
  7  8  2  0  0  0
  9 10  2  0  0  0
 20 13  2  0  0  0
 21 17  2  0  0  0
M  END
> <rmsd>
0.759376466

$$$$
PubChem-102001245


 21 22  0  0  0  0  0  0  0  0999 V2000
    0.0133   27.7976   62.1644 C   0  0  0  0  0
    1.1234   28.8192   62.4093 C   0  0  0  0  0
    0.7267   29.8656   63.4215 C   0  0  0  0  0
    0.3476   29.6985   64.7579 C   0  0  0  0  0
   -0.0386   30.8270   65.4969 C   0  0  0  0  0
   -0.0629   32.0970   64.8932 C   0  0  0  0  0
    0.2892   32.2468   63.5437 C   0  0  0  0  0
    0.6764   31.1125   62.8319 C   0  0  0  0  0
    1.2476   29.7031   61.1905 C   0  0  0  0  0
    1.5971   29.2608   59.9843 C   0  0  0  0  0
    0.9931   31.0830   61.4543 N   0  0  0  0  0
    1.7110   30.1346   58.9094 O   0  0  0  0  0
    1.1385   28.5431   56.8851 O   0  0  0  0  0
    2.2402   30.8354   56.2743 O   0  0  0  0  0
    3.6778   28.8015   57.4638 O   0  0  0  0  0
    2.3923   28.2236   62.6417 O   0  0  0  0  0
    3.4547   26.1952   63.9165 O   0  0  0  0  0
    0.9750   26.6697   64.5497 O   0  0  0  0  0
    3.0298   28.3307   65.3412 O   0  0  0  0  0
    2.1626   29.5460   57.3652 P   0  0  0  0  0
    2.4696   27.3261   64.1012 P   0  0  0  0  0
  1  2  1  0  0  0
  2  3  1  0  0  0
  2 16  1  0  0  0
  2  9  1  0  0  0
  4  5  1  0  0  0
  6  7  1  0  0  0
  8 11  1  0  0  0
  8  3  1  0  0  0
 10 12  1  0  0  0
 11  9  1  0  0  0
 20 12  1  0  0  0
 20 14  1  0  0  0
 20 15  1  0  0  0
 21 16  1  0  0  0
 21 18  1  0  0  0
 21 19  1  0  0  0
  3  4  2  0  0  0
  5  6  2  0  0  0
  7  8  2  0  0  0
  9 10  2  0  0  0
 20 13  2  0  0  0
 21 17  2  0  0  0
M  END
> <rmsd>
0.759376466

$$$$
PubChem-127046017 PubChem-127047815 CHEMBL3797775 CHEMBL3800690


 30 32  0  0  0  0  0  0  0  0999 V2000
    1.3158   29.5058   59.8727 O   0  0  0  0  0
    1.6476   26.2970   59.6612 O   0  0  0  0  0
    1.7524   25.7607   61.8739 O   0  0  0  0  0
    3.5659   26.7116   63.5248 O   0  0  0  0  0
    1.1962   26.2642   64.5275 O   0  0  0  0  0
    1.6671   28.3717   62.8178 O   0  0  0  0  0
    1.4141   26.2673   56.8985 O   0  0  0  0  0
    4.1525   28.4797   56.7170 O   0  0  0  0  0
    0.7550   29.0647   57.6423 O   0  0  0  0  0
    2.9388   31.0023   55.5386 O   0  0  0  0  0
    0.9902   28.4968   58.9201 C   0  0  0  0  0
    2.0739   27.4000   58.9178 C   0  0  0  0  0
    2.4596   26.2966   60.7962 C   0  0  0  0  0
    2.4570   26.9820   57.4929 C   0  0  0  0  0
    2.7863   28.2095   56.6373 C   0  0  0  0  0
    1.9906   29.4470   57.0846 C   0  0  0  0  0
    1.7476   30.3781   55.9097 C   0  0  0  0  0
    0.3853   30.4327   60.3513 C   0  0  0  0  0
    0.8082   31.4090   61.2569 C   0  0  0  0  0
   -0.0982   32.3471   61.7577 C   0  0  0  0  0
   -1.4452   32.3240   61.3604 C   0  0  0  0  0
   -1.8648   31.3402   60.4503 C   0  0  0  0  0
   -0.9588   30.4020   59.9497 C   0  0  0  0  0
   -2.4065   33.3194   61.8925 C   0  0  0  0  0
   -3.7542   33.2961   61.4950 C   0  0  0  0  0
   -4.6605   34.2344   61.9969 C   0  0  0  0  0
   -4.2298   35.2069   62.9022 C   0  0  0  0  0
   -2.8930   35.2416   63.3057 C   0  0  0  0  0
   -1.9867   34.3032   62.8038 C   0  0  0  0  0
    2.0925   26.7765   63.1887 P   0  0  0  0  0
 11  1  1  0  0  0
 11 12  1  0  0  0
 11  9  1  0  0  0
 12  2  1  0  0  0
 12 14  1  0  0  0
 13  2  1  0  0  0
 13  3  1  0  0  0
 14  7  1  0  0  0
 14 15  1  0  0  0
 15  8  1  0  0  0
 15 16  1  0  0  0
 16  9  1  0  0  0
 16 17  1  0  0  0
 17 10  1  0  0  0
 18  1  1  0  0  0
 19 20  1  0  0  0
 21 22  1  0  0  0
 21 24  1  0  0  0
 23 18  1  0  0  0
 25 26  1  0  0  0
 27 28  1  0  0  0
 29 24  1  0  0  0
 30  3  1  0  0  0
 30  5  1  0  0  0
 30  6  1  0  0  0
 18 19  2  0  0  0
 20 21  2  0  0  0
 22 23  2  0  0  0
 24 25  2  0  0  0
 26 27  2  0  0  0
 28 29  2  0  0  0
 30  4  2  0  0  0
M  END
> <rmsd>
0.677244484

$$$$
PubChem-15483034


 32 33  0  0  0  0  0  0  0  0999 V2000
    7.7461   28.2159   59.5051 C   0  0  0  0  0
    7.0776   26.8695   59.2993 C   0  0  0  0  0
    7.1045   26.0624   60.5876 C   0  0  0  0  0
    6.0954   26.5986   61.5888 C   0  0  0  0  0
    3.9712   27.1366   61.9163 C   0  0  0  0  0
    3.0757   27.9648   60.9868 C   0  0  0  0  0
    2.0318   28.7729   61.7929 C   0  0  0  0  0
    0.6924   28.8426   61.0692 C   0  0  0  0  0
   -0.3815   29.3667   59.2148 C   0  0  0  0  0
   -0.3435   30.0596   57.8659 C   0  0  0  0  0
    0.4019   30.0068   55.7886 C   0  0  0  0  0
    1.6250   29.7955   54.9170 C   0  0  0  0  0
    3.9390   30.0726   54.8135 C   0  0  0  0  0
    4.9592   29.7725   55.8973 C   0  0  0  0  0
    4.6172   29.1953   58.0011 C   0  0  0  0  0
    3.7164   28.3861   58.9091 C   0  0  0  0  0
    1.7641   26.9312   63.1376 C   0  0  0  0  0
    3.1478   26.3005   62.9067 C   0  0  0  0  0
    4.0612   24.8307   64.2902 C   0  0  0  0  0
    4.3394   24.5523   65.7558 C   0  0  0  0  0
    4.5632   23.0669   65.9820 C   0  0  0  0  0
    5.9296   22.6511   65.4695 C   0  0  0  0  0
   -0.0145   25.9136   63.9677 C   0  0  0  0  0
    4.7983   26.2977   61.1658 O   0  0  0  0  0
    0.8164   29.5860   59.8951 O   0  0  0  0  0
    0.6261   29.4671   57.0562 O   0  0  0  0  0
    4.5073   28.7203   56.6948 O   0  0  0  0  0
    3.8543   28.8374   60.2228 O   0  0  0  0  0
    1.8618   28.3357   63.1312 O   0  0  0  0  0
    3.8517   26.1991   64.1107 O   0  0  0  0  0
    1.1994   26.4929   64.3378 O   0  0  0  0  0
    2.7266   30.6007   55.4144 N   0  0  0  0  0
  1  2  1  0  0  0
  2  3  1  0  0  0
  3  4  1  0  0  0
  4 24  1  0  0  0
  5 24  1  0  0  0
  5  6  1  0  0  0
  6  7  1  0  0  0
  6 28  1  0  0  0
  7  8  1  0  0  0
  7 29  1  0  0  0
  8 25  1  0  0  0
  9 25  1  0  0  0
  9 10  1  0  0  0
 10 26  1  0  0  0
 11 26  1  0  0  0
 11 12  1  0  0  0
 12 32  1  0  0  0
 13 32  1  0  0  0
 13 14  1  0  0  0
 14 27  1  0  0  0
 15 27  1  0  0  0
 15 16  1  0  0  0
 16 28  1  0  0  0
 17 29  1  0  0  0
 17 18  1  0  0  0
 17 31  1  0  0  0
 18 30  1  0  0  0
 18  5  1  0  0  0
 19 30  1  0  0  0
 19 20  1  0  0  0
 20 21  1  0  0  0
 21 22  1  0  0  0
 23 31  1  0  0  0
M  END
> <rmsd>
0.638693571

$$$$
PubChem-102384238


 22 22  0  0  0  0  0  0  0  0999 V2000
    2.3898   25.9423   55.6875 C   0  0  0  0  0
    1.5619   26.3003   52.4853 C   0  0  0  0  0
    0.7551   28.7090   54.6538 C   0  0  0  0  0
    1.0959   29.3580   55.9913 C   0  0  0  0  0
    2.4690   29.9887   55.9780 C   0  0  0  0  0
    3.0386   29.6541   57.3225 C   0  0  0  0  0
    1.9614   28.8319   57.9978 C   0  0  0  0  0
    1.4194   28.8223   60.1422 C   0  0  0  0  0
    1.1435   29.6859   61.3610 C   0  0  0  0  0
    1.0585   28.8271   62.6138 C   0  0  0  0  0
    1.9168   27.1635   54.2174 As  0  0  0  0  0
    3.3607   27.8919   53.9165 O   0  0  0  0  0
    1.0184   28.4242   57.0374 O   0  0  0  0  0
    1.3314   29.5955   58.9833 O   0  0  0  0  0
    2.2857   28.2072   62.8729 O   0  0  0  0  0
    1.2553   26.9778   64.9363 O   0  0  0  0  0
    3.1701   25.9522   63.8069 O   0  0  0  0  0
    0.8679   25.8540   62.6174 O   0  0  0  0  0
    2.1456   30.6472   61.5061 O   0  0  0  0  0
    4.1815   28.8726   57.1564 O   0  0  0  0  0
    2.3468   31.3717   55.8495 O   0  0  0  0  0
    1.9057   26.7369   63.6024 S   0  0  0  0  0
  1 11  1  0  0  0
  4  3  1  0  0  0
  4  5  1  0  0  0
  4 13  1  0  0  0
  5  6  1  0  0  0
  5 21  1  0  0  0
  6  7  1  0  0  0
  6 20  1  0  0  0
  7 13  1  0  0  0
  7 14  1  0  0  0
  8 14  1  0  0  0
  9  8  1  0  0  0
  9 10  1  0  0  0
  9 19  1  0  0  0
 10 15  1  0  0  0
 11  2  1  0  0  0
 11  3  1  0  0  0
 22 15  1  0  0  0
 22 18  1  0  0  0
 11 12  2  0  0  0
 22 16  2  0  0  0
 22 17  2  0  0  0
M  CHG  1  18  -1
M  END
> <rmsd>
0.696191728

$$$$
PubChem-12985634


 22 22  0  0  0  0  0  0  0  0999 V2000
    2.2091   29.9019   63.3030 C   0  0  0  0  0
    2.3308   28.6356   62.4695 C   0  0  0  0  0
    3.6831   28.6800   61.7453 C   0  0  0  0  0
    4.5272   28.1010   59.6572 C   0  0  0  0  0
    3.7985   27.7066   58.3903 C   0  0  0  0  0
    3.5894   28.0978   56.0840 C   0  0  0  0  0
    2.6212   29.2237   55.7061 C   0  0  0  0  0
    1.4836   29.2753   56.7024 C   0  0  0  0  0
    0.1954   30.5491   58.4847 C   0  0  0  0  0
    0.1689   29.4726   59.5578 C   0  0  0  0  0
    1.1776   28.5838   61.4583 C   0  0  0  0  0
    2.0639   28.8991   54.3278 C   0  0  0  0  0
    3.3863   30.5520   55.6177 C   0  0  0  0  0
    3.8187   27.5747   60.8079 N   0  0  0  0  0
    4.3725   28.4272   57.2686 N   0  0  0  0  0
    1.3442   30.3820   57.6027 N   0  0  0  0  0
    1.2389   29.6908   60.5142 N   0  0  0  0  0
    2.2450   27.4733   63.3629 N   0  0  0  0  0
    0.6580   28.3215   56.7510 O   0  0  0  0  0
    2.5565   31.5898   55.1832 O   0  0  0  0  0
    1.2011   27.2660   64.0169 O   0  0  0  0  0
    3.3192   26.6310   63.5448 O   0  0  0  0  0
  1  2  1  0  0  0
  2  3  1  0  0  0
  2 18  1  0  0  0
  3 14  1  0  0  0
  4 14  1  0  0  0
  4  5  1  0  0  0
  5 15  1  0  0  0
  6 15  1  0  0  0
  6  7  1  0  0  0
  7  8  1  0  0  0
  7 12  1  0  0  0
  7 13  1  0  0  0
  8 16  1  0  0  0
  9 16  1  0  0  0
  9 10  1  0  0  0
 10 17  1  0  0  0
 11 17  1  0  0  0
 11  2  1  0  0  0
 13 20  1  0  0  0
 18 22  1  0  0  0
  8 19  2  0  0  0
 18 21  2  0  0  0
M  CHG  2  18   1  22  -1
M  END
> <rmsd>
0.841046572

$$$$
PubChem-155268124


 32 35  0  0  0  0  0  0  0  0999 V2000
    1.4827   31.0357   62.8274 C   0  0  0  0  0
    0.6964   30.3191   63.8775 C   0  0  0  0  0
    0.1373   29.1061   63.1603 C   0  0  0  0  0
    1.0123   30.4020   61.5449 C   0  0  0  0  0
    2.1558   30.3668   60.5489 C   0  0  0  0  0
    2.8546   29.5190   58.6360 C   0  0  0  0  0
    1.7969   27.3935   63.9573 C   0  0  0  0  0
    4.1150   27.2578   63.7366 C   0  0  0  0  0
    2.9326   25.5310   64.8912 C   0  0  0  0  0
    1.7580   26.2238   64.6372 C   0  0  0  0  0
    0.4273   25.9903   64.9344 C   0  0  0  0  0
    4.1303   23.5550   65.9397 C   0  0  0  0  0
    4.9041   24.2536   67.0067 C   0  0  0  0  0
    6.0680   24.9562   66.6760 C   0  0  0  0  0
    6.7849   25.6304   67.6684 C   0  0  0  0  0
    6.3393   25.6034   68.9937 C   0  0  0  0  0
    5.1769   24.9008   69.3264 C   0  0  0  0  0
    4.4589   24.2268   68.3334 C   0  0  0  0  0
    5.3610   27.7945   63.2690 C   0  0  0  0  0
    0.5783   29.0965   61.8242 O   0  0  0  0  0
    1.6986   29.8981   59.3180 O   0  0  0  0  0
    3.7688   29.0347   56.1222 O   0  0  0  0  0
    1.2626   28.4024   56.5326 O   0  0  0  0  0
    2.0889   31.0297   56.3302 O   0  0  0  0  0
    2.5241   29.4818   56.8539 P   0  0  0  0  0
    0.5547   27.8800   63.8304 N   0  0  0  0  0
    2.9511   27.9336   63.4958 N   0  0  0  0  0
    4.0998   26.0715   64.4255 N   0  0  0  0  0
   -0.2821   27.0317   64.4188 N   0  0  0  0  0
    2.9195   24.2983   65.6165 N   0  0  0  0  0
    6.3660   28.2270   62.8924 N   0  0  0  0  0
    8.2372   26.5123   67.2492 Cl  0  0  0  0  0
  1  2  1  0  0  0
  2  3  1  0  0  0
  3 20  1  0  0  0
  3 26  1  0  0  0
  4 20  1  0  0  0
  4  5  1  0  0  0
  4  1  1  0  0  0
  5 21  1  0  0  0
  6 21  1  0  0  0
  6 25  1  0  0  0
  8 27  1  0  0  0
  8 19  1  0  0  0
  9 28  1  0  0  0
  9 30  1  0  0  0
 10 11  1  0  0  0
 10  7  1  0  0  0
 12 30  1  0  0  0
 12 13  1  0  0  0
 14 15  1  0  0  0
 15 32  1  0  0  0
 16 17  1  0  0  0
 18 13  1  0  0  0
 25 23  1  0  0  0
 25 24  1  0  0  0
 26  7  1  0  0  0
 26 29  1  0  0  0
  7 27  2  0  0  0
  8 28  2  0  0  0
  9 10  2  0  0  0
 11 29  2  0  0  0
 13 14  2  0  0  0
 15 16  2  0  0  0
 17 18  2  0  0  0
 25 22  2  0  0  0
 19 31  3  0  0  0
M  END
> <rmsd>
0.720995605

$$$$
PubChem-146472799


 34 38  0  0  0  0  0  0  0  0999 V2000
    1.9880   22.7578   66.6715 C   0  0  0  0  0
    3.4642   22.6203   66.3238 C   0  0  0  0  0
    3.8888   23.9467   65.7147 C   0  0  0  0  0
    1.4800   23.9771   65.9252 C   0  0  0  0  0
    2.6201   25.8709   64.6460 C   0  0  0  0  0
    3.7655   27.4961   63.3114 C   0  0  0  0  0
    1.4813   27.7373   63.7031 C   0  0  0  0  0
    1.4508   26.6090   64.4475 C   0  0  0  0  0
   -0.5077   27.4437   64.4091 C   0  0  0  0  0
   -0.1824   29.5076   63.0140 C   0  0  0  0  0
    0.3359   30.7153   63.7700 C   0  0  0  0  0
    1.3316   31.3130   62.8154 C   0  0  0  0  0
    0.8903   30.7815   61.4779 C   0  0  0  0  0
    2.0953   30.6149   60.5704 C   0  0  0  0  0
    2.8081   29.6193   58.7362 C   0  0  0  0  0
    4.7554   24.7171   66.6678 C   0  0  0  0  0
    6.0735   25.0131   66.3023 C   0  0  0  0  0
    6.8979   25.7388   67.1681 C   0  0  0  0  0
    6.4067   26.1724   68.4033 C   0  0  0  0  0
    5.0907   25.8806   68.7739 C   0  0  0  0  0
    4.2658   25.1551   67.9090 C   0  0  0  0  0
    2.6580   24.6671   65.4343 N   0  0  0  0  0
    3.7621   26.3475   64.0604 N   0  0  0  0  0
    2.6134   28.2059   63.1262 N   0  0  0  0  0
    0.2039   26.3955   64.9113 N   0  0  0  0  0
    0.2563   28.2760   63.6600 N   0  0  0  0  0
    0.2630   29.5387   61.6757 O   0  0  0  0  0
    1.6796   30.2107   59.3016 O   0  0  0  0  0
    3.7839   28.7872   56.3366 O   0  0  0  0  0
    1.2036   28.4859   56.6511 O   0  0  0  0  0
    2.3431   30.9698   56.2552 O   0  0  0  0  0
    1.2986   32.7100   62.8252 O   0  0  0  0  0
   -0.7298   31.5891   64.0049 O   0  0  0  0  0
    2.5666   29.4431   56.9473 P   0  0  0  0  0
  1  2  1  0  0  0
  2  3  1  0  0  0
  3 22  1  0  0  0
  3 16  1  0  0  0
  4 22  1  0  0  0
  4  1  1  0  0  0
  6 23  1  0  0  0
  7 24  1  0  0  0
  8 25  1  0  0  0
  8  5  1  0  0  0
  9 26  1  0  0  0
 10 26  1  0  0  0
 10 11  1  0  0  0
 10 27  1  0  0  0
 11 12  1  0  0  0
 11 33  1  0  0  0
 12 13  1  0  0  0
 12 32  1  0  0  0
 13 27  1  0  0  0
 13 14  1  0  0  0
 14 28  1  0  0  0
 15 28  1  0  0  0
 15 34  1  0  0  0
 17 18  1  0  0  0
 19 20  1  0  0  0
 21 16  1  0  0  0
 22  5  1  0  0  0
 26  7  1  0  0  0
 34 30  1  0  0  0
 34 31  1  0  0  0
  5 23  2  0  0  0
  6 24  2  0  0  0
  7  8  2  0  0  0
  9 25  2  0  0  0
 16 17  2  0  0  0
 18 19  2  0  0  0
 20 21  2  0  0  0
 34 29  2  0  0  0
M  END
> <rmsd>
0.585777283

$$$$
PubChem-130375796


 28 32  0  0  0  0  0  0  0  0999 V2000
    5.7080   26.4047   61.8275 C   0  0  0  0  0
    6.4922   27.7254   61.8801 C   0  0  0  0  0
    6.1581   28.4650   63.1852 C   0  0  0  0  0
    4.6477   28.7560   63.2521 C   0  0  0  0  0
    4.2652   29.6373   62.0496 C   0  0  0  0  0
    4.5789   28.9003   60.7317 C   0  0  0  0  0
    6.0866   28.6020   60.6843 C   0  0  0  0  0
    3.8123   27.5628   60.6826 C   0  0  0  0  0
    4.1958   26.6885   61.8901 C   0  0  0  0  0
    3.8508   27.4259   63.2058 C   0  0  0  0  0
    2.0545   27.4551   64.5410 C   0  0  0  0  0
    3.1891   26.7400   65.2328 C   0  0  0  0  0
    2.6767   25.3465   65.6298 C   0  0  0  0  0
    0.9762   26.4480   64.5502 C   0  0  0  0  0
    2.9437   30.1788   59.3322 C   0  0  0  0  0
    2.7005   30.9721   58.0879 C   0  0  0  0  0
    2.4661   27.6961   63.2322 O   0  0  0  0  0
    4.2149   26.6113   64.2990 O   0  0  0  0  0
    1.3426   25.2761   65.1661 O   0  0  0  0  0
   -0.1650   26.6309   64.0519 O   0  0  0  0  0
    4.2373   29.7136   59.6086 O   0  0  0  0  0
    1.9782   29.8917   60.0921 O   0  0  0  0  0
    2.1889   30.6724   55.4667 O   0  0  0  0  0
    1.1782   29.0406   56.9914 O   0  0  0  0  0
    3.7256   28.8567   56.5102 O   0  0  0  0  0
    1.6042   31.7994   58.2580 F   0  0  0  0  0
    3.8091   31.7514   57.8110 F   0  0  0  0  0
    2.4017   29.8697   56.7190 S   0  0  0  0  0
  1  2  1  0  0  0
  2  3  1  0  0  0
  3  4  1  0  0  0
  4  5  1  0  0  0
  5  6  1  0  0  0
  6  7  1  0  0  0
  6  8  1  0  0  0
  6 21  1  0  0  0
  7  2  1  0  0  0
  8  9  1  0  0  0
  9 10  1  0  0  0
  9  1  1  0  0  0
 10 17  1  0  0  0
 10  4  1  0  0  0
 10 18  1  0  0  0
 11 17  1  0  0  0
 11 12  1  0  0  0
 11 14  1  0  0  0
 12 18  1  0  0  0
 12 13  1  0  0  0
 13 19  1  0  0  0
 14 19  1  0  0  0
 15 21  1  0  0  0
 16 15  1  0  0  0
 16 26  1  0  0  0
 16 27  1  0  0  0
 16 28  1  0  0  0
 28 25  1  0  0  0
 14 20  2  0  0  0
 15 22  2  0  0  0
 28 23  2  0  0  0
 28 24  2  0  0  0
M  END
> <rmsd>
0.682783008

$$$$
PubChem-130375796


 28 32  0  0  0  0  0  0  0  0999 V2000
    6.1702   28.4016   63.2232 C   0  0  0  0  0
    6.5016   27.6517   61.9232 C   0  0  0  0  0
    5.7023   26.3400   61.8735 C   0  0  0  0  0
    4.1933   26.6417   61.9275 C   0  0  0  0  0
    3.8256   27.5144   60.7141 C   0  0  0  0  0
    4.6075   28.8431   60.7600 C   0  0  0  0  0
    6.1119   28.5270   60.7213 C   0  0  0  0  0
    4.2965   29.5902   62.0729 C   0  0  0  0  0
    4.6630   28.7106   63.2815 C   0  0  0  0  0
    3.8508   27.3895   63.2380 C   0  0  0  0  0
    2.0490   27.4465   64.5646 C   0  0  0  0  0
    3.1718   26.7216   65.2652 C   0  0  0  0  0
    2.6413   25.3361   65.6667 C   0  0  0  0  0
    0.9587   26.4521   64.5737 C   0  0  0  0  0
    2.9940   30.1338   59.3468 C   0  0  0  0  0
    2.7661   30.9254   58.0980 C   0  0  0  0  0
    2.4692   27.6761   63.2567 O   0  0  0  0  0
    4.2003   26.5763   64.3369 O   0  0  0  0  0
    1.3086   25.2790   65.1970 O   0  0  0  0  0
   -0.1778   26.6459   64.0691 O   0  0  0  0  0
    4.2808   29.6547   59.6315 O   0  0  0  0  0
    2.0216   29.8611   60.1032 O   0  0  0  0  0
    3.6354   28.9155   56.5299 O   0  0  0  0  0
    1.2314   28.9980   57.0099 O   0  0  0  0  0
    2.2077   30.7268   55.3354 O   0  0  0  0  0
    1.6807   31.7681   58.2614 F   0  0  0  0  0
    3.8855   31.6890   57.8217 F   0  0  0  0  0
    2.4552   29.8243   56.7302 S   0  0  0  0  0
  1  2  1  0  0  0
  2  3  1  0  0  0
  3  4  1  0  0  0
  4  5  1  0  0  0
  5  6  1  0  0  0
  6  7  1  0  0  0
  6  8  1  0  0  0
  6 21  1  0  0  0
  7  2  1  0  0  0
  8  9  1  0  0  0
  9 10  1  0  0  0
  9  1  1  0  0  0
 10 17  1  0  0  0
 10  4  1  0  0  0
 10 18  1  0  0  0
 11 17  1  0  0  0
 11 12  1  0  0  0
 11 14  1  0  0  0
 12 18  1  0  0  0
 12 13  1  0  0  0
 13 19  1  0  0  0
 14 19  1  0  0  0
 15 21  1  0  0  0
 16 15  1  0  0  0
 16 26  1  0  0  0
 16 27  1  0  0  0
 16 28  1  0  0  0
 28 25  1  0  0  0
 14 20  2  0  0  0
 15 22  2  0  0  0
 28 23  2  0  0  0
 28 24  2  0  0  0
M  END
> <rmsd>
0.696870685

$$$$
PubChem-130375796


 28 32  0  0  0  0  0  0  0  0999 V2000
    6.1701   28.4011   63.2230 C   0  0  0  0  0
    6.5014   27.6512   61.9230 C   0  0  0  0  0
    5.7021   26.3395   61.8732 C   0  0  0  0  0
    4.1930   26.6414   61.9274 C   0  0  0  0  0
    3.8255   27.5143   60.7139 C   0  0  0  0  0
    4.6075   28.8429   60.7599 C   0  0  0  0  0
    6.1119   28.5266   60.7211 C   0  0  0  0  0
    4.2966   29.5900   62.0728 C   0  0  0  0  0
    4.6630   28.7103   63.2814 C   0  0  0  0  0
    3.8506   27.3894   63.2379 C   0  0  0  0  0
    2.0488   27.4463   64.5645 C   0  0  0  0  0
    3.1717   26.7214   65.2651 C   0  0  0  0  0
    2.6410   25.3360   65.6665 C   0  0  0  0  0
    0.9585   26.4521   64.5734 C   0  0  0  0  0
    2.9941   30.1338   59.3467 C   0  0  0  0  0
    2.7662   30.9254   58.0981 C   0  0  0  0  0
    2.4691   27.6761   63.2566 O   0  0  0  0  0
    4.2001   26.5760   64.3367 O   0  0  0  0  0
    1.3083   25.2790   65.1969 O   0  0  0  0  0
   -0.1780   26.6460   64.0689 O   0  0  0  0  0
    4.2808   29.6546   59.6313 O   0  0  0  0  0
    2.0216   29.8611   60.1031 O   0  0  0  0  0
    1.2316   28.9983   57.0094 O   0  0  0  0  0
    3.6357   28.9155   56.5300 O   0  0  0  0  0
    2.2085   30.7270   55.3353 O   0  0  0  0  0
    3.8856   31.6892   57.8219 F   0  0  0  0  0
    1.6808   31.7681   58.2614 F   0  0  0  0  0
    2.4556   29.8244   56.7300 S   0  0  0  0  0
  1  2  1  0  0  0
  2  3  1  0  0  0
  3  4  1  0  0  0
  4  5  1  0  0  0
  5  6  1  0  0  0
  6  7  1  0  0  0
  6  8  1  0  0  0
  6 21  1  0  0  0
  7  2  1  0  0  0
  8  9  1  0  0  0
  9 10  1  0  0  0
  9  1  1  0  0  0
 10 17  1  0  0  0
 10  4  1  0  0  0
 10 18  1  0  0  0
 11 17  1  0  0  0
 11 12  1  0  0  0
 11 14  1  0  0  0
 12 18  1  0  0  0
 12 13  1  0  0  0
 13 19  1  0  0  0
 14 19  1  0  0  0
 15 21  1  0  0  0
 16 15  1  0  0  0
 16 26  1  0  0  0
 16 27  1  0  0  0
 16 28  1  0  0  0
 28 25  1  0  0  0
 14 20  2  0  0  0
 15 22  2  0  0  0
 28 23  2  0  0  0
 28 24  2  0  0  0
M  END
> <rmsd>
0.696551502

$$$$
PubChem-132225789


 21 20  0  0  0  0  0  0  0  0999 V2000
    5.8755   28.5649   59.5220 C   0  0  0  0  0
    5.9278   27.2341   58.7973 C   0  0  0  0  0
    7.1096   27.2368   57.8515 C   0  0  0  0  0
    4.6527   27.0112   58.0005 C   0  0  0  0  0
    3.5457   26.4357   58.8753 C   0  0  0  0  0
    3.0815   27.4979   61.0844 C   0  0  0  0  0
    1.8279   27.0224   61.7976 C   0  0  0  0  0
    2.0182   28.4492   59.0094 C   0  0  0  0  0
    1.6744   28.3300   57.5521 C   0  0  0  0  0
    1.6430   29.6863   56.8580 C   0  0  0  0  0
    2.8789   27.4832   59.6415 N   0  0  0  0  0
    0.3806   27.6866   57.4119 N   0  0  0  0  0
    2.0795   27.0694   63.5575 S   0  0  0  0  0
    3.2887   30.2758   56.5037 S   0  0  0  0  0
    3.1982   26.1398   63.9343 O   0  0  0  0  0
    0.8185   26.6378   64.2505 O   0  0  0  0  0
    2.4676   28.6338   64.0312 O   0  0  0  0  0
    1.4983   29.3720   59.6957 O   0  0  0  0  0
    4.0181   30.5626   57.7854 O   0  0  0  0  0
    4.0427   29.2412   55.7169 O   0  0  0  0  0
    3.1825   31.6881   55.6014 O   0  0  0  0  0
  1  2  1  0  0  0
  2  3  1  0  0  0
  2  4  1  0  0  0
  4  5  1  0  0  0
  5 11  1  0  0  0
  6 11  1  0  0  0
  6  7  1  0  0  0
  7 13  1  0  0  0
  9  8  1  0  0  0
  9 10  1  0  0  0
  9 12  1  0  0  0
 10 14  1  0  0  0
 11  8  1  0  0  0
 13 17  1  0  0  0
 14 21  1  0  0  0
  8 18  2  0  0  0
 13 15  2  0  0  0
 13 16  2  0  0  0
 14 19  2  0  0  0
 14 20  2  0  0  0
M  END
> <rmsd>
0.765591264

$$$$
PubChem-164942903


 31 34  0  0  0  0  0  0  0  0999 V2000
    0.4811   29.4217   54.2926 C   0  0  0  0  0
    1.1636   28.3582   55.1615 C   0  0  0  0  0
    0.8744   30.8353   54.7505 C   0  0  0  0  0
    0.5964   31.8421   53.6831 C   0  0  0  0  0
    1.2802   31.8061   52.4615 C   0  0  0  0  0
    0.9972   32.7699   51.4912 C   0  0  0  0  0
   -0.6061   33.7867   52.9173 C   0  0  0  0  0
   -0.3520   32.8412   53.9135 C   0  0  0  0  0
    1.8102   30.6050   59.2972 C   0  0  0  0  0
    2.0148   28.8535   60.8801 C   0  0  0  0  0
    1.4125   31.0173   61.6198 C   0  0  0  0  0
    1.4698   31.4932   60.3122 C   0  0  0  0  0
    1.5893   29.2983   63.3009 C   0  0  0  0  0
    0.2779   28.6136   63.6334 C   0  0  0  0  0
    0.6747   27.7712   64.8045 C   0  0  0  0  0
    2.1631   27.5120   64.5781 C   0  0  0  0  0
    2.4530   26.1166   64.0336 C   0  0  0  0  0
    1.1868   28.7345   56.5139 O   0  0  0  0  0
    3.6939   29.4835   56.7985 O   0  0  0  0  0
    2.2191   30.9030   55.1516 O   0  0  0  0  0
    2.2632   27.6402   61.1126 O   0  0  0  0  0
    2.6711   28.4785   63.6825 O   0  0  0  0  0
    3.8297   25.8959   64.0042 O   0  0  0  0  0
   -0.0866   26.5999   64.8908 O   0  0  0  0  0
    2.2949   30.0230   56.6049 P   0  0  0  0  0
    0.0675   33.7320   51.7366 N   0  0  0  0  0
    1.8737   31.0699   57.9483 N   0  0  0  0  0
    2.0740   29.3065   59.6005 N   0  0  0  0  0
    1.6856   29.7136   61.8975 N   0  0  0  0  0
   -0.1811   27.8331   62.5827 F   0  0  0  0  0
   -0.6799   29.5402   63.9988 F   0  0  0  0  0
  1  2  1  0  0  0
  2 18  1  0  0  0
  3 20  1  0  0  0
  3  4  1  0  0  0
  3  1  1  0  0  0
  5  6  1  0  0  0
  7 26  1  0  0  0
  8  4  1  0  0  0
 10 28  1  0  0  0
 10 29  1  0  0  0
 12  9  1  0  0  0
 13 29  1  0  0  0
 13 14  1  0  0  0
 13 22  1  0  0  0
 14 15  1  0  0  0
 14 30  1  0  0  0
 14 31  1  0  0  0
 15 16  1  0  0  0
 15 24  1  0  0  0
 16 22  1  0  0  0
 16 17  1  0  0  0
 17 23  1  0  0  0
 25 18  1  0  0  0
 25 20  1  0  0  0
 25 27  1  0  0  0
 27  9  1  0  0  0
 29 11  1  0  0  0
  4  5  2  0  0  0
  6 26  2  0  0  0
  7  8  2  0  0  0
  9 28  2  0  0  0
 10 21  2  0  0  0
 11 12  2  0  0  0
 25 19  2  0  0  0
M  END
> <rmsd>
0.75296551

$$$$
PubChem-144985393


 30 32  0  0  0  0  0  0  0  0999 V2000
    3.7093   32.6862   53.6455 C   0  0  0  0  0
    2.5442   31.8758   54.1727 C   0  0  0  0  0
    2.1464   30.0862   55.8133 C   0  0  0  0  0
   -0.0402   29.2050   56.2024 C   0  0  0  0  0
    1.7767   28.3654   57.4049 C   0  0  0  0  0
    2.6241   29.2054   56.7725 C   0  0  0  0  0
    3.7363   28.0845   58.1876 C   0  0  0  0  0
    1.9517   26.6606   59.2829 C   0  0  0  0  0
    2.8852   25.4577   59.3137 C   0  0  0  0  0
    1.8919   27.2829   60.6952 C   0  0  0  0  0
    1.0961   28.6140   60.8130 C   0  0  0  0  0
    0.8117   28.9026   62.3028 C   0  0  0  0  0
    1.4248   26.9373   65.5433 C   0  0  0  0  0
    1.8813   25.9057   66.5550 C   0  0  0  0  0
    0.2640   27.7229   66.1195 C   0  0  0  0  0
    1.0831   30.8010   60.1092 C   0  0  0  0  0
    3.0094   30.9633   55.1551 O   0  0  0  0  0
    1.9225   28.6114   63.1085 O   0  0  0  0  0
    3.4399   26.4772   63.3568 O   0  0  0  0  0
    1.4599   26.3325   61.6388 O   0  0  0  0  0
    1.0178   26.2943   64.3718 O   0  0  0  0  0
    1.8790   29.6535   60.2607 O   0  0  0  0  0
    0.6835   26.2049   58.9106 O   0  0  0  0  0
    0.8045   30.0631   55.5451 N   0  0  0  0  0
    0.4455   28.3457   57.1484 N   0  0  0  0  0
    3.8748   29.0547   57.2410 N   0  0  0  0  0
    2.4561   27.6344   58.3027 N   0  0  0  0  0
   -1.4300   29.2125   55.9017 N   0  0  0  0  0
    2.0078   26.9131   63.1393 P   0  0  0  0  0
   -0.1196   28.4827   60.1508 F   0  0  0  0  0
  1  2  1  0  0  0
  2 17  1  0  0  0
  3 17  1  0  0  0
  4 24  1  0  0  0
  4 28  1  0  0  0
  5 25  1  0  0  0
  6 26  1  0  0  0
  6  3  1  0  0  0
  7 27  1  0  0  0
  8 27  1  0  0  0
  8  9  1  0  0  0
  8 10  1  0  0  0
  8 23  1  0  0  0
 10 11  1  0  0  0
 10 20  1  0  0  0
 11 12  1  0  0  0
 11 22  1  0  0  0
 11 30  1  0  0  0
 12 18  1  0  0  0
 13 21  1  0  0  0
 13 14  1  0  0  0
 13 15  1  0  0  0
 16 22  1  0  0  0
 27  5  1  0  0  0
 29 18  1  0  0  0
 29 20  1  0  0  0
 29 21  1  0  0  0
  3 24  2  0  0  0
  4 25  2  0  0  0
  5  6  2  0  0  0
  7 26  2  0  0  0
 29 19  2  0  0  0
M  END
> <rmsd>
0.734654069

$$$$
PubChem-91480648


 14 13  0  0  0  0  0  0  0  0999 V2000
    0.8208   27.7569   61.0995 C   0  0  0  0  0
    0.6942   27.7608   59.5848 C   0  0  0  0  0
    1.6701   28.7457   58.9560 C   0  0  0  0  0
    1.7299   28.5378   57.4448 C   0  0  0  0  0
    2.8857   29.2804   56.8493 C   0  0  0  0  0
    2.0900   27.0384   61.5219 C   0  0  0  0  0
    4.0623   28.9702   57.1718 O   0  0  0  0  0
    2.6737   30.3037   55.9327 O   0  0  0  0  0
    0.5289   28.9301   56.8454 O   0  0  0  0  0
    1.2907   30.0570   59.2576 O   0  0  0  0  0
    1.0668   26.3811   63.9203 O   0  0  0  0  0
    2.3103   28.4918   63.7734 O   0  0  0  0  0
    3.6559   26.2699   63.7382 O   0  0  0  0  0
    2.2470   27.0690   63.2942 S   0  0  0  0  0
  1  2  1  0  0  0
  1  6  1  0  0  0
  2  3  1  0  0  0
  3  4  1  0  0  0
  3 10  1  0  0  0
  4  5  1  0  0  0
  4  9  1  0  0  0
  5  8  1  0  0  0
  6 14  1  0  0  0
 14 13  1  0  0  0
  5  7  2  0  0  0
 14 11  2  0  0  0
 14 12  2  0  0  0
M  END
> <rmsd>
0.644417584

$$$$
PubChem-159951177 PubChem-160447311 PubChem-59616428 PubChem-91051662


 33 38  0  0  0  0  0  0  0  0999 V2000
    0.2951   28.3272   65.1314 C   0  0  0  0  0
    1.4181   26.9036   63.6607 C   0  0  0  0  0
    2.2640   25.6562   63.6531 C   0  0  0  0  0
    2.3977   24.8674   62.3276 C   0  0  0  0  0
    3.6151   23.9292   62.4292 C   0  0  0  0  0
    3.4415   22.9576   63.6118 C   0  0  0  0  0
    2.1742   22.1180   63.3935 C   0  0  0  0  0
    0.9495   23.0399   63.2999 C   0  0  0  0  0
    1.1381   24.0061   62.1182 C   0  0  0  0  0
    0.8157   23.8404   64.6078 C   0  0  0  0  0
    2.0781   24.6902   64.8443 C   0  0  0  0  0
    3.2972   23.7523   64.9222 C   0  0  0  0  0
    0.7298   27.2501   62.3541 C   0  0  0  0  0
    1.3408   28.1016   61.4212 C   0  0  0  0  0
    0.7026   28.4173   60.2184 C   0  0  0  0  0
   -0.5666   27.8810   59.9501 C   0  0  0  0  0
   -1.1852   27.0383   60.8764 C   0  0  0  0  0
   -0.5396   26.7249   62.0744 C   0  0  0  0  0
    0.8183   29.5830   58.0272 C   0  0  0  0  0
    1.6011   30.7526   57.4037 C   0  0  0  0  0
    2.0254   30.4274   55.9712 C   0  0  0  0  0
    2.7205   29.0589   55.8915 C   0  0  0  0  0
    2.0895   28.0630   56.8720 C   0  0  0  0  0
    2.1057   26.6679   56.2766 C   0  0  0  0  0
    0.5624   26.9822   64.7925 O   0  0  0  0  0
    3.3652   26.4979   63.8510 O   0  0  0  0  0
    2.6182   27.6082   63.8529 O   0  0  0  0  0
    1.3499   29.2620   59.3114 O   0  0  0  0  0
    0.7685   28.4362   57.1944 O   0  0  0  0  0
    1.7043   25.7398   57.2374 O   0  0  0  0  0
    4.0822   29.1784   56.1797 O   0  0  0  0  0
    2.8427   31.4370   55.4575 O   0  0  0  0  0
    0.8088   31.9004   57.4169 O   0  0  0  0  0
  1 25  1  0  0  0
  2 25  1  0  0  0
  2  3  1  0  0  0
  2 13  1  0  0  0
  2 27  1  0  0  0
  3  4  1  0  0  0
  3 26  1  0  0  0
  4  5  1  0  0  0
  6  5  1  0  0  0
  6  7  1  0  0  0
  8  7  1  0  0  0
  8  9  1  0  0  0
  8 10  1  0  0  0
  9  4  1  0  0  0
 11 10  1  0  0  0
 11 12  1  0  0  0
 11  3  1  0  0  0
 12  6  1  0  0  0
 14 15  1  0  0  0
 15 28  1  0  0  0
 16 17  1  0  0  0
 18 13  1  0  0  0
 19 28  1  0  0  0
 19 20  1  0  0  0
 19 29  1  0  0  0
 20 21  1  0  0  0
 20 33  1  0  0  0
 21 22  1  0  0  0
 21 32  1  0  0  0
 22 23  1  0  0  0
 22 31  1  0  0  0
 23 29  1  0  0  0
 23 24  1  0  0  0
 24 30  1  0  0  0
 26 27  1  0  0  0
 13 14  2  0  0  0
 15 16  2  0  0  0
 17 18  2  0  0  0
M  END
> <rmsd>
0.575958967

$$$$
PubChem-59946480 PubChem-90716965


 24 24  0  0  0  0  0  0  0  0999 V2000
   -1.6760   21.6339   57.9680 C   0  0  0  0  0
   -1.1166   23.9525   58.2564 C   0  0  0  0  0
   -0.8277   25.1738   57.6272 C   0  0  0  0  0
   -0.5484   26.3081   58.3940 C   0  0  0  0  0
   -0.5487   26.2506   59.7961 C   0  0  0  0  0
   -0.8415   25.0285   60.4199 C   0  0  0  0  0
   -1.1219   23.8912   59.6597 C   0  0  0  0  0
   -0.0329   28.7223   59.9486 C   0  0  0  0  0
    1.3567   28.7686   59.3394 C   0  0  0  0  0
   -0.3299   27.4066   62.0363 C   0  0  0  0  0
    0.9096   26.7435   62.6076 C   0  0  0  0  0
   -1.4034   22.7927   57.4617 N   0  0  0  0  0
   -0.2592   27.4281   60.5805 N   0  0  0  0  0
    1.5298   29.9763   58.6613 O   0  0  0  0  0
    3.5098   28.9301   57.3122 O   0  0  0  0  0
    2.2871   30.8038   56.3187 O   0  0  0  0  0
    1.1199   28.4894   56.3728 O   0  0  0  0  0
    0.8449   26.7562   64.0017 O   0  0  0  0  0
    2.8095   28.4765   64.0908 O   0  0  0  0  0
    2.4564   27.0136   66.0222 O   0  0  0  0  0
    3.4872   25.9693   63.8846 O   0  0  0  0  0
    2.1545   29.5608   57.1521 S   0  0  0  0  0
    2.4115   27.0924   64.5224 S   0  0  0  0  0
   -0.8087   25.3126   55.8778 Cl  0  0  0  0  0
  2 12  1  0  0  0
  3  4  1  0  0  0
  3 24  1  0  0  0
  5  6  1  0  0  0
  5 13  1  0  0  0
  7  2  1  0  0  0
  8 13  1  0  0  0
  8  9  1  0  0  0
  9 14  1  0  0  0
 10 13  1  0  0  0
 10 11  1  0  0  0
 11 18  1  0  0  0
 22 14  1  0  0  0
 22 17  1  0  0  0
 23 18  1  0  0  0
 23 21  1  0  0  0
  1 12  2  0  0  0
  2  3  2  0  0  0
  4  5  2  0  0  0
  6  7  2  0  0  0
 22 15  2  0  0  0
 22 16  2  0  0  0
 23 19  2  0  0  0
 23 20  2  0  0  0
M  END
> <rmsd>
0.829993665

$$$$
PubChem-135348967


 35 39  0  0  0  0  0  0  0  0999 V2000
    2.2121   24.4917   62.7468 C   0  0  0  0  0
    3.3448   25.4442   62.4185 C   0  0  0  0  0
    3.2317   27.5356   61.6316 C   0  0  0  0  0
    1.9117   28.2852   61.7305 C   0  0  0  0  0
    2.9369   28.5928   63.7086 C   0  0  0  0  0
    3.7865   27.5480   63.0048 C   0  0  0  0  0
    3.3670   28.9706   66.1560 C   0  0  0  0  0
    2.0694   27.5564   67.0755 C   0  0  0  0  0
    1.9409   27.4454   65.7313 C   0  0  0  0  0
    0.3245   25.7632   65.9399 C   0  0  0  0  0
    0.4291   25.8388   67.3480 C   0  0  0  0  0
    1.3220   26.7588   67.9371 C   0  0  0  0  0
    0.7004   26.0676   70.2906 C   0  0  0  0  0
    1.0381   26.4577   71.6858 C   0  0  0  0  0
    0.3003   27.4566   72.3309 C   0  0  0  0  0
    0.6297   27.8382   73.6353 C   0  0  0  0  0
    1.7000   27.2249   74.2937 C   0  0  0  0  0
    2.4426   26.2317   73.6471 C   0  0  0  0  0
    2.1137   25.8500   72.3426 C   0  0  0  0  0
    1.9090   29.4881   60.8013 C   0  0  0  0  0
    2.1091   30.2211   58.7293 C   0  0  0  0  0
    4.5887   24.6274   62.1115 C   0  0  0  0  0
    2.9908   26.2047   61.2898 O   0  0  0  0  0
    1.6978   28.7033   63.0572 O   0  0  0  0  0
    3.5854   26.2705   63.5288 O   0  0  0  0  0
    1.8969   29.0617   59.4733 O   0  0  0  0  0
    2.5727   31.0403   56.1769 O   0  0  0  0  0
    3.7383   28.7981   56.8553 O   0  0  0  0  0
    1.0158   28.9504   56.4089 O   0  0  0  0  0
    2.7566   28.3228   65.1330 N   0  0  0  0  0
    2.9659   28.5152   67.3767 N   0  0  0  0  0
    1.0831   26.5750   65.1428 N   0  0  0  0  0
    1.4580   26.8845   69.3548 N   0  0  0  0  0
   -0.7864   24.6242   65.2120 Cl  0  0  0  0  0
    2.3693   29.7821   56.9891 P   0  0  0  0  0
  1  2  1  0  0  0
  2 23  1  0  0  0
  2 22  1  0  0  0
  2 25  1  0  0  0
  3 23  1  0  0  0
  3  4  1  0  0  0
  4 24  1  0  0  0
  4 20  1  0  0  0
  5 24  1  0  0  0
  5  6  1  0  0  0
  5 30  1  0  0  0
  6 25  1  0  0  0
  6  3  1  0  0  0
  8 31  1  0  0  0
  9 32  1  0  0  0
  9 30  1  0  0  0
 10 11  1  0  0  0
 10 34  1  0  0  0
 12 33  1  0  0  0
 12  8  1  0  0  0
 13 33  1  0  0  0
 13 14  1  0  0  0
 15 16  1  0  0  0
 17 18  1  0  0  0
 19 14  1  0  0  0
 20 26  1  0  0  0
 21 26  1  0  0  0
 21 35  1  0  0  0
 30  7  1  0  0  0
 35 28  1  0  0  0
 35 29  1  0  0  0
  7 31  2  0  0  0
  8  9  2  0  0  0
 10 32  2  0  0  0
 11 12  2  0  0  0
 14 15  2  0  0  0
 16 17  2  0  0  0
 18 19  2  0  0  0
 35 27  2  0  0  0
M  END
> <rmsd>
0.773984194

$$$$
