PubChem-102022205


 34 38  0  0  0  0  0  0  0  0999 V2000
    3.9508   32.8140   65.1288 C   0  0  0  0  0
    3.8171   31.3800   65.6183 C   0  0  0  0  0
    5.1684   30.7331   65.8224 C   0  0  0  0  0
    4.9215   29.2379   65.7268 C   0  0  0  0  0
    3.5628   29.0605   65.0497 C   0  0  0  0  0
    3.0498   30.4553   64.6824 C   0  0  0  0  0
    3.2816   30.7646   63.1921 C   0  0  0  0  0
    2.8512   29.6199   62.2325 C   0  0  0  0  0
    4.0865   28.9218   61.6404 C   0  0  0  0  0
    4.7706   28.3635   62.9146 C   0  0  0  0  0
    3.5753   28.0604   63.8666 C   0  0  0  0  0
    2.3544   28.3232   62.9202 C   0  0  0  0  0
    2.4316   27.3476   61.7643 C   0  0  0  0  0
    3.4698   27.7004   60.9961 C   0  0  0  0  0
    1.5307   26.1633   61.5337 C   0  0  0  0  0
    0.5734   26.4216   60.3886 C   0  0  0  0  0
    2.3235   24.8964   61.2653 C   0  0  0  0  0
    0.9967   28.3740   63.5862 C   0  0  0  0  0
    3.6543   26.6609   64.4249 C   0  0  0  0  0
    1.9294   30.3025   61.1875 C   0  0  0  0  0
    1.9068   29.9053   59.0024 C   0  0  0  0  0
    2.0620   28.7366   58.0198 C   0  0  0  0  0
    2.6614   29.2551   56.7127 C   0  0  0  0  0
    1.9374   30.5250   56.2409 C   0  0  0  0  0
    1.7710   31.5055   57.4116 C   0  0  0  0  0
    1.0131   32.7393   56.9587 C   0  0  0  0  0
    0.2497   29.3794   63.4580 O   0  0  0  0  0
    0.5513   27.2869   64.3293 O   0  0  0  0  0
    3.9157   25.7036   63.7153 O   0  0  0  0  0
    1.3945   29.4458   60.2201 O   0  0  0  0  0
    1.0579   30.8878   58.4561 O   0  0  0  0  0
    2.6421   31.1200   55.1917 O   0  0  0  0  0
    4.0251   29.5039   56.8923 O   0  0  0  0  0
    0.8211   28.1475   57.7673 O   0  0  0  0  0
  2  1  1  0  0  0
  2  3  1  0  0  0
  3  4  1  0  0  0
  5  4  1  0  0  0
  5  6  1  0  0  0
  6  7  1  0  0  0
  6  2  1  0  0  0
  7  8  1  0  0  0
  8  9  1  0  0  0
  8 20  1  0  0  0
  9 10  1  0  0  0
  9 14  1  0  0  0
 10 11  1  0  0  0
 11 12  1  0  0  0
 11 19  1  0  0  0
 11  5  1  0  0  0
 12 13  1  0  0  0
 12 18  1  0  0  0
 12  8  1  0  0  0
 15 13  1  0  0  0
 15 16  1  0  0  0
 15 17  1  0  0  0
 18 28  1  0  0  0
 20 30  1  0  0  0
 21 30  1  0  0  0
 21 22  1  0  0  0
 21 31  1  0  0  0
 22 23  1  0  0  0
 22 34  1  0  0  0
 23 24  1  0  0  0
 23 33  1  0  0  0
 24 25  1  0  0  0
 24 32  1  0  0  0
 25 31  1  0  0  0
 25 26  1  0  0  0
 13 14  2  0  0  0
 18 27  2  0  0  0
 19 29  2  0  0  0
M  END
> <rmsd>
0.708369493

$$$$
PubChem-21847294


 20 21  0  0  0  0  0  0  0  0999 V2000
    3.8685   30.5244   59.2088 C   0  0  0  0  0
    4.2308   30.6331   60.6671 C   0  0  0  0  0
    3.8514   29.7215   61.5645 C   0  0  0  0  0
    4.2306   29.8769   62.9709 C   0  0  0  0  0
    3.8355   28.9825   63.8788 C   0  0  0  0  0
    2.9808   27.7794   63.5430 C   0  0  0  0  0
    2.6638   27.6549   62.0694 C   0  0  0  0  0
    3.0451   28.5535   61.1603 C   0  0  0  0  0
    2.7104   28.3370   59.7157 C   0  0  0  0  0
    2.6164   29.6690   58.9639 C   0  0  0  0  0
    1.4856   30.3679   59.3929 O   0  0  0  0  0
    3.6678   28.5864   56.7311 O   0  0  0  0  0
    1.2271   28.5342   56.9568 O   0  0  0  0  0
    2.3557   30.8012   56.3843 O   0  0  0  0  0
    3.6587   26.6300   63.9475 O   0  0  0  0  0
    0.6994   29.1272   64.0376 O   0  0  0  0  0
    1.7310   27.9482   65.9237 O   0  0  0  0  0
    0.5032   26.5385   64.1224 O   0  0  0  0  0
    2.4649   29.3459   57.2166 S   0  0  0  0  0
    1.4470   27.8896   64.4490 S   0  0  0  0  0
  1  2  1  0  0  0
  3  4  1  0  0  0
  6  5  1  0  0  0
  6  7  1  0  0  0
  6 15  1  0  0  0
  6 20  1  0  0  0
  8  3  1  0  0  0
  9  8  1  0  0  0
  9 10  1  0  0  0
 10 11  1  0  0  0
 10 19  1  0  0  0
 10  1  1  0  0  0
 19 14  1  0  0  0
 20 18  1  0  0  0
  2  3  2  0  0  0
  4  5  2  0  0  0
  7  8  2  0  0  0
 19 12  2  0  0  0
 19 13  2  0  0  0
 20 16  2  0  0  0
 20 17  2  0  0  0
M  END
> <rmsd>
0.609120786

$$$$
PubChem-101588986


 29 30  0  0  0  0  0  0  0  0999 V2000
    5.1408   29.7647   59.4348 C   0  0  0  0  0
    3.8535   28.9713   59.5830 C   0  0  0  0  0
    3.0740   29.4900   60.6687 C   0  0  0  0  0
    2.0453   29.9194   59.6697 C   0  0  0  0  0
    1.7349   28.5921   62.6197 C   0  0  0  0  0
    1.2381   27.4198   63.3778 C   0  0  0  0  0
   -0.7122   28.7801   66.1195 C   0  0  0  0  0
    1.6313   26.0483   62.9360 C   0  0  0  0  0
    5.0887   25.8134   64.0396 C   0  0  0  0  0
    5.1514   24.8229   65.1324 C   0  0  0  0  0
    4.0191   24.1490   65.6138 C   0  0  0  0  0
    4.1340   23.2236   66.6549 C   0  0  0  0  0
    5.3808   22.9597   67.2293 C   0  0  0  0  0
    6.5155   23.6334   66.7502 C   0  0  0  0  0
    6.3980   24.5584   65.7089 C   0  0  0  0  0
    6.6910   21.6955   68.9036 C   0  0  0  0  0
    0.9254   30.4907   59.7282 O   0  0  0  0  0
    2.5462   30.6627   56.2962 O   0  0  0  0  0
    4.0395   28.7207   56.3037 O   0  0  0  0  0
    1.4827   28.2889   56.4546 O   0  0  0  0  0
    1.4432   29.7655   62.9777 O   0  0  0  0  0
    0.0901   28.7399   64.9540 O   0  0  0  0  0
    2.7731   25.6102   63.6551 O   0  0  0  0  0
    5.4642   22.0294   68.2687 O   0  0  0  0  0
    2.8939   29.3913   58.5848 N   0  0  0  0  0
    2.5582   28.3881   61.4675 N   0  0  0  0  0
    0.4992   27.5298   64.4414 N   0  0  0  0  0
    4.0123   26.1525   63.3953 N   0  0  0  0  0
    2.7674   29.2898   56.8651 S   0  0  0  0  0
  2  1  1  0  0  0
  2  3  1  0  0  0
  2 25  1  0  0  0
  3  4  1  0  0  0
  3 26  1  0  0  0
  4 25  1  0  0  0
  5  6  1  0  0  0
  7 22  1  0  0  0
  8  6  1  0  0  0
  8 23  1  0  0  0
  9 10  1  0  0  0
 11 12  1  0  0  0
 13 14  1  0  0  0
 13 24  1  0  0  0
 15 10  1  0  0  0
 16 24  1  0  0  0
 23 28  1  0  0  0
 26  5  1  0  0  0
 27 22  1  0  0  0
 29 25  1  0  0  0
 29 20  1  0  0  0
  4 17  2  0  0  0
  5 21  2  0  0  0
  6 27  2  0  0  0
  9 28  2  0  0  0
 10 11  2  0  0  0
 12 13  2  0  0  0
 14 15  2  0  0  0
 29 18  2  0  0  0
 29 19  2  0  0  0
M  END
> <rmsd>
0.750512481

$$$$
PubChem-101588991


 28 29  0  0  0  0  0  0  0  0999 V2000
    4.6558   30.8542   59.5180 C   0  0  0  0  0
    3.7161   29.6712   59.6780 C   0  0  0  0  0
    2.7339   29.9500   60.6850 C   0  0  0  0  0
    1.6898   29.9283   59.6113 C   0  0  0  0  0
    1.7830   28.7690   62.5754 C   0  0  0  0  0
    1.6860   27.5417   63.4027 C   0  0  0  0  0
   -0.6137   28.3602   66.0878 C   0  0  0  0  0
    2.5009   26.3419   63.0390 C   0  0  0  0  0
    5.3719   26.7010   65.2240 C   0  0  0  0  0
    6.4819   26.8987   64.2383 C   0  0  0  0  0
    5.6553   26.7100   66.6753 C   0  0  0  0  0
    4.6171   26.5297   67.6038 C   0  0  0  0  0
    4.8829   26.5389   68.9762 C   0  0  0  0  0
    6.1891   26.7288   69.4337 C   0  0  0  0  0
    7.2299   26.9094   68.5192 C   0  0  0  0  0
    6.9641   26.9002   67.1467 C   0  0  0  0  0
    0.4402   30.0741   59.5760 O   0  0  0  0  0
    3.8394   28.4243   56.5555 O   0  0  0  0  0
    3.0792   30.7355   56.2174 O   0  0  0  0  0
    1.2880   28.8552   56.3820 O   0  0  0  0  0
    0.1662   28.5129   64.9164 O   0  0  0  0  0
    3.8442   26.5133   63.4630 O   0  0  0  0  0
    1.0284   29.8981   62.8867 O   0  0  0  0  0
    2.7402   29.6651   58.6097 N   0  0  0  0  0
    2.5815   28.7881   61.5512 N   0  0  0  0  0
    0.9436   27.4703   64.4666 N   0  0  0  0  0
    4.1561   26.5255   64.8050 N   0  0  0  0  0
    2.7786   29.4311   56.8989 S   0  0  0  0  0
  2  1  1  0  0  0
  2  3  1  0  0  0
  2 24  1  0  0  0
  3  4  1  0  0  0
  3 25  1  0  0  0
  4 24  1  0  0  0
  5  6  1  0  0  0
  5 23  1  0  0  0
  7 21  1  0  0  0
  8  6  1  0  0  0
  8 22  1  0  0  0
  9 11  1  0  0  0
 10  9  1  0  0  0
 12 13  1  0  0  0
 14 15  1  0  0  0
 16 11  1  0  0  0
 22 27  1  0  0  0
 26 21  1  0  0  0
 28 24  1  0  0  0
 28 20  1  0  0  0
  4 17  2  0  0  0
  5 25  2  0  0  0
  6 26  2  0  0  0
  9 27  2  0  0  0
 11 12  2  0  0  0
 13 14  2  0  0  0
 15 16  2  0  0  0
 28 18  2  0  0  0
 28 19  2  0  0  0
M  CHG  1  23  -1
M  END
> <rmsd>
0.79169929

$$$$
PubChem-90220078


 25 27  0  0  0  0  0  0  0  0999 V2000
    5.2158   27.8975   59.2508 C   0  0  0  0  0
    4.1388   26.9890   59.8968 C   0  0  0  0  0
    3.6670   27.4743   61.2988 C   0  0  0  0  0
    4.9120   29.4986   61.0467 C   0  0  0  0  0
    4.9687   29.3914   59.5270 C   0  0  0  0  0
    2.8267   29.5093   60.2991 C   0  0  0  0  0
    1.9920   28.9459   63.0255 C   0  0  0  0  0
    2.1524   28.1947   64.3464 C   0  0  0  0  0
    0.8001   27.8480   64.8796 C   0  0  0  0  0
   -0.2443   28.9215   64.8984 C   0  0  0  0  0
    0.9929   30.0934   63.2202 C   0  0  0  0  0
    4.4916   26.8397   62.3872 C   0  0  0  0  0
    3.5907   28.9647   61.3910 N   0  0  0  0  0
    3.6093   29.7273   59.1412 N   0  0  0  0  0
   -0.3225   29.5582   63.5817 N   0  0  0  0  0
    5.8850   27.1101   62.5072 N   0  0  0  0  0
    1.5850   29.7219   60.3333 O   0  0  0  0  0
    3.2997   30.6394   58.1874 O   0  0  0  0  0
    1.6366   28.8545   57.2373 O   0  0  0  0  0
    3.9199   28.9069   56.3299 O   0  0  0  0  0
    2.2824   30.7999   55.6483 O   0  0  0  0  0
    3.2405   29.4681   62.6237 O   0  0  0  0  0
    0.5478   26.7191   65.2657 O   0  0  0  0  0
    3.9487   26.0279   63.1801 O   0  0  0  0  0
    2.7862   29.7439   56.8529 S   0  0  0  0  0
  1  2  1  0  0  0
  2  3  1  0  0  0
  3 13  1  0  0  0
  3 12  1  0  0  0
  5  4  1  0  0  0
  5 14  1  0  0  0
  5  1  1  0  0  0
  7 22  1  0  0  0
  7  8  1  0  0  0
  8  9  1  0  0  0
 10  9  1  0  0  0
 10 15  1  0  0  0
 11 15  1  0  0  0
 11  7  1  0  0  0
 12 16  1  0  0  0
 13  4  1  0  0  0
 13 22  1  0  0  0
 13  6  1  0  0  0
 14  6  1  0  0  0
 14 18  1  0  0  0
 25 18  1  0  0  0
 25 21  1  0  0  0
  6 17  2  0  0  0
  9 23  2  0  0  0
 12 24  2  0  0  0
 25 19  2  0  0  0
 25 20  2  0  0  0
M  CHG  1  13   1
M  END
> <rmsd>
0.787771821

$$$$
PubChem-123788179


 26 26  0  0  0  0  0  0  0  0999 V2000
    4.5911   25.2859   63.7833 C   0  0  0  0  0
    2.7705   25.8161   62.6569 C   0  0  0  0  0
    1.6623   27.2931   60.9614 C   0  0  0  0  0
    1.3756   28.7888   60.9440 C   0  0  0  0  0
    0.0615   29.0654   61.6756 C   0  0  0  0  0
    0.8861   27.3518   63.3351 C   0  0  0  0  0
   -0.9105   28.9921   63.9786 C   0  0  0  0  0
   -1.2624   30.0014   65.9076 C   0  0  0  0  0
    2.2727   30.2165   59.4933 C   0  0  0  0  0
    1.6403   31.5930   59.2337 C   0  0  0  0  0
    3.3699   29.7735   58.5020 C   0  0  0  0  0
    3.7265   26.3478   63.5230 O   0  0  0  0  0
    0.8440   26.8325   64.4843 O   0  0  0  0  0
   -0.2464   29.6188   65.0334 O   0  0  0  0  0
    1.2812   29.2345   59.6233 O   0  0  0  0  0
    1.4710   28.8666   56.7905 O   0  0  0  0  0
    2.6115   30.9547   56.1885 O   0  0  0  0  0
    3.9141   28.7303   55.9327 O   0  0  0  0  0
    1.7756   26.8290   62.3374 N   0  0  0  0  0
    0.0580   28.4845   63.0183 N   0  0  0  0  0
    2.6110   32.5381   58.9569 F   0  0  0  0  0
    0.9548   31.9903   60.3663 F   0  0  0  0  0
    0.7474   31.5300   58.1795 F   0  0  0  0  0
    3.8663   28.5504   58.9149 F   0  0  0  0  0
    4.4132   30.6808   58.5231 F   0  0  0  0  0
    2.7821   29.6006   56.8174 S   0  0  0  0  0
  1 12  1  0  0  0
  2 12  1  0  0  0
  2 19  1  0  0  0
  3 19  1  0  0  0
  3  4  1  0  0  0
  4  5  1  0  0  0
  4 15  1  0  0  0
  5 20  1  0  0  0
  6 19  1  0  0  0
  7 20  1  0  0  0
  7 14  1  0  0  0
  8 14  1  0  0  0
  9 15  1  0  0  0
  9 10  1  0  0  0
  9 11  1  0  0  0
 10 21  1  0  0  0
 10 22  1  0  0  0
 10 23  1  0  0  0
 11 24  1  0  0  0
 11 25  1  0  0  0
 11 26  1  0  0  0
 20  6  1  0  0  0
 26 18  1  0  0  0
  6 13  2  0  0  0
 26 16  2  0  0  0
 26 17  2  0  0  0
M  END
> <rmsd>
0.634400189

$$$$
PubChem-164931936


 31 34  0  0  0  0  0  0  0  0999 V2000
    3.7810   27.8540   61.7042 C   0  0  0  0  0
    3.4927   28.7752   60.5855 C   0  0  0  0  0
    3.8130   28.7112   59.2471 C   0  0  0  0  0
    2.2428   29.2738   60.6609 C   0  0  0  0  0
    1.5176   28.7639   61.8424 C   0  0  0  0  0
    2.3212   27.1835   63.6873 C   0  0  0  0  0
    1.0144   27.2894   64.4167 C   0  0  0  0  0
    1.0118   28.4331   65.3857 C   0  0  0  0  0
    1.7832   28.4134   66.5620 C   0  0  0  0  0
    1.7470   29.5135   67.4203 C   0  0  0  0  0
    0.9527   30.6167   67.1071 C   0  0  0  0  0
    0.2004   30.6026   65.9318 C   0  0  0  0  0
    2.5596   31.0874   56.4312 C   0  0  0  0  0
    2.5088   33.2630   56.4915 C   0  0  0  0  0
    2.5790   32.1512   57.3167 C   0  0  0  0  0
    2.3927   33.6941   54.0458 C   0  0  0  0  0
    3.7802   33.8646   53.4515 C   0  0  0  0  0
    2.7565   29.2528   58.5969 N   0  0  0  0  0
    1.7626   29.5248   59.4339 N   0  0  0  0  0
    2.5328   27.9122   62.4729 N   0  0  0  0  0
    0.2459   29.5231   65.1054 N   0  0  0  0  0
    2.4841   31.5173   55.1620 N   0  0  0  0  0
    2.4478   32.8355   55.2171 N   0  0  0  0  0
    3.2514   26.4792   64.1663 O   0  0  0  0  0
    0.6934   26.0896   65.0566 O   0  0  0  0  0
    1.3590   28.7058   56.4275 O   0  0  0  0  0
    3.8030   28.7476   56.2239 O   0  0  0  0  0
    2.5563   27.3449   66.8783 F   0  0  0  0  0
    4.5878   34.5611   54.3313 F   0  0  0  0  0
    3.6873   34.5652   52.2646 F   0  0  0  0  0
    2.6152   29.3951   56.8791 S   0  0  0  0  0
  1  2  1  0  0  0
  1 20  1  0  0  0
  3 18  1  0  0  0
  4  2  1  0  0  0
  5  4  1  0  0  0
  5 20  1  0  0  0
  7  6  1  0  0  0
  7  8  1  0  0  0
  7 25  1  0  0  0
  8 21  1  0  0  0
  9 10  1  0  0  0
  9 28  1  0  0  0
 11 12  1  0  0  0
 15 13  1  0  0  0
 16 23  1  0  0  0
 16 17  1  0  0  0
 17 29  1  0  0  0
 17 30  1  0  0  0
 18 19  1  0  0  0
 20  6  1  0  0  0
 23 22  1  0  0  0
 23 14  1  0  0  0
 31 18  1  0  0  0
 31 13  1  0  0  0
  2  3  2  0  0  0
  4 19  2  0  0  0
  6 24  2  0  0  0
  8  9  2  0  0  0
 10 11  2  0  0  0
 12 21  2  0  0  0
 13 22  2  0  0  0
 14 15  2  0  0  0
 31 26  2  0  0  0
 31 27  2  0  0  0
M  END
> <rmsd>
0.770347297

$$$$
PubChem-141284486


 28 31  0  0  0  0  0  0  0  0999 V2000
    5.3033   28.7396   57.3811 C   0  0  0  0  0
    5.0009   28.1090   56.0417 C   0  0  0  0  0
    2.9973   28.6591   56.8378 C   0  0  0  0  0
    3.9534   29.0800   57.9370 C   0  0  0  0  0
    2.6765   28.6143   59.9982 C   0  0  0  0  0
    1.3794   27.9765   61.9992 C   0  0  0  0  0
    0.0766   27.5195   61.4092 C   0  0  0  0  0
   -0.3106   26.3341   62.2602 C   0  0  0  0  0
    1.5677   27.0762   63.2011 C   0  0  0  0  0
    3.2455   27.6868   65.0355 C   0  0  0  0  0
    3.4016   28.6236   66.1859 C   0  0  0  0  0
    2.0974   29.4414   66.1785 C   0  0  0  0  0
    1.3312   28.8865   65.0254 C   0  0  0  0  0
    2.0711   31.0038   56.2838 C   0  0  0  0  0
    0.7648   31.7206   56.2200 C   0  0  0  0  0
   -0.2675   30.6468   56.6082 C   0  0  0  0  0
    0.5565   29.4288   56.8572 C   0  0  0  0  0
    3.7175   28.5086   55.6437 O   0  0  0  0  0
    3.7117   28.3141   59.1106 O   0  0  0  0  0
    1.9696   29.6470   59.8326 O   0  0  0  0  0
    2.4411   27.7616   61.0779 O   0  0  0  0  0
    0.3506   26.4404   63.4918 O   0  0  0  0  0
    4.1142   26.8397   64.6987 O   0  0  0  0  0
    0.1890   29.2917   64.6837 O   0  0  0  0  0
    3.1788   31.5419   56.0211 O   0  0  0  0  0
    0.0776   28.3175   57.2046 O   0  0  0  0  0
    2.0199   27.8491   64.3523 N   0  0  0  0  0
    1.9389   29.6480   56.6673 N   0  0  0  0  0
  1  2  1  0  0  0
  2 18  1  0  0  0
  3 18  1  0  0  0
  3  4  1  0  0  0
  3 28  1  0  0  0
  4 19  1  0  0  0
  4  1  1  0  0  0
  5 19  1  0  0  0
  5 21  1  0  0  0
  6 21  1  0  0  0
  6  7  1  0  0  0
  7  8  1  0  0  0
  8 22  1  0  0  0
  9 22  1  0  0  0
  9 27  1  0  0  0
  9  6  1  0  0  0
 11 10  1  0  0  0
 11 12  1  0  0  0
 12 13  1  0  0  0
 13 27  1  0  0  0
 15 14  1  0  0  0
 15 16  1  0  0  0
 16 17  1  0  0  0
 17 28  1  0  0  0
 27 10  1  0  0  0
 28 14  1  0  0  0
  5 20  2  0  0  0
 10 23  2  0  0  0
 13 24  2  0  0  0
 14 25  2  0  0  0
 17 26  2  0  0  0
M  END
> <rmsd>
0.805955112

$$$$
PubChem-122661979


 24 24  0  0  0  0  0  0  0  0999 V2000
   -0.1187   28.9516   67.2086 C   0  0  0  0  0
    0.5539   28.1412   64.9844 C   0  0  0  0  0
    1.2330   27.0922   62.8090 C   0  0  0  0  0
    1.7403   25.9354   62.1778 C   0  0  0  0  0
    1.9053   25.9223   60.7840 C   0  0  0  0  0
    1.6159   27.0604   60.0303 C   0  0  0  0  0
    1.1430   28.2228   60.6478 C   0  0  0  0  0
    0.9490   28.2258   62.0301 C   0  0  0  0  0
    0.8258   29.4548   59.8990 C   0  0  0  0  0
    1.5234   28.8395   56.3833 C   0  0  0  0  0
    2.6695   29.7526   56.1181 C   0  0  0  0  0
    2.7935   24.7636   64.0896 C   0  0  0  0  0
    3.5839   23.5045   66.0496 C   0  0  0  0  0
    0.3190   27.9168   66.3409 O   0  0  0  0  0
    0.3838   29.2916   64.4938 O   0  0  0  0  0
    0.9900   27.0684   64.1934 O   0  0  0  0  0
    1.3966   28.6061   57.7766 O   0  0  0  0  0
    2.4662   30.9804   55.9339 O   0  0  0  0  0
    3.9658   29.2558   56.1111 O   0  0  0  0  0
    2.0495   24.7768   62.9047 O   0  0  0  0  0
    3.4480   25.7814   64.4500 O   0  0  0  0  0
    2.8380   23.5921   64.8451 O   0  0  0  0  0
    0.9483   29.6037   58.6138 N   0  0  0  0  0
    2.5557   24.3668   59.8848 Br  0  0  0  0  0
  1 14  1  0  0  0
  2 14  1  0  0  0
  2 16  1  0  0  0
  3 16  1  0  0  0
  4  5  1  0  0  0
  4 20  1  0  0  0
  5 24  1  0  0  0
  6  7  1  0  0  0
  7  9  1  0  0  0
  8  3  1  0  0  0
 10 17  1  0  0  0
 10 11  1  0  0  0
 11 19  1  0  0  0
 12 20  1  0  0  0
 12 22  1  0  0  0
 13 22  1  0  0  0
 23 17  1  0  0  0
  2 15  2  0  0  0
  3  4  2  0  0  0
  5  6  2  0  0  0
  7  8  2  0  0  0
  9 23  2  0  0  0
 11 18  2  0  0  0
 12 21  2  0  0  0
M  END
> <rmsd>
0.716953337

$$$$
PubChem-90384054


 28 31  0  0  0  0  0  0  0  0999 V2000
    5.3415   29.0237   57.5590 C   0  0  0  0  0
    5.1717   28.3556   56.2146 C   0  0  0  0  0
    3.0854   28.7192   56.8987 C   0  0  0  0  0
    3.9382   29.2388   58.0399 C   0  0  0  0  0
    2.6058   28.6705   60.0395 C   0  0  0  0  0
    1.2798   27.9361   61.9874 C   0  0  0  0  0
    0.0606   27.3490   61.3595 C   0  0  0  0  0
   -0.6631   26.7291   62.5305 C   0  0  0  0  0
    1.4741   27.0670   63.2037 C   0  0  0  0  0
    3.3018   27.6099   64.9116 C   0  0  0  0  0
    3.5942   28.5663   66.0184 C   0  0  0  0  0
    2.3507   29.4726   66.0646 C   0  0  0  0  0
    1.4772   28.9405   64.9791 C   0  0  0  0  0
    1.9744   30.9581   56.2537 C   0  0  0  0  0
    0.6118   31.5436   56.0962 C   0  0  0  0  0
   -0.3346   30.3820   56.4496 C   0  0  0  0  0
    0.5855   29.2538   56.7738 C   0  0  0  0  0
    3.8786   28.6260   55.7456 O   0  0  0  0  0
    3.7092   28.4630   59.2095 O   0  0  0  0  0
    1.8118   29.6281   59.8230 O   0  0  0  0  0
    2.3987   27.8100   61.1190 O   0  0  0  0  0
    0.2387   26.5159   63.5913 O   0  0  0  0  0
    4.0853   26.6917   64.5534 O   0  0  0  0  0
    0.3469   29.4161   64.6935 O   0  0  0  0  0
    3.0395   31.5971   56.0469 O   0  0  0  0  0
    0.1949   28.1079   57.1198 O   0  0  0  0  0
    2.0498   27.8387   64.2993 N   0  0  0  0  0
    1.9496   29.6021   56.6590 N   0  0  0  0  0
  1  2  1  0  0  0
  2 18  1  0  0  0
  3 18  1  0  0  0
  3  4  1  0  0  0
  3 28  1  0  0  0
  4 19  1  0  0  0
  4  1  1  0  0  0
  5 19  1  0  0  0
  5 21  1  0  0  0
  6 21  1  0  0  0
  6  7  1  0  0  0
  7  8  1  0  0  0
  8 22  1  0  0  0
  9 22  1  0  0  0
  9 27  1  0  0  0
  9  6  1  0  0  0
 11 10  1  0  0  0
 11 12  1  0  0  0
 12 13  1  0  0  0
 13 27  1  0  0  0
 15 14  1  0  0  0
 15 16  1  0  0  0
 16 17  1  0  0  0
 17 28  1  0  0  0
 27 10  1  0  0  0
 28 14  1  0  0  0
  5 20  2  0  0  0
 10 23  2  0  0  0
 13 24  2  0  0  0
 14 25  2  0  0  0
 17 26  2  0  0  0
M  END
> <rmsd>
0.709419966

$$$$
PubChem-88447266


 20 19  0  0  0  0  0  0  0  0999 V2000
    1.3336   27.2605   56.9429 C   0  0  0  0  0
    2.0848   29.7078   58.7597 C   0  0  0  0  0
    3.1484   29.3120   59.7247 C   0  0  0  0  0
    2.6959   28.1148   60.5436 C   0  0  0  0  0
    3.7575   27.7377   61.5657 C   0  0  0  0  0
    3.8198   28.7491   62.7050 C   0  0  0  0  0
    2.6166   28.6558   63.5852 C   0  0  0  0  0
    4.0626   28.6762   55.3828 C   0  0  0  0  0
    1.1818   28.5032   56.3248 O   0  0  0  0  0
    2.3273   30.8575   56.3369 O   0  0  0  0  0
   -0.0339   30.6133   58.3571 O   0  0  0  0  0
    0.6631   29.6410   64.4115 O   0  0  0  0  0
    2.3037   27.5911   66.0567 O   0  0  0  0  0
    3.6272   26.0969   64.3703 O   0  0  0  0  0
    0.9004   26.4564   64.1631 O   0  0  0  0  0
    3.9194   28.8148   56.7646 O   0  0  0  0  0
    2.3821   29.4979   56.9981 P   0  0  0  0  0
    2.3590   27.1922   64.5999 P   0  0  0  0  0
    0.9782   30.2193   59.2027 N   0  0  0  0  0
    1.7875   29.6519   63.6179 N   0  0  0  0  0
  1  9  1  0  0  0
  3  2  1  0  0  0
  3  4  1  0  0  0
  4  5  1  0  0  0
  5  6  1  0  0  0
  6  7  1  0  0  0
  8 16  1  0  0  0
 17  9  1  0  0  0
 17  2  1  0  0  0
 17 16  1  0  0  0
 18  7  1  0  0  0
 18 14  1  0  0  0
 18 15  1  0  0  0
 19 11  1  0  0  0
 20 12  1  0  0  0
  2 19  2  0  0  0
  7 20  2  0  0  0
 17 10  2  0  0  0
 18 13  2  0  0  0
M  END
> <rmsd>
0.650824666

$$$$
PubChem-146434807


 36 41  0  0  0  0  0  0  0  0999 V2000
   12.3476   25.3072   65.6424 C   0  0  0  0  0
   11.2536   25.7126   64.6375 C   0  0  0  0  0
   10.1720   26.4151   65.4557 C   0  0  0  0  0
    9.7004   27.7084   64.9092 C   0  0  0  0  0
    8.7842   25.9645   65.2018 C   0  0  0  0  0
    7.1179   27.8098   64.1256 C   0  0  0  0  0
    5.9506   29.6408   63.1314 C   0  0  0  0  0
    4.8191   27.6462   63.5558 C   0  0  0  0  0
    5.9362   27.0810   64.0712 C   0  0  0  0  0
    5.5802   25.8014   64.4586 C   0  0  0  0  0
    2.4261   26.9668   63.1851 C   0  0  0  0  0
    1.7087   27.9029   64.1389 C   0  0  0  0  0
    1.3545   29.0798   63.2706 C   0  0  0  0  0
    1.4439   28.5221   61.8755 C   0  0  0  0  0
    1.8727   29.6165   60.9154 C   0  0  0  0  0
    1.9464   30.2670   58.8094 C   0  0  0  0  0
   10.6242   26.4098   66.8606 C   0  0  0  0  0
    9.9754   26.9228   67.9876 C   0  0  0  0  0
   10.6026   26.7892   69.2354 C   0  0  0  0  0
   11.8525   26.1519   69.3361 C   0  0  0  0  0
   12.4831   25.6436   68.1895 C   0  0  0  0  0
   11.8438   25.7866   66.9578 C   0  0  0  0  0
    8.3198   27.2545   64.6557 N   0  0  0  0  0
    7.0967   29.0896   63.6463 N   0  0  0  0  0
    4.7929   28.9156   63.0835 N   0  0  0  0  0
    4.2614   25.6485   64.1590 N   0  0  0  0  0
    3.8075   26.7689   63.6079 N   0  0  0  0  0
    2.3901   27.4838   61.8745 O   0  0  0  0  0
    1.8775   29.1273   59.6095 O   0  0  0  0  0
    3.5817   29.0995   56.9716 O   0  0  0  0  0
    1.0203   28.7262   56.5794 O   0  0  0  0  0
    2.2270   31.1643   56.1084 O   0  0  0  0  0
    0.0663   29.5578   63.5267 O   0  0  0  0  0
    0.5642   27.2624   64.6214 O   0  0  0  0  0
    2.2390   29.7843   57.0861 P   0  0  0  0  0
    5.9722   31.2816   62.5232 Cl  0  0  0  0  0
  1  2  1  0  0  0
  1 22  1  0  0  0
  2  3  1  0  0  0
  3  4  1  0  0  0
  3 17  1  0  0  0
  4 23  1  0  0  0
  5 23  1  0  0  0
  5  3  1  0  0  0
  7 24  1  0  0  0
  7 36  1  0  0  0
  8 25  1  0  0  0
  9 10  1  0  0  0
  9  6  1  0  0  0
 11 27  1  0  0  0
 11 12  1  0  0  0
 11 28  1  0  0  0
 12 13  1  0  0  0
 12 34  1  0  0  0
 13 14  1  0  0  0
 13 33  1  0  0  0
 14 28  1  0  0  0
 14 15  1  0  0  0
 15 29  1  0  0  0
 16 29  1  0  0  0
 16 35  1  0  0  0
 18 19  1  0  0  0
 20 21  1  0  0  0
 22 17  1  0  0  0
 23  6  1  0  0  0
 27 26  1  0  0  0
 27  8  1  0  0  0
 35 31  1  0  0  0
 35 32  1  0  0  0
  6 24  2  0  0  0
  7 25  2  0  0  0
  8  9  2  0  0  0
 10 26  2  0  0  0
 17 18  2  0  0  0
 19 20  2  0  0  0
 21 22  2  0  0  0
 35 30  2  0  0  0
M  END
> <rmsd>
0.715918481

$$$$
PubChem-163055266


 38 44  0  0  0  0  0  0  0  0999 V2000
    4.1012   25.6532   63.4325 O   0  0  0  0  0
   -0.4192   28.9363   63.8419 O   0  0  0  0  0
    0.6404   27.3839   65.1430 O   0  0  0  0  0
    2.1026   29.8970   59.1829 O   0  0  0  0  0
    1.1401   31.0488   57.3960 O   0  0  0  0  0
    2.0106   31.0983   55.3152 O   0  0  0  0  0
    1.6706   28.8082   53.8061 O   0  0  0  0  0
    0.5618   26.7813   53.9018 O   0  0  0  0  0
    1.1503   28.8007   57.3473 O   0  0  0  0  0
    4.0119   28.8175   57.3117 O   0  0  0  0  0
    3.3743   26.5716   63.7778 C   0  0  0  0  0
    2.7082   27.4576   62.7598 C   0  0  0  0  0
    3.7600   28.1884   61.8972 C   0  0  0  0  0
    3.2951   29.6579   61.9423 C   0  0  0  0  0
    3.7011   30.1447   63.3056 C   0  0  0  0  0
    2.9026   29.5288   64.1821 C   0  0  0  0  0
    2.9490   29.8115   65.6568 C   0  0  0  0  0
    1.7110   30.5569   66.1170 C   0  0  0  0  0
    3.1377   28.5420   66.4631 C   0  0  0  0  0
    1.9360   28.6522   63.4010 C   0  0  0  0  0
    0.6495   28.3343   64.1297 C   0  0  0  0  0
    1.7912   29.5437   62.1893 C   0  0  0  0  0
    0.9226   28.9401   61.0539 C   0  0  0  0  0
    0.8576   29.8524   59.8347 C   0  0  0  0  0
    1.8850   29.9221   57.7891 C   0  0  0  0  0
    0.8641   30.7236   56.0583 C   0  0  0  0  0
    2.8873   30.0113   55.5065 C   0  0  0  0  0
    2.0106   28.8145   55.1895 C   0  0  0  0  0
    0.9358   27.7744   53.2223 C   0  0  0  0  0
    0.5945   27.8452   51.7780 C   0  0  0  0  0
    0.8068   29.1824   56.0378 C   0  0  0  0  0
    3.2569   29.9587   57.0282 C   0  0  0  0  0
    1.2104   27.4768   60.6606 C   0  0  0  0  0
   -0.1008   26.7855   60.3164 C   0  0  0  0  0
   -0.0561   26.2674   58.8935 C   0  0  0  0  0
   -0.2699   25.6183   61.2766 C   0  0  0  0  0
    0.7133   25.8392   62.4045 C   0  0  0  0  0
    1.8362   26.6402   61.7802 C   0  0  0  0  0
 12 11  1  0  0  0
 12 13  1  0  0  0
 13 14  1  0  0  0
 14 15  1  0  0  0
 17 16  1  0  0  0
 17 18  1  0  0  0
 17 19  1  0  0  0
 20 16  1  0  0  0
 20 21  1  0  0  0
 20 22  1  0  0  0
 20 12  1  0  0  0
 21  3  1  0  0  0
 22 23  1  0  0  0
 22 14  1  0  0  0
 23 24  1  0  0  0
 23 33  1  0  0  0
 24  4  1  0  0  0
 25  4  1  0  0  0
 25  5  1  0  0  0
 25  9  1  0  0  0
 26  5  1  0  0  0
 26  6  1  0  0  0
 27  6  1  0  0  0
 27 28  1  0  0  0
 27 32  1  0  0  0
 28  7  1  0  0  0
 28 31  1  0  0  0
 29  7  1  0  0  0
 30 29  1  0  0  0
 31  9  1  0  0  0
 31 26  1  0  0  0
 32 10  1  0  0  0
 32 25  1  0  0  0
 33 34  1  0  0  0
 34 35  1  0  0  0
 34 36  1  0  0  0
 36 37  1  0  0  0
 37 38  1  0  0  0
 38 12  1  0  0  0
 38 33  1  0  0  0
 11  1  2  0  0  0
 15 16  2  0  0  0
 21  2  2  0  0  0
 29  8  2  0  0  0
M  END
> <rmsd>
0.838664711

$$$$
PubChem-162997206


 31 33  0  0  0  0  0  0  0  0999 V2000
    4.0257   26.1556   63.8718 O   0  0  0  0  0
    0.8849   26.8576   65.1529 O   0  0  0  0  0
    0.9776   29.3225   59.2246 O   0  0  0  0  0
    0.9611   29.4371   56.8811 O   0  0  0  0  0
    0.1763   30.9428   54.6606 O   0  0  0  0  0
    2.8827   31.0585   55.4841 O   0  0  0  0  0
    3.0369   31.5332   59.0362 O   0  0  0  0  0
    3.8120   28.6719   57.0258 O   0  0  0  0  0
    0.0541   29.0849   63.9336 O   0  0  0  0  0
    3.0927   21.7953   68.4550 O   0  0  0  0  0
    2.9731   25.9240   64.5277 C   0  0  0  0  0
    1.7618   26.7409   64.2544 C   0  0  0  0  0
    1.5654   27.4350   62.9537 C   0  0  0  0  0
    2.2117   26.9520   61.8048 C   0  0  0  0  0
    2.0272   27.5679   60.5660 C   0  0  0  0  0
    1.1861   28.6825   60.4506 C   0  0  0  0  0
    1.6420   28.9418   58.0182 C   0  0  0  0  0
    0.9618   30.8472   56.9340 C   0  0  0  0  0
   -0.0451   31.4316   55.9497 C   0  0  0  0  0
    2.3753   31.4113   56.7373 C   0  0  0  0  0
    3.2931   30.8706   57.8347 C   0  0  0  0  0
    3.1244   29.3582   58.0272 C   0  0  0  0  0
    0.5341   29.1679   61.5857 C   0  0  0  0  0
    0.7150   28.5569   62.8304 C   0  0  0  0  0
    2.9990   24.8600   65.5609 C   0  0  0  0  0
    4.2205   24.2724   65.9237 C   0  0  0  0  0
    4.2646   23.2568   66.8824 C   0  0  0  0  0
    3.0828   22.8080   67.4920 C   0  0  0  0  0
    4.2866   21.1542   68.8827 C   0  0  0  0  0
    1.8630   23.3849   67.1285 C   0  0  0  0  0
    1.8207   24.4006   66.1695 C   0  0  0  0  0
 11 12  1  0  0  0
 11 25  1  0  0  0
 12 13  1  0  0  0
 14 15  1  0  0  0
 16  3  1  0  0  0
 16 23  1  0  0  0
 17  3  1  0  0  0
 17  4  1  0  0  0
 18  4  1  0  0  0
 18 19  1  0  0  0
 18 20  1  0  0  0
 19  5  1  0  0  0
 20  6  1  0  0  0
 20 21  1  0  0  0
 21  7  1  0  0  0
 21 22  1  0  0  0
 22  8  1  0  0  0
 22 17  1  0  0  0
 24  9  1  0  0  0
 24 13  1  0  0  0
 26 27  1  0  0  0
 28 10  1  0  0  0
 28 30  1  0  0  0
 29 10  1  0  0  0
 31 25  1  0  0  0
 11  1  2  0  0  0
 12  2  2  0  0  0
 13 14  2  0  0  0
 15 16  2  0  0  0
 23 24  2  0  0  0
 25 26  2  0  0  0
 27 28  2  0  0  0
 30 31  2  0  0  0
M  END
> <rmsd>
0.618097067

$$$$
PubChem-121954424


 27 28  0  0  0  0  0  0  0  0999 V2000
    2.1814   27.6250   67.5638 C   0  0  0  0  0
    2.3197   26.4545   66.6097 C   0  0  0  0  0
    1.1955   25.4627   66.8377 C   0  0  0  0  0
    3.3934   26.7361   64.3026 C   0  0  0  0  0
    3.1204   27.3058   62.9785 C   0  0  0  0  0
    1.8703   27.9018   62.9165 C   0  0  0  0  0
    1.4079   28.5047   61.7493 C   0  0  0  0  0
    2.2394   28.5025   60.6134 C   0  0  0  0  0
    3.5109   27.8934   60.6798 C   0  0  0  0  0
    3.9599   27.2911   61.8651 C   0  0  0  0  0
    1.7791   29.1188   59.3579 C   0  0  0  0  0
    2.1657   29.5538   56.8919 C   0  0  0  0  0
    1.4632   28.4254   56.1472 C   0  0  0  0  0
    0.2906   26.7232   56.9270 C   0  0  0  0  0
   -0.3076   26.3525   58.2404 C   0  0  0  0  0
    0.4200   25.7026   59.1431 C   0  0  0  0  0
    3.3338   30.0355   56.0984 C   0  0  0  0  0
    2.3192   26.9189   65.2272 N   0  0  0  0  0
    2.6171   29.0925   58.1983 N   0  0  0  0  0
    4.4630   26.1427   64.6043 O   0  0  0  0  0
    0.7870   29.1131   65.0693 O   0  0  0  0  0
   -0.2104   26.9416   64.3393 O   0  0  0  0  0
    0.6442   29.6673   59.3028 O   0  0  0  0  0
    0.2563   28.1094   56.7729 O   0  0  0  0  0
    4.2941   29.2631   55.8363 O   0  0  0  0  0
    3.3641   31.3489   55.6505 O   0  0  0  0  0
    1.0374   27.7726   64.4386 S   0  0  0  0  0
  1  2  1  0  0  0
  2  3  1  0  0  0
  2 18  1  0  0  0
  4  5  1  0  0  0
  6  7  1  0  0  0
  8  9  1  0  0  0
  8 11  1  0  0  0
 10  5  1  0  0  0
 11 19  1  0  0  0
 12 19  1  0  0  0
 12 13  1  0  0  0
 12 17  1  0  0  0
 13 24  1  0  0  0
 14 24  1  0  0  0
 14 15  1  0  0  0
 17 26  1  0  0  0
 18  4  1  0  0  0
 27  6  1  0  0  0
 27 18  1  0  0  0
  4 20  2  0  0  0
  5  6  2  0  0  0
  7  8  2  0  0  0
  9 10  2  0  0  0
 11 23  2  0  0  0
 15 16  2  0  0  0
 17 25  2  0  0  0
 27 21  2  0  0  0
 27 22  2  0  0  0
M  END
> <rmsd>
0.768780589

$$$$
PubChem-155627444


 26 27  0  0  0  0  0  0  0  0999 V2000
    1.2165   28.5535   58.8649 B   0  0  0  0  0
    0.8577   29.9592   59.0671 O   0  0  0  0  0
    0.0736   31.5301   57.5679 O   0  0  0  0  0
    1.0530   28.1157   57.4657 O   0  0  0  0  0
    3.5190   28.9998   56.2679 O   0  0  0  0  0
    3.2412   31.2094   55.7304 O   0  0  0  0  0
   -0.9685   27.7698   55.5469 O   0  0  0  0  0
   -1.9087   28.8947   53.7568 O   0  0  0  0  0
    3.5936   28.5568   64.7833 O   0  0  0  0  0
    3.5928   26.3168   64.3212 O   0  0  0  0  0
    0.4538   30.3554   57.8190 C   0  0  0  0  0
    0.4854   29.2431   56.8164 C   0  0  0  0  0
    1.3135   29.6318   55.5817 C   0  0  0  0  0
    2.7495   29.9212   55.8893 C   0  0  0  0  0
   -0.9428   28.9192   56.3848 C   0  0  0  0  0
   -1.4656   27.8207   54.2448 C   0  0  0  0  0
    1.1026   27.5163   60.0641 C   0  0  0  0  0
    2.3219   27.5976   60.9720 C   0  0  0  0  0
    2.2592   28.8131   61.8900 C   0  0  0  0  0
    1.1746   28.6517   62.9553 C   0  0  0  0  0
    0.9121   29.9515   63.6714 C   0  0  0  0  0
    0.7206   28.2219   65.2582 C   0  0  0  0  0
    1.4757   27.6603   64.0685 C   0  0  0  0  0
    2.9433   27.5429   64.4122 C   0  0  0  0  0
    0.4073   29.6273   65.0010 N   0  0  0  0  0
    0.9270   26.3591   63.7225 N   0  0  0  0  0
  1  2  1  0  0  0
  1  4  1  0  0  0
 11  2  1  0  0  0
 12 11  1  0  0  0
 12  4  1  0  0  0
 12 13  1  0  0  0
 12 15  1  0  0  0
 13 14  1  0  0  0
 14  6  1  0  0  0
 15  7  1  0  0  0
 16  7  1  0  0  0
 17  1  1  0  0  0
 17 18  1  0  0  0
 18 19  1  0  0  0
 19 20  1  0  0  0
 20 21  1  0  0  0
 21 25  1  0  0  0
 22 25  1  0  0  0
 22 23  1  0  0  0
 23 24  1  0  0  0
 23 26  1  0  0  0
 23 20  1  0  0  0
 24 10  1  0  0  0
 11  3  2  0  0  0
 14  5  2  0  0  0
 16  8  2  0  0  0
 24  9  2  0  0  0
M  CHG  1  25  -1
M  END
> <rmsd>
0.645103395

$$$$
PubChem-70869185


 32 35  0  0  0  0  0  0  0  0999 V2000
   -1.5040   29.9881   63.9268 C   0  0  0  0  0
    0.6321   28.7894   63.5330 C   0  0  0  0  0
    0.9685   29.6671   62.4901 C   0  0  0  0  0
    2.1613   29.5169   61.7857 C   0  0  0  0  0
    3.0293   28.4757   62.1069 C   0  0  0  0  0
    2.7185   27.5837   63.1439 C   0  0  0  0  0
    1.5215   27.7351   63.8680 C   0  0  0  0  0
    0.1543   26.8552   65.7755 C   0  0  0  0  0
    4.8182   26.3132   62.8005 C   0  0  0  0  0
    2.4940   30.4455   60.6716 C   0  0  0  0  0
    2.6613   30.4254   58.4710 C   0  0  0  0  0
    1.8928   30.4685   57.1607 C   0  0  0  0  0
    1.4517   29.0841   56.7526 C   0  0  0  0  0
    1.4844   29.1380   55.2504 C   0  0  0  0  0
    2.4213   30.2951   54.9638 C   0  0  0  0  0
    4.1171   30.1500   53.1134 C   0  0  0  0  0
    5.5755   28.8448   53.9395 C   0  0  0  0  0
    4.5872   29.0006   54.8454 C   0  0  0  0  0
    5.6803   27.6129   56.3675 C   0  0  0  0  0
    6.6706   28.0490   54.2405 C   0  0  0  0  0
   -0.5721   28.9576   64.2276 O   0  0  0  0  0
    1.2699   26.8138   64.8981 O   0  0  0  0  0
    3.5881   26.5381   63.4768 O   0  0  0  0  0
    1.8126   30.0606   59.5165 O   0  0  0  0  0
    2.7200   30.9922   56.1526 O   0  0  0  0  0
    0.2246   29.4393   54.7246 O   0  0  0  0  0
    0.1694   28.8153   57.2406 O   0  0  0  0  0
    3.6530   29.8184   54.3445 N   0  0  0  0  0
    5.3136   29.5604   52.8292 N   0  0  0  0  0
    4.6085   28.4056   56.0627 N   0  0  0  0  0
    6.6979   27.4395   55.4629 N   0  0  0  0  0
    7.7392   27.8737   53.3158 N   0  0  0  0  0
  1 21  1  0  0  0
  2 21  1  0  0  0
  3  4  1  0  0  0
  5  6  1  0  0  0
  6 23  1  0  0  0
  7 22  1  0  0  0
  7  2  1  0  0  0
  8 22  1  0  0  0
  9 23  1  0  0  0
 10  4  1  0  0  0
 10 24  1  0  0  0
 11 24  1  0  0  0
 12 11  1  0  0  0
 12 13  1  0  0  0
 12 25  1  0  0  0
 13 14  1  0  0  0
 13 27  1  0  0  0
 14 15  1  0  0  0
 14 26  1  0  0  0
 15 25  1  0  0  0
 15 28  1  0  0  0
 17 29  1  0  0  0
 18 30  1  0  0  0
 18 28  1  0  0  0
 19 31  1  0  0  0
 20 32  1  0  0  0
 20 17  1  0  0  0
 28 16  1  0  0  0
  2  3  2  0  0  0
  4  5  2  0  0  0
  6  7  2  0  0  0
 16 29  2  0  0  0
 17 18  2  0  0  0
 19 30  2  0  0  0
 20 31  2  0  0  0
M  END
> <rmsd>
0.773591101

$$$$
PubChem-163116272


 37 41  0  0  0  0  0  0  0  0999 V2000
    0.0137   29.5461   55.4483 C   0  0  0  0  0
    1.1670   29.7458   56.4104 C   0  0  0  0  0
    2.3916   30.2792   55.6549 C   0  0  0  0  0
    3.7025   29.8611   56.3294 C   0  0  0  0  0
    3.5073   29.6917   57.8403 C   0  0  0  0  0
    2.2985   28.7937   58.1661 C   0  0  0  0  0
    1.3753   28.7349   60.4719 C   0  0  0  0  0
    1.9981   27.5156   60.7233 C   0  0  0  0  0
    1.8555   26.8778   61.9440 C   0  0  0  0  0
    1.0474   27.4325   62.9592 C   0  0  0  0  0
    0.8462   26.5902   64.1828 C   0  0  0  0  0
    1.7611   25.4366   64.4959 C   0  0  0  0  0
    2.9764   25.3595   63.5758 C   0  0  0  0  0
    3.6118   23.9929   63.7172 C   0  0  0  0  0
    2.5483   25.5597   62.1257 C   0  0  0  0  0
    0.4760   28.7365   62.7615 C   0  0  0  0  0
    0.6062   29.3495   61.4829 C   0  0  0  0  0
   -0.0372   30.6588   61.2266 C   0  0  0  0  0
   -0.3824   31.5318   62.3607 C   0  0  0  0  0
   -0.6155   32.9180   62.1895 C   0  0  0  0  0
   -0.9242   33.7091   63.3062 C   0  0  0  0  0
   -1.0030   33.1446   64.5756 C   0  0  0  0  0
   -0.7716   31.7820   64.7428 C   0  0  0  0  0
   -0.4446   30.9641   63.6480 C   0  0  0  0  0
   -0.2958   29.4692   63.8701 C   0  0  0  0  0
   -1.6996   28.8873   63.9605 C   0  0  0  0  0
   -0.7439   34.8816   60.6797 C   0  0  0  0  0
    1.4689   28.5269   57.0487 O   0  0  0  0  0
    1.5374   29.3595   59.2284 O   0  0  0  0  0
   -0.1596   26.7392   64.9224 O   0  0  0  0  0
    3.9097   26.3328   63.9400 O   0  0  0  0  0
   -0.2980   31.0210   60.0467 O   0  0  0  0  0
    0.3636   29.2893   65.0910 O   0  0  0  0  0
   -0.5257   33.4973   60.9172 O   0  0  0  0  0
    4.6613   29.1808   58.4352 O   0  0  0  0  0
    4.1565   28.6683   55.7611 O   0  0  0  0  0
    2.3243   31.6707   55.5839 O   0  0  0  0  0
  2  1  1  0  0  0
  2  3  1  0  0  0
  2 28  1  0  0  0
  3  4  1  0  0  0
  3 37  1  0  0  0
  4  5  1  0  0  0
  4 36  1  0  0  0
  5  6  1  0  0  0
  5 35  1  0  0  0
  6 28  1  0  0  0
  6 29  1  0  0  0
  7 29  1  0  0  0
  8  9  1  0  0  0
 10 11  1  0  0  0
 10 16  1  0  0  0
 12 11  1  0  0  0
 12 13  1  0  0  0
 13 14  1  0  0  0
 13 15  1  0  0  0
 13 31  1  0  0  0
 15  9  1  0  0  0
 17 18  1  0  0  0
 17  7  1  0  0  0
 18 19  1  0  0  0
 20 21  1  0  0  0
 20 34  1  0  0  0
 22 23  1  0  0  0
 24 19  1  0  0  0
 25 24  1  0  0  0
 25 26  1  0  0  0
 25 33  1  0  0  0
 25 16  1  0  0  0
 27 34  1  0  0  0
  7  8  2  0  0  0
  9 10  2  0  0  0
 11 30  2  0  0  0
 16 17  2  0  0  0
 18 32  2  0  0  0
 19 20  2  0  0  0
 21 22  2  0  0  0
 23 24  2  0  0  0
M  END
> <rmsd>
0.691968858

$$$$
PubChem-147536187 PubChem-153354741


 28 30  0  0  0  0  0  0  0  0999 V2000
    3.2719   32.6649   54.5954 B   0  0  0  0  0
    2.4441   33.9986   54.8532 C   0  0  0  0  0
    2.3177   34.2019   56.3618 C   0  0  0  0  0
    1.7783   32.9769   57.0512 C   0  0  0  0  0
    2.2156   31.6879   56.6664 C   0  0  0  0  0
    1.7750   30.5496   57.3841 C   0  0  0  0  0
    0.8751   30.7224   58.4631 C   0  0  0  0  0
    0.4368   32.0111   58.8057 C   0  0  0  0  0
    0.8884   33.1285   58.1099 C   0  0  0  0  0
   -0.4246   29.7125   60.3281 C   0  0  0  0  0
    0.3900   29.9591   61.5501 C   0  0  0  0  0
   -0.5979   28.3646   60.9341 C   0  0  0  0  0
    0.6679   27.8901   63.2702 C   0  0  0  0  0
    1.5744   28.5234   64.2780 C   0  0  0  0  0
    2.8886   28.9636   63.6428 C   0  0  0  0  0
    3.7570   27.7691   63.2691 C   0  0  0  0  0
    4.3625   27.1466   64.4814 C   0  0  0  0  0
    2.2440   29.1897   57.0054 C   0  0  0  0  0
    3.0623   31.5435   55.5541 O   0  0  0  0  0
    0.4314   29.6118   59.1954 O   0  0  0  0  0
    0.2959   26.6994   63.4361 O   0  0  0  0  0
    4.0647   25.9644   64.7934 O   0  0  0  0  0
    3.3112   29.0361   56.3537 O   0  0  0  0  0
    1.5141   28.0616   57.3621 O   0  0  0  0  0
    4.3823   32.6365   53.6481 O   0  0  0  0  0
    0.2275   28.6160   62.1231 N   0  0  0  0  0
    5.2888   27.8790   65.2767 N   0  0  0  0  0
    0.9169   29.6691   64.8815 N   0  0  0  0  0
  1 25  1  0  0  0
  1 19  1  0  0  0
  2  1  1  0  0  0
  2  3  1  0  0  0
  3  4  1  0  0  0
  5 19  1  0  0  0
  5  6  1  0  0  0
  6 18  1  0  0  0
  7  8  1  0  0  0
  7 20  1  0  0  0
  9  4  1  0  0  0
 10 20  1  0  0  0
 10 11  1  0  0  0
 11 26  1  0  0  0
 12 26  1  0  0  0
 12 10  1  0  0  0
 14 13  1  0  0  0
 14 15  1  0  0  0
 14 28  1  0  0  0
 15 16  1  0  0  0
 16 17  1  0  0  0
 17 27  1  0  0  0
 18 24  1  0  0  0
 26 13  1  0  0  0
  4  5  2  0  0  0
  6  7  2  0  0  0
  8  9  2  0  0  0
 13 21  2  0  0  0
 17 22  2  0  0  0
 18 23  2  0  0  0
M  END
> <rmsd>
0.836159706

$$$$
PubChem-158216751 PubChem-161372098 PubChem-58099909


 34 37  0  0  0  0  0  0  0  0999 V2000
    4.2789   31.0169   60.0833 C   0  0  0  0  0
    4.2470   30.1756   61.1929 C   0  0  0  0  0
    4.1402   28.7941   61.0260 C   0  0  0  0  0
    4.0709   28.2355   59.7252 C   0  0  0  0  0
    4.0732   29.0966   58.6003 C   0  0  0  0  0
    4.1908   30.4823   58.7982 C   0  0  0  0  0
    3.8919   29.3626   56.1201 C   0  0  0  0  0
    2.6156   30.1943   56.0380 C   0  0  0  0  0
    1.3741   29.3192   56.0557 C   0  0  0  0  0
    0.8190   27.8005   57.9403 C   0  0  0  0  0
    0.7985   26.6768   57.0980 C   0  0  0  0  0
    0.6397   25.3944   57.6225 C   0  0  0  0  0
    0.5066   25.2135   58.9985 C   0  0  0  0  0
    0.5287   26.3131   59.8590 C   0  0  0  0  0
    0.6725   27.6229   59.3371 C   0  0  0  0  0
    0.6863   28.6919   60.2545 C   0  0  0  0  0
    0.5781   28.4264   61.6157 C   0  0  0  0  0
    0.4525   27.1033   62.0569 C   0  0  0  0  0
    0.5301   27.6614   64.4918 C   0  0  0  0  0
    3.9880   26.8310   59.6242 C   0  0  0  0  0
    3.9510   26.0600   60.7832 C   0  0  0  0  0
    4.0016   26.6902   62.0286 C   0  0  0  0  0
    3.9421   25.8957   63.2619 C   0  0  0  0  0
    3.9374   28.5718   57.3067 O   0  0  0  0  0
    0.9860   29.0831   57.4024 O   0  0  0  0  0
    0.7994   29.8878   59.8751 O   0  0  0  0  0
    0.4240   26.1140   61.1693 O   0  0  0  0  0
    0.3460   26.7795   63.4180 O   0  0  0  0  0
    0.9048   28.8522   64.3285 O   0  0  0  0  0
    2.6340   30.9460   54.8642 O   0  0  0  0  0
    3.9475   26.2511   58.5070 O   0  0  0  0  0
    4.1001   28.0142   62.1018 O   0  0  0  0  0
    3.9902   26.4675   64.3823 O   0  0  0  0  0
    3.8249   24.5122   63.2045 O   0  0  0  0  0
  2  3  1  0  0  0
  3 32  1  0  0  0
  4  5  1  0  0  0
  4 20  1  0  0  0
  5 24  1  0  0  0
  6  1  1  0  0  0
  7 24  1  0  0  0
  8  7  1  0  0  0
  8  9  1  0  0  0
  8 30  1  0  0  0
  9 25  1  0  0  0
 10 25  1  0  0  0
 11 12  1  0  0  0
 13 14  1  0  0  0
 14 27  1  0  0  0
 15 16  1  0  0  0
 15 10  1  0  0  0
 16 17  1  0  0  0
 18 27  1  0  0  0
 18 28  1  0  0  0
 19 28  1  0  0  0
 20 21  1  0  0  0
 22 32  1  0  0  0
 22 23  1  0  0  0
 23 34  1  0  0  0
  1  2  2  0  0  0
  3  4  2  0  0  0
  5  6  2  0  0  0
 10 11  2  0  0  0
 12 13  2  0  0  0
 14 15  2  0  0  0
 16 26  2  0  0  0
 17 18  2  0  0  0
 19 29  2  0  0  0
 20 31  2  0  0  0
 21 22  2  0  0  0
 23 33  2  0  0  0
M  END
> <rmsd>
0.778232574

$$$$
PubChem-158216751 PubChem-161372098 PubChem-58099909


 34 37  0  0  0  0  0  0  0  0999 V2000
   -0.1793   25.3718   58.1425 C   0  0  0  0  0
   -0.2022   25.4843   59.5311 C   0  0  0  0  0
    0.2163   26.6646   60.1501 C   0  0  0  0  0
    0.6622   27.7593   59.3659 C   0  0  0  0  0
    0.7203   27.6251   57.9580 C   0  0  0  0  0
    0.2828   26.4323   57.3639 C   0  0  0  0  0
    1.3991   28.5739   55.7602 C   0  0  0  0  0
    2.4833   29.5408   55.2942 C   0  0  0  0  0
    3.8859   29.0608   55.6601 C   0  0  0  0  0
    4.7962   29.4918   57.9349 C   0  0  0  0  0
    5.4546   30.6526   57.5006 C   0  0  0  0  0
    6.2341   31.3988   58.3843 C   0  0  0  0  0
    6.3610   31.0000   59.7161 C   0  0  0  0  0
    5.7182   29.8464   60.1682 C   0  0  0  0  0
    4.9430   29.0679   59.2771 C   0  0  0  0  0
    4.3578   27.8910   59.7831 C   0  0  0  0  0
    4.5141   27.5703   61.1281 C   0  0  0  0  0
    5.2678   28.4075   61.9553 C   0  0  0  0  0
    4.7687   27.1562   64.0573 C   0  0  0  0  0
    1.0499   28.9326   60.0476 C   0  0  0  0  0
    0.9894   28.9699   61.4368 C   0  0  0  0  0
    0.5486   27.8435   62.1339 C   0  0  0  0  0
    0.4660   27.8714   63.5999 C   0  0  0  0  0
    1.2272   28.6650   57.1723 O   0  0  0  0  0
    3.9838   28.7724   57.0516 O   0  0  0  0  0
    3.7033   27.1098   59.0477 O   0  0  0  0  0
    5.8451   29.4902   61.4435 O   0  0  0  0  0
    5.4531   28.1308   63.3176 O   0  0  0  0  0
    3.8056   26.5000   63.5794 O   0  0  0  0  0
    2.2571   30.8173   55.8110 O   0  0  0  0  0
    1.4557   29.9537   59.4313 O   0  0  0  0  0
    0.1843   26.7482   61.4741 O   0  0  0  0  0
    0.1980   26.8197   64.2365 O   0  0  0  0  0
    0.6699   29.0591   64.2937 O   0  0  0  0  0
  2  3  1  0  0  0
  3 32  1  0  0  0
  4  5  1  0  0  0
  4 20  1  0  0  0
  5 24  1  0  0  0
  6  1  1  0  0  0
  7 24  1  0  0  0
  8  7  1  0  0  0
  8  9  1  0  0  0
  8 30  1  0  0  0
  9 25  1  0  0  0
 10 25  1  0  0  0
 11 12  1  0  0  0
 13 14  1  0  0  0
 14 27  1  0  0  0
 15 16  1  0  0  0
 15 10  1  0  0  0
 16 17  1  0  0  0
 18 27  1  0  0  0
 18 28  1  0  0  0
 19 28  1  0  0  0
 20 21  1  0  0  0
 22 32  1  0  0  0
 22 23  1  0  0  0
 23 34  1  0  0  0
  1  2  2  0  0  0
  3  4  2  0  0  0
  5  6  2  0  0  0
 10 11  2  0  0  0
 12 13  2  0  0  0
 14 15  2  0  0  0
 16 26  2  0  0  0
 17 18  2  0  0  0
 19 29  2  0  0  0
 20 31  2  0  0  0
 21 22  2  0  0  0
 23 33  2  0  0  0
M  END
> <rmsd>
0.513452411

$$$$
PubChem-22394789


 29 30  0  0  0  0  0  0  0  0999 V2000
    2.0793   26.7549   54.5687 C   0  0  0  0  0
    1.4779   27.7390   56.7810 C   0  0  0  0  0
    0.7194   28.1794   58.6885 C   0  0  0  0  0
    0.2119   26.9564   58.2939 C   0  0  0  0  0
    0.4342   28.8511   59.9602 C   0  0  0  0  0
   -0.8015   28.8135   62.2066 C   0  0  0  0  0
   -1.5471   30.1340   62.0142 C   0  0  0  0  0
   -2.9488   29.9109   61.5506 C   0  0  0  0  0
   -4.0129   30.2038   62.4101 C   0  0  0  0  0
   -5.3315   30.0193   61.9827 C   0  0  0  0  0
   -5.5887   29.5473   60.6920 C   0  0  0  0  0
   -4.5278   29.2624   59.8272 C   0  0  0  0  0
   -3.2095   29.4470   60.2543 C   0  0  0  0  0
    0.4319   29.0037   63.0935 C   0  0  0  0  0
    1.1702   27.6825   63.3046 C   0  0  0  0  0
    2.5320   27.9347   63.9303 C   0  0  0  0  0
    3.3631   26.7310   63.8406 C   0  0  0  0  0
    3.9424   29.0364   53.5870 C   0  0  0  0  0
    2.1910   27.8286   55.5423 N   0  0  0  0  0
    1.5248   28.6872   57.7366 N   0  0  0  0  0
   -0.4367   28.2308   60.9145 N   0  0  0  0  0
    4.0198   25.7808   63.7698 N   0  0  0  0  0
    0.7100   26.7232   57.1030 O   0  0  0  0  0
    0.9565   29.9718   60.2058 O   0  0  0  0  0
    0.4188   26.8233   64.1119 O   0  0  0  0  0
    0.0627   29.5525   64.3259 O   0  0  0  0  0
    2.3450   30.4499   55.1979 O   0  0  0  0  0
    4.2700   29.3204   56.2245 O   0  0  0  0  0
    3.1870   29.2053   55.1894 S   0  0  0  0  0
  1 19  1  0  0  0
  2 23  1  0  0  0
  3 20  1  0  0  0
  3  5  1  0  0  0
  4 23  1  0  0  0
  5 21  1  0  0  0
  6 21  1  0  0  0
  6  7  1  0  0  0
  6 14  1  0  0  0
  7  8  1  0  0  0
  9 10  1  0  0  0
 11 12  1  0  0  0
 13  8  1  0  0  0
 14 15  1  0  0  0
 14 26  1  0  0  0
 15 16  1  0  0  0
 15 25  1  0  0  0
 16 17  1  0  0  0
 19  2  1  0  0  0
 29 19  1  0  0  0
 29 18  1  0  0  0
  2 20  2  0  0  0
  3  4  2  0  0  0
  5 24  2  0  0  0
  8  9  2  0  0  0
 10 11  2  0  0  0
 12 13  2  0  0  0
 29 27  2  0  0  0
 29 28  2  0  0  0
 17 22  3  0  0  0
M  END
> <rmsd>
0.677468717

$$$$
PubChem-21600401


 26 27  0  0  0  0  0  0  0  0999 V2000
    0.3721   36.1561   60.2276 C   0  0  0  0  0
    1.2398   35.5359   59.3229 C   0  0  0  0  0
    1.8622   34.3308   59.6637 C   0  0  0  0  0
    1.6172   33.7427   60.9112 C   0  0  0  0  0
    0.7418   34.3603   61.8122 C   0  0  0  0  0
    0.1217   35.5679   61.4721 C   0  0  0  0  0
    2.2849   32.4604   61.2816 C   0  0  0  0  0
    1.6780   31.3131   60.5462 C   0  0  0  0  0
    1.3420   29.1269   62.1772 C   0  0  0  0  0
    0.6676   28.5097   63.4059 C   0  0  0  0  0
    1.6396   27.5260   64.0606 C   0  0  0  0  0
    2.2649   26.5889   63.0275 C   0  0  0  0  0
    2.7527   27.3985   61.8173 C   0  0  0  0  0
    3.3207   26.4615   60.7650 C   0  0  0  0  0
    2.1594   30.9733   59.3939 N   0  0  0  0  0
    1.6276   29.9311   58.6709 O   0  0  0  0  0
    1.5065   28.3916   56.5547 O   0  0  0  0  0
    3.7145   29.1895   57.2603 O   0  0  0  0  0
    2.1020   30.8836   56.1246 O   0  0  0  0  0
    1.6764   28.1151   61.2611 O   0  0  0  0  0
    3.8674   27.2026   59.7174 O   0  0  0  0  0
    3.3335   25.9050   63.6109 O   0  0  0  0  0
    0.9734   26.7733   65.0303 O   0  0  0  0  0
    0.3410   29.5106   64.3214 O   0  0  0  0  0
    2.2608   29.5528   57.1371 S   0  0  0  0  0
    0.1608   30.4056   61.3055 Se  0  0  0  0  0
  2  3  1  0  0  0
  4  5  1  0  0  0
  6  1  1  0  0  0
  7  4  1  0  0  0
  7  8  1  0  0  0
  8 26  1  0  0  0
  9 26  1  0  0  0
  9 10  1  0  0  0
  9 20  1  0  0  0
 10 11  1  0  0  0
 10 24  1  0  0  0
 11 12  1  0  0  0
 11 23  1  0  0  0
 12 13  1  0  0  0
 12 22  1  0  0  0
 13 20  1  0  0  0
 13 14  1  0  0  0
 14 21  1  0  0  0
 15 16  1  0  0  0
 25 16  1  0  0  0
 25 19  1  0  0  0
  1  2  2  0  0  0
  3  4  2  0  0  0
  5  6  2  0  0  0
  8 15  2  0  0  0
 25 17  2  0  0  0
 25 18  2  0  0  0
M  END
> <rmsd>
0.82338506

$$$$
PubChem-90691491


 35 38  0  0  0  0  0  0  0  0999 V2000
    2.6704   29.6342   53.8455 C   0  0  0  0  0
    2.6544   29.6093   55.3571 C   0  0  0  0  0
    1.7482   28.4502   55.7943 C   0  0  0  0  0
    1.2383   27.5242   58.0469 C   0  0  0  0  0
    1.3375   26.2021   57.5852 C   0  0  0  0  0
    1.2258   25.1247   58.4667 C   0  0  0  0  0
    1.0197   25.3550   59.8261 C   0  0  0  0  0
    0.9213   26.6577   60.3102 C   0  0  0  0  0
    1.0229   27.7614   59.4260 C   0  0  0  0  0
    0.9341   29.0530   59.9838 C   0  0  0  0  0
    0.7536   29.1945   61.3551 C   0  0  0  0  0
    0.6591   28.0540   62.1579 C   0  0  0  0  0
    0.4794   28.1765   63.6102 C   0  0  0  0  0
    4.1029   29.4580   55.8408 C   0  0  0  0  0
    4.3394   29.5894   58.3121 C   0  0  0  0  0
    4.4124   30.9922   58.2691 C   0  0  0  0  0
    4.4931   31.7438   59.4423 C   0  0  0  0  0
    4.4847   31.1030   60.6786 C   0  0  0  0  0
    4.4107   29.7101   60.7506 C   0  0  0  0  0
    4.3723   28.9321   59.5658 C   0  0  0  0  0
    4.3493   27.5285   59.7073 C   0  0  0  0  0
    4.2981   26.9685   60.9828 C   0  0  0  0  0
    4.2955   27.8081   62.0997 C   0  0  0  0  0
    4.2128   27.2440   63.4517 C   0  0  0  0  0
    1.3699   28.6022   57.1588 O   0  0  0  0  0
    1.0188   30.0872   59.2731 O   0  0  0  0  0
    0.7472   26.8471   61.6106 O   0  0  0  0  0
    0.4445   29.3072   64.1601 O   0  0  0  0  0
    0.3541   27.0345   64.3909 O   0  0  0  0  0
    4.1919   28.8557   57.1286 O   0  0  0  0  0
    4.3665   26.7654   58.7085 O   0  0  0  0  0
    4.3688   29.1275   61.9429 O   0  0  0  0  0
    4.2490   28.0045   64.4537 O   0  0  0  0  0
    4.0888   25.8724   63.6417 O   0  0  0  0  0
    2.1297   30.8266   55.8221 O   0  0  0  0  0
  1  2  1  0  0  0
  2  3  1  0  0  0
  2 14  1  0  0  0
  2 35  1  0  0  0
  3 25  1  0  0  0
  4 25  1  0  0  0
  5  6  1  0  0  0
  7  8  1  0  0  0
  8 27  1  0  0  0
  9 10  1  0  0  0
  9  4  1  0  0  0
 10 11  1  0  0  0
 12 27  1  0  0  0
 12 13  1  0  0  0
 13 29  1  0  0  0
 14 30  1  0  0  0
 15 30  1  0  0  0
 16 17  1  0  0  0
 18 19  1  0  0  0
 19 32  1  0  0  0
 20 21  1  0  0  0
 20 15  1  0  0  0
 21 22  1  0  0  0
 23 32  1  0  0  0
 23 24  1  0  0  0
 24 34  1  0  0  0
  4  5  2  0  0  0
  6  7  2  0  0  0
  8  9  2  0  0  0
 10 26  2  0  0  0
 11 12  2  0  0  0
 13 28  2  0  0  0
 15 16  2  0  0  0
 17 18  2  0  0  0
 19 20  2  0  0  0
 21 31  2  0  0  0
 22 23  2  0  0  0
 24 33  2  0  0  0
M  END
> <rmsd>
0.535294831

$$$$
PubChem-90691491


 35 38  0  0  0  0  0  0  0  0999 V2000
    2.4833   29.9501   53.8082 C   0  0  0  0  0
    2.5354   29.7365   55.3040 C   0  0  0  0  0
    1.3736   28.8077   55.6826 C   0  0  0  0  0
    0.7448   27.7657   57.8529 C   0  0  0  0  0
    0.4622   26.5340   57.2412 C   0  0  0  0  0
    0.1084   25.4192   58.0044 C   0  0  0  0  0
    0.0388   25.5189   59.3932 C   0  0  0  0  0
    0.3180   26.7289   60.0247 C   0  0  0  0  0
    0.6689   27.8720   59.2627 C   0  0  0  0  0
    0.9580   29.0594   59.9654 C   0  0  0  0  0
    0.8897   29.0660   61.3540 C   0  0  0  0  0
    0.5316   27.8963   62.0307 C   0  0  0  0  0
    0.4629   27.8741   63.4975 C   0  0  0  0  0
    3.9119   29.1520   55.6484 C   0  0  0  0  0
    4.2959   28.8991   58.0916 C   0  0  0  0  0
    4.7410   30.2278   58.1982 C   0  0  0  0  0
    5.0782   30.7754   59.4368 C   0  0  0  0  0
    4.9585   30.0059   60.5913 C   0  0  0  0  0
    4.5165   28.6832   60.5145 C   0  0  0  0  0
    4.2124   28.1008   59.2580 C   0  0  0  0  0
    3.8200   26.7456   59.2448 C   0  0  0  0  0
    3.6829   26.0594   60.4505 C   0  0  0  0  0
    3.9608   26.7203   61.6498 C   0  0  0  0  0
    3.7959   26.0287   62.9334 C   0  0  0  0  0
    1.1175   28.8768   57.0817 O   0  0  0  0  0
    1.2826   30.1181   59.3688 O   0  0  0  0  0
    0.2652   26.7888   61.3480 O   0  0  0  0  0
    0.7601   28.8946   64.1700 O   0  0  0  0  0
    0.0738   26.7140   64.1546 O   0  0  0  0  0
    3.8988   28.3873   56.8501 O   0  0  0  0  0
    3.5825   26.1390   58.1697 O   0  0  0  0  0
    4.3782   27.9838   61.6345 O   0  0  0  0  0
    4.0843   26.6183   64.0071 O   0  0  0  0  0
    3.3174   24.7242   62.9800 O   0  0  0  0  0
    2.3806   30.9786   55.9419 O   0  0  0  0  0
  1  2  1  0  0  0
  2  3  1  0  0  0
  2 14  1  0  0  0
  2 35  1  0  0  0
  3 25  1  0  0  0
  4 25  1  0  0  0
  5  6  1  0  0  0
  7  8  1  0  0  0
  8 27  1  0  0  0
  9 10  1  0  0  0
  9  4  1  0  0  0
 10 11  1  0  0  0
 12 27  1  0  0  0
 12 13  1  0  0  0
 13 29  1  0  0  0
 14 30  1  0  0  0
 15 30  1  0  0  0
 16 17  1  0  0  0
 18 19  1  0  0  0
 19 32  1  0  0  0
 20 21  1  0  0  0
 20 15  1  0  0  0
 21 22  1  0  0  0
 23 32  1  0  0  0
 23 24  1  0  0  0
 24 34  1  0  0  0
  4  5  2  0  0  0
  6  7  2  0  0  0
  8  9  2  0  0  0
 10 26  2  0  0  0
 11 12  2  0  0  0
 13 28  2  0  0  0
 15 16  2  0  0  0
 17 18  2  0  0  0
 19 20  2  0  0  0
 21 31  2  0  0  0
 22 23  2  0  0  0
 24 33  2  0  0  0
M  END
> <rmsd>
0.536683023

$$$$
PubChem-134174408


 35 36  0  0  0  0  0  0  0  0999 V2000
    3.9822   32.4846   58.5572 C   0  0  0  0  0
    2.9838   32.0217   57.5005 C   0  0  0  0  0
    3.5963   31.0196   56.5115 C   0  0  0  0  0
    3.7057   29.6299   57.1537 C   0  0  0  0  0
    2.4150   29.2264   57.8673 C   0  0  0  0  0
    2.0042   30.3729   58.7927 C   0  0  0  0  0
    1.2209   30.1918   60.8562 C   0  0  0  0  0
    1.2559   28.8362   61.5440 C   0  0  0  0  0
    2.0860   28.9055   62.8155 C   0  0  0  0  0
    1.9063   27.6152   63.6299 C   0  0  0  0  0
    3.1842   27.2327   64.3855 C   0  0  0  0  0
    3.9985   28.4632   64.8008 C   0  0  0  0  0
    4.1378   29.5026   63.6666 C   0  0  0  0  0
    5.6160   29.6982   63.3280 C   0  0  0  0  0
    6.2467   28.4800   62.6649 C   0  0  0  0  0
    7.2233   28.9407   61.6034 C   0  0  0  0  0
    6.9909   27.6589   63.7000 C   0  0  0  0  0
    0.7506   27.7148   64.5812 C   0  0  0  0  0
    0.2402   31.0847   61.5417 C   0  0  0  0  0
    0.1180   32.3551   61.1842 C   0  0  0  0  0
   -0.8424   33.2148   61.8646 C   0  0  0  0  0
   -0.9659   34.4845   61.5042 C   0  0  0  0  0
   -1.9399   35.3819   62.1877 C   0  0  0  0  0
   -1.6519   36.8186   61.8047 C   0  0  0  0  0
   -3.3592   35.0306   61.7791 C   0  0  0  0  0
    1.7664   31.5589   58.0608 O   0  0  0  0  0
    0.8603   30.0251   59.5163 O   0  0  0  0  0
    3.4427   29.1164   62.4918 O   0  0  0  0  0
    3.6490   30.7306   64.1245 O   0  0  0  0  0
    3.9630   26.3904   63.5923 O   0  0  0  0  0
    0.3478   26.6834   65.1805 O   0  0  0  0  0
    0.1121   28.9292   64.8090 O   0  0  0  0  0
    1.3972   28.9568   56.9462 O   0  0  0  0  0
    2.8146   30.9718   55.3546 O   0  0  0  0  0
    4.1021   28.6265   56.1775 N   0  0  0  0  0
  2  1  1  0  0  0
  2  3  1  0  0  0
  2 26  1  0  0  0
  3  4  1  0  0  0
  3 34  1  0  0  0
  4  5  1  0  0  0
  4 35  1  0  0  0
  5  6  1  0  0  0
  5 33  1  0  0  0
  6 26  1  0  0  0
  6 27  1  0  0  0
  7 27  1  0  0  0
  7  8  1  0  0  0
  7 19  1  0  0  0
  9  8  1  0  0  0
  9 10  1  0  0  0
  9 28  1  0  0  0
 10 11  1  0  0  0
 10 18  1  0  0  0
 11 12  1  0  0  0
 11 30  1  0  0  0
 12 13  1  0  0  0
 13 28  1  0  0  0
 13 14  1  0  0  0
 13 29  1  0  0  0
 14 15  1  0  0  0
 15 16  1  0  0  0
 15 17  1  0  0  0
 18 32  1  0  0  0
 20 21  1  0  0  0
 23 22  1  0  0  0
 23 24  1  0  0  0
 23 25  1  0  0  0
 18 31  2  0  0  0
 19 20  2  0  0  0
 21 22  2  0  0  0
M  END
> <rmsd>
0.573925495

$$$$
PubChem-57282116


 19 18  0  0  0  0  0  0  0  0999 V2000
    2.9616   29.9452   57.8790 C   0  0  0  0  0
    2.0133   28.8263   58.2862 C   0  0  0  0  0
    1.8549   28.7955   59.7692 C   0  0  0  0  0
    2.1189   27.5112   61.9345 C   0  0  0  0  0
    0.6512   27.3024   62.2976 C   0  0  0  0  0
    0.3811   27.6971   63.7110 C   0  0  0  0  0
    2.9671   26.3810   62.4351 C   0  0  0  0  0
    2.7362   24.9803   61.9614 C   0  0  0  0  0
    3.3869   29.7901   56.4587 C   0  0  0  0  0
    1.3657   29.7865   60.3778 O   0  0  0  0  0
    0.8899   27.0494   64.6631 O   0  0  0  0  0
   -0.4556   28.7721   63.9769 O   0  0  0  0  0
    3.8697   26.6125   63.2234 O   0  0  0  0  0
    2.0817   22.9992   62.8833 O   0  0  0  0  0
    3.0980   30.6797   55.6173 O   0  0  0  0  0
    4.1121   28.6732   56.0638 O   0  0  0  0  0
    2.2640   27.6319   60.4904 N   0  0  0  0  0
    2.3212   24.1538   63.0618 N   0  0  0  0  0
    0.7166   29.0121   57.6551 N   0  0  0  0  0
  1  9  1  0  0  0
  2  1  1  0  0  0
  2  3  1  0  0  0
  2 19  1  0  0  0
  3 17  1  0  0  0
  4 17  1  0  0  0
  4  5  1  0  0  0
  4  7  1  0  0  0
  5  6  1  0  0  0
  6 12  1  0  0  0
  8  7  1  0  0  0
  8 18  1  0  0  0
  9 16  1  0  0  0
  3 10  2  0  0  0
  6 11  2  0  0  0
  7 13  2  0  0  0
  9 15  2  0  0  0
 18 14  2  0  0  0
M  END
> <rmsd>
0.734603286

$$$$
PubChem-21684909


 22 24  0  0  0  0  0  0  0  0999 V2000
    2.4286   32.9996   62.1148 C   0  0  0  0  0
    3.0339   32.8906   60.8545 C   0  0  0  0  0
    3.0126   31.6244   58.7781 C   0  0  0  0  0
    2.2202   30.5602   58.3717 C   0  0  0  0  0
    1.6005   31.0686   60.3198 C   0  0  0  0  0
    0.9598   31.1306   61.5605 C   0  0  0  0  0
    1.3916   32.1147   62.4646 C   0  0  0  0  0
   -0.1261   30.1758   61.9400 C   0  0  0  0  0
    0.4514   28.8348   62.3742 C   0  0  0  0  0
    1.0946   28.9308   63.7502 C   0  0  0  0  0
    1.8968   27.7057   64.0286 C   0  0  0  0  0
    2.5880   31.9257   60.0132 N   0  0  0  0  0
    1.3392   30.1925   59.3315 N   0  0  0  0  0
    1.3921   26.4612   64.1077 N   0  0  0  0  0
    2.4382   25.6951   64.3700 N   0  0  0  0  0
    3.5305   26.4391   64.4480 N   0  0  0  0  0
    3.2239   27.7090   64.2386 N   0  0  0  0  0
    0.1111   29.0836   64.7287 O   0  0  0  0  0
    3.4276   28.6056   56.9612 O   0  0  0  0  0
    2.8879   30.7851   55.6183 O   0  0  0  0  0
    0.9104   29.0165   56.3795 O   0  0  0  0  0
    2.3944   29.6990   56.8169 P   0  0  0  0  0
  2 12  1  0  0  0
  4 13  1  0  0  0
  5  6  1  0  0  0
  5 12  1  0  0  0
  7  1  1  0  0  0
  8  6  1  0  0  0
  8  9  1  0  0  0
 10  9  1  0  0  0
 10 11  1  0  0  0
 10 18  1  0  0  0
 11 17  1  0  0  0
 12  3  1  0  0  0
 15 14  1  0  0  0
 15 16  1  0  0  0
 22  4  1  0  0  0
 22 20  1  0  0  0
 22 21  1  0  0  0
  1  2  2  0  0  0
  3  4  2  0  0  0
  5 13  2  0  0  0
  6  7  2  0  0  0
 11 14  2  0  0  0
 16 17  2  0  0  0
 22 19  2  0  0  0
M  END
> <rmsd>
0.699742556

$$$$
PubChem-23305158 MolPort-047-972-179


 39 45  0  0  0  0  0  0  0  0999 V2000
   -4.3250   31.3512   63.4140 C   0  0  0  0  0
   -3.1333   30.4694   63.2220 C   0  0  0  0  0
   -1.9462   30.9041   63.6507 C   0  0  0  0  0
   -0.6821   30.0958   63.5441 C   0  0  0  0  0
   -0.7407   29.0093   62.3947 C   0  0  0  0  0
   -2.0867   28.2677   62.4848 C   0  0  0  0  0
   -3.2921   29.2090   62.4067 C   0  0  0  0  0
   -0.6524   29.7712   61.0544 C   0  0  0  0  0
    0.6796   28.8778   59.1974 C   0  0  0  0  0
    0.7262   28.1600   57.8715 C   0  0  0  0  0
    1.8098   28.5648   56.9202 C   0  0  0  0  0
    2.0803   27.7092   55.6882 C   0  0  0  0  0
    3.5728   27.3670   55.6053 C   0  0  0  0  0
    4.2741   29.0090   57.1116 C   0  0  0  0  0
    2.8567   29.6129   57.2891 C   0  0  0  0  0
    4.5496   27.8953   58.1230 C   0  0  0  0  0
    4.3386   27.9309   59.4383 C   0  0  0  0  0
    4.7859   26.7630   60.2063 C   0  0  0  0  0
    4.5171   26.4774   61.4855 C   0  0  0  0  0
    3.6519   27.2241   62.4010 C   0  0  0  0  0
    1.7548   28.8654   62.6270 C   0  0  0  0  0
    0.4609   28.0173   62.5827 C   0  0  0  0  0
    0.3691   27.5476   64.0103 C   0  0  0  0  0
   -0.3728   26.3721   64.5078 C   0  0  0  0  0
    0.7616   28.7024   64.8598 C   0  0  0  0  0
    1.9911   29.2489   64.1010 C   0  0  0  0  0
    0.4975   26.8618   61.5785 C   0  0  0  0  0
    5.3482   30.1141   57.3303 C   0  0  0  0  0
    5.4346   31.1024   56.1729 C   0  0  0  0  0
   -0.5237   28.9162   59.9217 O   0  0  0  0  0
    1.7217   29.4044   59.6858 O   0  0  0  0  0
    0.5165   29.1083   56.8495 O   0  0  0  0  0
    4.3860   28.5113   55.7801 O   0  0  0  0  0
    2.6781   30.7451   56.4844 O   0  0  0  0  0
    3.5952   26.8546   63.6014 O   0  0  0  0  0
    2.8872   28.3013   61.9486 O   0  0  0  0  0
    1.0352   26.3493   64.3202 O   0  0  0  0  0
   -0.3340   29.6149   64.8526 O   0  0  0  0  0
    6.6126   29.5623   57.5200 O   0  0  0  0  0
  1  2  1  0  0  0
  4  3  1  0  0  0
  4  5  1  0  0  0
  4 38  1  0  0  0
  5  6  1  0  0  0
  5  8  1  0  0  0
  6  7  1  0  0  0
  7  2  1  0  0  0
  8 30  1  0  0  0
  9 30  1  0  0  0
 10  9  1  0  0  0
 10 11  1  0  0  0
 10 32  1  0  0  0
 11 32  1  0  0  0
 11 12  1  0  0  0
 12 13  1  0  0  0
 13 33  1  0  0  0
 14 33  1  0  0  0
 14 15  1  0  0  0
 14 16  1  0  0  0
 14 28  1  0  0  0
 15 34  1  0  0  0
 15 11  1  0  0  0
 17 18  1  0  0  0
 19 20  1  0  0  0
 20 36  1  0  0  0
 21 36  1  0  0  0
 21 22  1  0  0  0
 22 23  1  0  0  0
 22 27  1  0  0  0
 22  5  1  0  0  0
 23 24  1  0  0  0
 23 25  1  0  0  0
 23 37  1  0  0  0
 24 37  1  0  0  0
 25 26  1  0  0  0
 25 38  1  0  0  0
 26 21  1  0  0  0
 28 29  1  0  0  0
 28 39  1  0  0  0
  2  3  2  0  0  0
  9 31  2  0  0  0
 16 17  2  0  0  0
 18 19  2  0  0  0
 20 35  2  0  0  0
M  END
> <rmsd>
0.792489886

$$$$
PubChem-144547845 PubChem-144547846


 23 24  0  0  0  0  0  0  0  0999 V2000
    0.7993   27.8934   63.6098 B   0  0  0  0  0
    1.7081   27.5916   62.3288 C   0  0  0  0  0
    2.6069   26.3807   62.5720 C   0  0  0  0  0
    2.9742   26.0681   64.7681 C   0  0  0  0  0
    1.9294   26.9946   65.3999 C   0  0  0  0  0
    0.8673   28.1975   60.0277 C   0  0  0  0  0
   -0.0511   27.9280   58.8934 C   0  0  0  0  0
    1.7339   29.2287   56.0138 C   0  0  0  0  0
    3.0743   29.8664   55.9336 C   0  0  0  0  0
   -1.3510   27.2573   59.1116 C   0  0  0  0  0
   -2.1832   26.7805   58.1070 C   0  0  0  0  0
   -3.3759   26.2261   58.5942 C   0  0  0  0  0
   -3.5068   26.2657   59.9797 C   0  0  0  0  0
    3.5116   26.6532   63.6102 O   0  0  0  0  0
    0.7205   26.9055   64.6949 O   0  0  0  0  0
    1.6658   29.1727   59.9808 O   0  0  0  0  0
    1.4561   28.8790   57.3572 O   0  0  0  0  0
    4.0902   29.1668   55.6863 O   0  0  0  0  0
    3.2110   31.2270   56.1735 O   0  0  0  0  0
    0.1376   29.1877   63.7479 O   0  0  0  0  0
    0.8574   27.3474   61.1767 N   0  0  0  0  0
    0.2630   28.2721   57.6787 N   0  0  0  0  0
   -2.1205   26.9995   60.5835 S   0  0  0  0  0
  1 20  1  0  0  0
  1 15  1  0  0  0
  2  1  1  0  0  0
  2  3  1  0  0  0
  2 21  1  0  0  0
  3 14  1  0  0  0
  4 14  1  0  0  0
  4  5  1  0  0  0
  5 15  1  0  0  0
  6  7  1  0  0  0
  7 10  1  0  0  0
  8 17  1  0  0  0
  8  9  1  0  0  0
  9 19  1  0  0  0
 10 23  1  0  0  0
 11 12  1  0  0  0
 13 23  1  0  0  0
 21  6  1  0  0  0
 22 17  1  0  0  0
  6 16  2  0  0  0
  7 22  2  0  0  0
  9 18  2  0  0  0
 10 11  2  0  0  0
 12 13  2  0  0  0
M  END
> <rmsd>
0.749040246

$$$$
PubChem-144547845 PubChem-144547846


 23 24  0  0  0  0  0  0  0  0999 V2000
    0.7643   27.8758   63.7207 B   0  0  0  0  0
    1.6170   27.5445   62.4087 C   0  0  0  0  0
    2.5149   26.3297   62.6354 C   0  0  0  0  0
    2.9696   26.0503   64.8195 C   0  0  0  0  0
    1.9596   26.9966   65.4779 C   0  0  0  0  0
    0.6872   28.1197   60.1342 C   0  0  0  0  0
   -0.2794   27.8397   59.0433 C   0  0  0  0  0
    1.3963   29.0761   56.0711 C   0  0  0  0  0
    2.7376   29.7002   55.9252 C   0  0  0  0  0
   -1.5748   27.1846   59.3259 C   0  0  0  0  0
   -2.4516   26.6988   58.3647 C   0  0  0  0  0
   -3.6279   26.1635   58.9097 C   0  0  0  0  0
   -3.7013   26.2273   60.2985 C   0  0  0  0  0
    3.4637   26.6112   63.6308 O   0  0  0  0  0
    0.7220   26.9068   64.8247 O   0  0  0  0  0
    1.4913   29.0866   60.0379 O   0  0  0  0  0
    1.1712   28.7514   57.4306 O   0  0  0  0  0
    3.7366   28.9874   55.6483 O   0  0  0  0  0
    2.8956   31.0633   56.1361 O   0  0  0  0  0
    0.1197   29.1782   63.8638 O   0  0  0  0  0
    0.7175   27.2890   61.2968 N   0  0  0  0  0
   -0.0126   28.1607   57.8110 N   0  0  0  0  0
   -2.2851   26.9584   60.8324 S   0  0  0  0  0
  1 20  1  0  0  0
  1 15  1  0  0  0
  2  1  1  0  0  0
  2  3  1  0  0  0
  2 21  1  0  0  0
  3 14  1  0  0  0
  4 14  1  0  0  0
  4  5  1  0  0  0
  5 15  1  0  0  0
  6  7  1  0  0  0
  7 10  1  0  0  0
  8 17  1  0  0  0
  8  9  1  0  0  0
  9 19  1  0  0  0
 10 23  1  0  0  0
 11 12  1  0  0  0
 13 23  1  0  0  0
 21  6  1  0  0  0
 22 17  1  0  0  0
  6 16  2  0  0  0
  7 22  2  0  0  0
  9 18  2  0  0  0
 10 11  2  0  0  0
 12 13  2  0  0  0
M  END
> <rmsd>
0.69326371

$$$$
PubChem-162906960


 31 33  0  0  0  0  0  0  0  0999 V2000
    4.5689   25.6214   62.8073 C   0  0  0  0  0
    2.8422   27.3481   63.2242 C   0  0  0  0  0
    3.4343   28.2328   62.3113 C   0  0  0  0  0
    2.8756   29.4882   62.0769 C   0  0  0  0  0
    3.5077   30.4281   61.1061 C   0  0  0  0  0
    3.3969   29.9146   59.6704 C   0  0  0  0  0
    4.5614   30.5158   58.8262 C   0  0  0  0  0
    4.0126   31.2161   57.5540 C   0  0  0  0  0
    2.9998   32.2397   58.0452 C   0  0  0  0  0
    3.1449   33.6954   57.7468 C   0  0  0  0  0
    2.0697   34.1452   56.8151 C   0  0  0  0  0
    2.0227   35.4119   56.4169 C   0  0  0  0  0
    1.9882   31.7537   58.7941 C   0  0  0  0  0
    2.0261   30.2386   59.0013 C   0  0  0  0  0
   -0.2752   30.1418   59.2365 C   0  0  0  0  0
    2.1243   29.6077   57.6147 C   0  0  0  0  0
    3.2444   30.1392   56.7041 C   0  0  0  0  0
    3.6662   31.2426   54.7200 C   0  0  0  0  0
    3.5493   28.1956   55.4733 C   0  0  0  0  0
    1.7247   29.8709   62.7625 C   0  0  0  0  0
    1.1105   29.0048   63.6810 C   0  0  0  0  0
   -0.6615   30.6744   64.1528 C   0  0  0  0  0
    1.6766   27.7246   63.9149 C   0  0  0  0  0
   -0.0385   26.9976   65.5929 C   0  0  0  0  0
    3.3956   26.0848   63.4621 O   0  0  0  0  0
    0.9549   29.7309   59.7805 O   0  0  0  0  0
    1.3538   28.7330   57.2465 O   0  0  0  0  0
    2.6549   30.7360   55.5556 O   0  0  0  0  0
    4.1558   29.0999   56.3631 O   0  0  0  0  0
   -0.0487   29.4076   64.3543 O   0  0  0  0  0
    1.1313   26.7925   64.8140 O   0  0  0  0  0
  1 25  1  0  0  0
  2 25  1  0  0  0
  3  4  1  0  0  0
  5  4  1  0  0  0
  6  5  1  0  0  0
  6  7  1  0  0  0
  8  7  1  0  0  0
  8  9  1  0  0  0
 10  9  1  0  0  0
 10 11  1  0  0  0
 14 13  1  0  0  0
 14 26  1  0  0  0
 14 16  1  0  0  0
 14  6  1  0  0  0
 15 26  1  0  0  0
 17 16  1  0  0  0
 17 28  1  0  0  0
 17 29  1  0  0  0
 17  8  1  0  0  0
 18 28  1  0  0  0
 19 29  1  0  0  0
 20 21  1  0  0  0
 21 30  1  0  0  0
 22 30  1  0  0  0
 23 31  1  0  0  0
 23  2  1  0  0  0
 24 31  1  0  0  0
  2  3  2  0  0  0
  4 20  2  0  0  0
  9 13  2  0  0  0
 11 12  2  0  0  0
 16 27  2  0  0  0
 21 23  2  0  0  0
M  END
> <rmsd>
0.563996732

$$$$
PubChem-162906960


 31 33  0  0  0  0  0  0  0  0999 V2000
   -0.6614   30.6745   64.1532 C   0  0  0  0  0
    1.1106   29.0049   63.6811 C   0  0  0  0  0
    1.7248   29.8709   62.7627 C   0  0  0  0  0
    2.8756   29.4882   62.0770 C   0  0  0  0  0
    3.5077   30.4280   61.1062 C   0  0  0  0  0
    3.3968   29.9146   59.6704 C   0  0  0  0  0
    4.5612   30.5157   58.8263 C   0  0  0  0  0
    4.0126   31.2162   57.5541 C   0  0  0  0  0
    2.9998   32.2396   58.0454 C   0  0  0  0  0
    3.1450   33.6954   57.7470 C   0  0  0  0  0
    2.0698   34.1453   56.8155 C   0  0  0  0  0
    2.0228   35.4121   56.4173 C   0  0  0  0  0
    1.9883   31.7538   58.7943 C   0  0  0  0  0
    2.0261   30.2386   59.0014 C   0  0  0  0  0
   -0.2752   30.1419   59.2367 C   0  0  0  0  0
    2.1241   29.6077   57.6149 C   0  0  0  0  0
    3.2442   30.1393   56.7042 C   0  0  0  0  0
    3.5491   28.1957   55.4734 C   0  0  0  0  0
    3.6660   31.2426   54.7201 C   0  0  0  0  0
    3.4343   28.2327   62.3114 C   0  0  0  0  0
    2.8422   27.3481   63.2243 C   0  0  0  0  0
    4.5688   25.6213   62.8074 C   0  0  0  0  0
    1.6766   27.7246   63.9151 C   0  0  0  0  0
   -0.0384   26.9978   65.5932 C   0  0  0  0  0
   -0.0485   29.4077   64.3546 O   0  0  0  0  0
    0.9549   29.7311   59.7806 O   0  0  0  0  0
    1.3536   28.7331   57.2466 O   0  0  0  0  0
    4.1555   29.0999   56.3632 O   0  0  0  0  0
    2.6547   30.7362   55.5557 O   0  0  0  0  0
    3.3955   26.0846   63.4622 O   0  0  0  0  0
    1.1314   26.7925   64.8141 O   0  0  0  0  0
  1 25  1  0  0  0
  2 25  1  0  0  0
  3  4  1  0  0  0
  5  4  1  0  0  0
  6  5  1  0  0  0
  6  7  1  0  0  0
  8  7  1  0  0  0
  8  9  1  0  0  0
 10  9  1  0  0  0
 10 11  1  0  0  0
 14 13  1  0  0  0
 14 26  1  0  0  0
 14 16  1  0  0  0
 14  6  1  0  0  0
 15 26  1  0  0  0
 17 16  1  0  0  0
 17 28  1  0  0  0
 17 29  1  0  0  0
 17  8  1  0  0  0
 18 28  1  0  0  0
 19 29  1  0  0  0
 20 21  1  0  0  0
 21 30  1  0  0  0
 22 30  1  0  0  0
 23 31  1  0  0  0
 23  2  1  0  0  0
 24 31  1  0  0  0
  2  3  2  0  0  0
  4 20  2  0  0  0
  9 13  2  0  0  0
 11 12  2  0  0  0
 16 27  2  0  0  0
 21 23  2  0  0  0
M  END
> <rmsd>
0.564032197

$$$$
PubChem-162906960


 31 33  0  0  0  0  0  0  0  0999 V2000
   -0.6563   30.6177   64.1906 C   0  0  0  0  0
    1.1335   28.9829   63.6801 C   0  0  0  0  0
    1.7378   29.8550   62.7635 C   0  0  0  0  0
    2.8864   29.4742   62.0742 C   0  0  0  0  0
    3.5148   30.4158   61.1028 C   0  0  0  0  0
    3.4060   29.9021   59.6668 C   0  0  0  0  0
    4.5609   30.5197   58.8213 C   0  0  0  0  0
    3.9992   31.2280   57.5597 C   0  0  0  0  0
    2.9791   32.2346   58.0709 C   0  0  0  0  0
    3.0863   33.6937   57.7580 C   0  0  0  0  0
    3.3813   34.4939   58.9877 C   0  0  0  0  0
    4.5749   34.4306   59.5737 C   0  0  0  0  0
    1.9680   31.7269   58.8054 C   0  0  0  0  0
    2.0290   30.2114   59.0021 C   0  0  0  0  0
   -0.2704   30.0795   59.2416 C   0  0  0  0  0
    2.1325   29.5940   57.6103 C   0  0  0  0  0
    3.2409   30.1511   56.7009 C   0  0  0  0  0
    3.5660   28.2265   55.4453 C   0  0  0  0  0
    3.6387   31.2819   54.7275 C   0  0  0  0  0
    3.4471   28.2184   62.3056 C   0  0  0  0  0
    2.8635   27.3257   63.2188 C   0  0  0  0  0
    4.6141   25.6291   62.7628 C   0  0  0  0  0
    1.6890   27.7126   63.9152 C   0  0  0  0  0
    1.4484   25.5751   65.2031 C   0  0  0  0  0
   -0.0244   29.3575   64.3715 O   0  0  0  0  0
    0.9668   29.6822   59.7794 O   0  0  0  0  0
    1.3746   28.7105   57.2370 O   0  0  0  0  0
    4.1643   29.1279   56.3435 O   0  0  0  0  0
    2.6380   30.7536   55.5624 O   0  0  0  0  0
    3.4406   26.0688   63.4343 O   0  0  0  0  0
    1.0353   26.8859   64.8445 O   0  0  0  0  0
  1 25  1  0  0  0
  2 25  1  0  0  0
  3  4  1  0  0  0
  5  4  1  0  0  0
  6  5  1  0  0  0
  6  7  1  0  0  0
  8  7  1  0  0  0
  8  9  1  0  0  0
 10  9  1  0  0  0
 10 11  1  0  0  0
 14 13  1  0  0  0
 14 26  1  0  0  0
 14 16  1  0  0  0
 14  6  1  0  0  0
 15 26  1  0  0  0
 17 16  1  0  0  0
 17 28  1  0  0  0
 17 29  1  0  0  0
 17  8  1  0  0  0
 18 28  1  0  0  0
 19 29  1  0  0  0
 20 21  1  0  0  0
 21 30  1  0  0  0
 22 30  1  0  0  0
 23 31  1  0  0  0
 23  2  1  0  0  0
 24 31  1  0  0  0
  2  3  2  0  0  0
  4 20  2  0  0  0
  9 13  2  0  0  0
 11 12  2  0  0  0
 16 27  2  0  0  0
 21 23  2  0  0  0
M  END
> <rmsd>
0.553352416

$$$$
PubChem-162906960


 31 33  0  0  0  0  0  0  0  0999 V2000
   -0.6547   30.6236   64.1877 C   0  0  0  0  0
    1.1326   28.9858   63.6775 C   0  0  0  0  0
    1.7387   29.8573   62.7614 C   0  0  0  0  0
    2.8870   29.4745   62.0724 C   0  0  0  0  0
    3.5174   30.4152   61.1013 C   0  0  0  0  0
    3.4042   29.9032   59.6651 C   0  0  0  0  0
    4.5605   30.5139   58.8162 C   0  0  0  0  0
    4.0005   31.2271   57.5554 C   0  0  0  0  0
    2.9824   32.2374   58.0627 C   0  0  0  0  0
    3.1170   33.7005   57.7799 C   0  0  0  0  0
    2.0947   34.1629   56.7893 C   0  0  0  0  0
    0.8224   34.3312   57.1425 C   0  0  0  0  0
    1.9764   31.7343   58.8080 C   0  0  0  0  0
    2.0289   30.2181   59.0015 C   0  0  0  0  0
   -0.2695   30.0800   59.2231 C   0  0  0  0  0
    2.1344   29.5941   57.6127 C   0  0  0  0  0
    3.2309   30.1600   56.6949 C   0  0  0  0  0
    2.0617   29.8746   54.7129 C   0  0  0  0  0
    5.1106   29.6102   55.4726 C   0  0  0  0  0
    3.4453   28.2177   62.3037 C   0  0  0  0  0
    2.8598   27.3258   63.2163 C   0  0  0  0  0
    4.6075   25.6262   62.7603 C   0  0  0  0  0
    1.6857   27.7146   63.9123 C   0  0  0  0  0
    1.4409   25.5770   65.1996 C   0  0  0  0  0
   -0.0251   29.3622   64.3685 O   0  0  0  0  0
    0.9639   29.6953   59.7784 O   0  0  0  0  0
    1.4361   28.6495   57.2742 O   0  0  0  0  0
    2.6560   30.8170   55.5706 O   0  0  0  0  0
    4.1020   29.1034   56.3112 O   0  0  0  0  0
    3.4346   26.0678   63.4316 O   0  0  0  0  0
    1.0302   26.8885   64.8412 O   0  0  0  0  0
  1 25  1  0  0  0
  2 25  1  0  0  0
  3  4  1  0  0  0
  5  4  1  0  0  0
  6  5  1  0  0  0
  6  7  1  0  0  0
  8  7  1  0  0  0
  8  9  1  0  0  0
 10  9  1  0  0  0
 10 11  1  0  0  0
 14 13  1  0  0  0
 14 26  1  0  0  0
 14 16  1  0  0  0
 14  6  1  0  0  0
 15 26  1  0  0  0
 17 16  1  0  0  0
 17 28  1  0  0  0
 17 29  1  0  0  0
 17  8  1  0  0  0
 18 28  1  0  0  0
 19 29  1  0  0  0
 20 21  1  0  0  0
 21 30  1  0  0  0
 22 30  1  0  0  0
 23 31  1  0  0  0
 23  2  1  0  0  0
 24 31  1  0  0  0
  2  3  2  0  0  0
  4 20  2  0  0  0
  9 13  2  0  0  0
 11 12  2  0  0  0
 16 27  2  0  0  0
 21 23  2  0  0  0
M  END
> <rmsd>
0.551532269

$$$$
PubChem-69245806


 27 29  0  0  0  0  0  0  0  0999 V2000
    1.8369   28.7267   64.3901 C   0  0  0  0  0
    0.8700   29.1720   63.3344 C   0  0  0  0  0
    0.0823   27.9205   63.0052 C   0  0  0  0  0
    1.4971   27.2642   64.5919 C   0  0  0  0  0
    2.8184   25.8382   66.0198 C   0  0  0  0  0
    3.9315   25.0501   66.3036 C   0  0  0  0  0
    4.9118   24.9149   65.3255 C   0  0  0  0  0
    3.6765   26.3077   63.8659 C   0  0  0  0  0
   -0.1708   27.8076   61.5083 C   0  0  0  0  0
    1.4411   28.6262   59.8346 C   0  0  0  0  0
    2.7322   28.4520   59.1408 C   0  0  0  0  0
    4.9758   27.6787   59.3049 C   0  0  0  0  0
    5.2657   28.2296   58.0614 C   0  0  0  0  0
    3.0173   28.9787   57.8539 C   0  0  0  0  0
    1.9992   29.5840   56.9727 C   0  0  0  0  0
    0.7879   26.8011   63.4727 O   0  0  0  0  0
    3.5783   26.8709   62.7430 O   0  0  0  0  0
    1.0551   27.6900   60.7963 O   0  0  0  0  0
    0.7267   29.6433   59.6192 O   0  0  0  0  0
    2.3431   30.4463   56.1220 O   0  0  0  0  0
    0.6781   29.1538   57.0029 O   0  0  0  0  0
    0.0135   30.1398   63.8581 O   0  0  0  0  0
    2.6986   26.4598   64.8155 N   0  0  0  0  0
    4.7676   25.5417   64.1304 N   0  0  0  0  0
    6.0633   24.1189   65.5771 N   0  0  0  0  0
    3.7236   27.8043   59.8120 N   0  0  0  0  0
    4.2844   28.8610   57.3688 N   0  0  0  0  0
  1  2  1  0  0  0
  2  3  1  0  0  0
  2 22  1  0  0  0
  3 16  1  0  0  0
  3  9  1  0  0  0
  4 16  1  0  0  0
  4 23  1  0  0  0
  4  1  1  0  0  0
  6  7  1  0  0  0
  7 25  1  0  0  0
  8 24  1  0  0  0
  8 23  1  0  0  0
  9 18  1  0  0  0
 10 18  1  0  0  0
 10 11  1  0  0  0
 12 26  1  0  0  0
 13 27  1  0  0  0
 14 15  1  0  0  0
 14 11  1  0  0  0
 15 21  1  0  0  0
 23  5  1  0  0  0
  5  6  2  0  0  0
  7 24  2  0  0  0
  8 17  2  0  0  0
 10 19  2  0  0  0
 11 26  2  0  0  0
 12 13  2  0  0  0
 14 27  2  0  0  0
 15 20  2  0  0  0
M  END
> <rmsd>
0.86070925

$$$$
PubChem-91011909


 32 34  0  0  0  0  0  0  0  0999 V2000
    4.7123   30.5657   62.6526 C   0  0  0  0  0
    3.3757   30.2456   62.0064 C   0  0  0  0  0
    3.3267   28.7820   61.5341 C   0  0  0  0  0
    2.8330   27.7944   62.5981 C   0  0  0  0  0
    1.6119   28.2784   63.3208 C   0  0  0  0  0
    1.3712   29.7313   63.5138 C   0  0  0  0  0
    2.2250   30.6675   62.8833 C   0  0  0  0  0
    1.9947   32.0390   63.0440 C   0  0  0  0  0
    0.9364   32.4946   63.8274 C   0  0  0  0  0
    0.0941   31.5806   64.4568 C   0  0  0  0  0
    0.3011   30.2074   64.3071 C   0  0  0  0  0
    3.9153   27.4001   63.5526 C   0  0  0  0  0
    2.5478   28.6028   60.2258 C   0  0  0  0  0
    3.3307   29.0969   59.0007 C   0  0  0  0  0
    3.5003   30.6217   58.9154 C   0  0  0  0  0
    2.2337   31.2790   58.4575 C   0  0  0  0  0
    1.4946   30.7392   57.2673 C   0  0  0  0  0
    1.5593   29.2348   57.2247 C   0  0  0  0  0
    2.7966   28.4860   57.6855 C   0  0  0  0  0
    3.3260   27.7514   55.4814 C   0  0  0  0  0
    4.9603   27.6729   57.1112 C   0  0  0  0  0
    1.9776   31.3505   55.9891 C   0  0  0  0  0
    0.7992   27.4224   63.7614 O   0  0  0  0  0
   -0.5634   29.3338   64.9566 O   0  0  0  0  0
    4.4472   26.2645   63.4519 O   0  0  0  0  0
    4.3293   28.2660   64.5578 O   0  0  0  0  0
    1.7973   32.2450   59.0611 O   0  0  0  0  0
    0.6098   28.6082   56.7830 O   0  0  0  0  0
    3.1989   31.3211   55.6812 O   0  0  0  0  0
    1.2693   29.1656   60.2985 O   0  0  0  0  0
    3.8351   28.4699   56.6417 N   0  0  0  0  0
    1.0425   31.9533   55.1032 N   0  0  0  0  0
  1  2  1  0  0  0
  2  3  1  0  0  0
  2  7  1  0  0  0
  3  4  1  0  0  0
  4  5  1  0  0  0
  4 12  1  0  0  0
  5  6  1  0  0  0
  7  8  1  0  0  0
  9 10  1  0  0  0
 11 24  1  0  0  0
 11  6  1  0  0  0
 12 26  1  0  0  0
 13  3  1  0  0  0
 13 14  1  0  0  0
 13 30  1  0  0  0
 14 15  1  0  0  0
 15 16  1  0  0  0
 17 16  1  0  0  0
 17 18  1  0  0  0
 17 22  1  0  0  0
 19 18  1  0  0  0
 19 31  1  0  0  0
 19 14  1  0  0  0
 20 31  1  0  0  0
 21 31  1  0  0  0
 22 32  1  0  0  0
  5 23  2  0  0  0
  6  7  2  0  0  0
  8  9  2  0  0  0
 10 11  2  0  0  0
 12 25  2  0  0  0
 16 27  2  0  0  0
 18 28  2  0  0  0
 22 29  2  0  0  0
M  END
> <rmsd>
0.718623817

$$$$
PubChem-103202312


 19 19  0  0  0  0  0  0  0  0999 V2000
    4.7633   25.8197   63.6041 C   0  0  0  0  0
    3.0856   27.3691   62.6382 C   0  0  0  0  0
    1.8402   28.0338   62.7480 C   0  0  0  0  0
    1.4280   28.8840   61.7101 C   0  0  0  0  0
    2.2196   29.0835   60.5776 C   0  0  0  0  0
    3.4509   28.4247   60.4763 C   0  0  0  0  0
    3.8781   27.5760   61.4968 C   0  0  0  0  0
    2.4668   30.1725   58.3583 C   0  0  0  0  0
    1.9875   31.4781   57.7393 C   0  0  0  0  0
    3.0469   32.0786   56.8286 C   0  0  0  0  0
    2.2473   29.0301   57.4181 C   0  0  0  0  0
    3.5242   26.5143   63.6567 O   0  0  0  0  0
    1.7609   29.9436   59.5739 O   0  0  0  0  0
    3.2311   28.3676   56.9988 O   0  0  0  0  0
    0.9625   28.6916   57.0113 O   0  0  0  0  0
    1.2956   27.1253   64.8423 O   0  0  0  0  0
   -0.2224   28.5375   63.9469 O   0  0  0  0  0
    3.0460   31.4038   55.5424 N   0  0  0  0  0
    0.9789   27.8680   63.8905 N   0  0  0  0  0
  1 12  1  0  0  0
  2 12  1  0  0  0
  3  4  1  0  0  0
  3 19  1  0  0  0
  5  6  1  0  0  0
  5 13  1  0  0  0
  7  2  1  0  0  0
  8 13  1  0  0  0
  8  9  1  0  0  0
  8 11  1  0  0  0
  9 10  1  0  0  0
 10 18  1  0  0  0
 11 15  1  0  0  0
 19 17  1  0  0  0
  2  3  2  0  0  0
  4  5  2  0  0  0
  6  7  2  0  0  0
 11 14  2  0  0  0
 19 16  2  0  0  0
M  CHG  2  19   1  17  -1
M  END
> <rmsd>
0.749931872

$$$$
PubChem-2051383


 25 26  0  0  0  0  0  0  0  0999 V2000
    2.0958   29.3404   60.4223 C   0  0  0  0  0
    2.1894   28.5493   61.7237 C   0  0  0  0  0
   -0.2786   28.8603   61.9736 C   0  0  0  0  0
   -0.2522   29.6295   60.6543 C   0  0  0  0  0
    0.7694   29.8852   58.5656 C   0  0  0  0  0
    1.2272   29.0417   57.3854 C   0  0  0  0  0
    1.4577   29.9239   56.1710 C   0  0  0  0  0
    1.2373   29.3986   63.9069 C   0  0  0  0  0
    2.5453   29.3142   64.5863 C   0  0  0  0  0
    3.1271   30.5158   65.0135 C   0  0  0  0  0
    4.3919   30.5282   65.6018 C   0  0  0  0  0
    5.0923   29.3352   65.7696 C   0  0  0  0  0
    4.5199   28.1283   65.3658 C   0  0  0  0  0
    3.2425   28.0922   64.7840 C   0  0  0  0  0
    2.6679   26.7654   64.4596 C   0  0  0  0  0
    1.0525   28.8974   62.5724 N   0  0  0  0  0
    0.7990   29.0974   59.7867 N   0  0  0  0  0
    3.0354   30.7485   56.2762 S   0  0  0  0  0
    3.3071   31.4615   54.9823 O   0  0  0  0  0
    3.0174   31.7472   57.3988 O   0  0  0  0  0
    4.2470   29.6181   56.5527 O   0  0  0  0  0
    0.2502   28.0926   57.0854 O   0  0  0  0  0
    0.2792   29.9635   64.5015 O   0  0  0  0  0
    3.4222   25.7623   64.3469 O   0  0  0  0  0
    1.2962   26.5904   64.3219 O   0  0  0  0  0
  1  2  1  0  0  0
  1 17  1  0  0  0
  2 16  1  0  0  0
  3 16  1  0  0  0
  3  4  1  0  0  0
  4 17  1  0  0  0
  5 17  1  0  0  0
  6  5  1  0  0  0
  6  7  1  0  0  0
  6 22  1  0  0  0
  7 18  1  0  0  0
  8  9  1  0  0  0
 10 11  1  0  0  0
 12 13  1  0  0  0
 14 15  1  0  0  0
 14  9  1  0  0  0
 15 25  1  0  0  0
 16  8  1  0  0  0
 18 21  1  0  0  0
  8 23  2  0  0  0
  9 10  2  0  0  0
 11 12  2  0  0  0
 13 14  2  0  0  0
 15 24  2  0  0  0
 18 19  2  0  0  0
 18 20  2  0  0  0
M  END
> <rmsd>
0.810931027

$$$$
PubChem-22898142


 25 27  0  0  0  0  0  0  0  0999 V2000
    1.1039   25.8254   67.3407 C   0  0  0  0  0
    3.4409   27.1035   63.1776 C   0  0  0  0  0
    3.3950   27.6674   61.7937 C   0  0  0  0  0
    3.0740   26.5647   60.7993 C   0  0  0  0  0
    1.7268   26.8681   60.1674 C   0  0  0  0  0
    1.1761   28.1557   60.8123 C   0  0  0  0  0
    2.1957   28.6372   61.8298 C   0  0  0  0  0
    1.6532   28.4907   63.2152 C   0  0  0  0  0
    1.0933   29.1217   59.6743 C   0  0  0  0  0
    1.9038   27.2325   58.7283 C   0  0  0  0  0
    3.1265   31.2447   57.9333 C   0  0  0  0  0
    1.2717   26.0873   65.5917 S   0  0  0  0  0
    2.8156   29.8897   56.8234 S   0  0  0  0  0
    1.8571   24.8521   64.9661 O   0  0  0  0  0
   -0.0858   26.3571   65.0052 O   0  0  0  0  0
    2.2902   27.4087   65.3328 O   0  0  0  0  0
    4.3451   26.3348   63.5988 O   0  0  0  0  0
    0.6831   29.1528   63.6697 O   0  0  0  0  0
    0.6193   30.2847   59.7673 O   0  0  0  0  0
    2.2791   26.4276   57.8354 O   0  0  0  0  0
    1.3721   29.1109   57.2279 O   0  0  0  0  0
    2.7019   30.4277   55.4256 O   0  0  0  0  0
    3.9612   28.9180   56.8812 O   0  0  0  0  0
    2.3735   27.5522   63.9862 N   0  0  0  0  0
    1.5687   28.5783   58.4604 N   0  0  0  0  0
  1 12  1  0  0  0
  3  2  1  0  0  0
  3  4  1  0  0  0
  5  4  1  0  0  0
  5  6  1  0  0  0
  5 10  1  0  0  0
  6  7  1  0  0  0
  6  9  1  0  0  0
  7  8  1  0  0  0
  7  3  1  0  0  0
  8 24  1  0  0  0
  9 25  1  0  0  0
 12 16  1  0  0  0
 13 21  1  0  0  0
 13 11  1  0  0  0
 24 16  1  0  0  0
 24  2  1  0  0  0
 25 10  1  0  0  0
 25 21  1  0  0  0
  2 17  2  0  0  0
  8 18  2  0  0  0
  9 19  2  0  0  0
 10 20  2  0  0  0
 12 14  2  0  0  0
 12 15  2  0  0  0
 13 22  2  0  0  0
 13 23  2  0  0  0
M  END
> <rmsd>
0.756333768

$$$$
PubChem-91613557


 29 30  0  0  0  0  0  0  0  0999 V2000
    2.0895   26.7488   54.5745 C   0  0  0  0  0
    1.4830   27.7363   56.7840 C   0  0  0  0  0
    0.7206   28.1792   58.6894 C   0  0  0  0  0
    0.2156   26.9546   58.2964 C   0  0  0  0  0
    0.4331   28.8523   59.9598 C   0  0  0  0  0
   -0.8014   28.8143   62.2070 C   0  0  0  0  0
   -1.5466   30.1342   62.0153 C   0  0  0  0  0
   -2.9337   29.9068   61.5147 C   0  0  0  0  0
   -4.0231   30.2316   62.3272 C   0  0  0  0  0
   -5.3179   30.0292   61.8457 C   0  0  0  0  0
   -5.5103   29.5120   60.5634 C   0  0  0  0  0
   -4.3968   29.2061   59.7778 C   0  0  0  0  0
    0.4324   29.0037   63.0934 C   0  0  0  0  0
    1.1702   27.6823   63.3040 C   0  0  0  0  0
    2.5329   27.9340   63.9282 C   0  0  0  0  0
    3.3633   26.7299   63.8381 C   0  0  0  0  0
    3.9462   29.0335   53.5891 C   0  0  0  0  0
    2.1977   27.8247   55.5462 N   0  0  0  0  0
    1.5269   28.6863   57.7379 N   0  0  0  0  0
   -0.4375   28.2319   60.9145 N   0  0  0  0  0
   -3.1428   29.4100   60.2639 N   0  0  0  0  0
    4.0196   25.7795   63.7673 N   0  0  0  0  0
    0.7160   26.7199   57.1067 O   0  0  0  0  0
    0.9538   29.9740   60.2045 O   0  0  0  0  0
    0.4193   26.8236   64.1125 O   0  0  0  0  0
    0.0643   29.5527   64.3261 O   0  0  0  0  0
    2.3454   30.4457   55.1978 O   0  0  0  0  0
    4.2730   29.3226   56.2261 O   0  0  0  0  0
    3.1903   29.2032   55.1912 S   0  0  0  0  0
  1 18  1  0  0  0
  2 23  1  0  0  0
  3 19  1  0  0  0
  3  5  1  0  0  0
  4 23  1  0  0  0
  5 20  1  0  0  0
  6 20  1  0  0  0
  6  7  1  0  0  0
  6 13  1  0  0  0
  7  8  1  0  0  0
  8 21  1  0  0  0
  9 10  1  0  0  0
 11 12  1  0  0  0
 13 14  1  0  0  0
 13 26  1  0  0  0
 14 15  1  0  0  0
 14 25  1  0  0  0
 15 16  1  0  0  0
 18  2  1  0  0  0
 29 18  1  0  0  0
 29 17  1  0  0  0
  2 19  2  0  0  0
  3  4  2  0  0  0
  5 24  2  0  0  0
  8  9  2  0  0  0
 10 11  2  0  0  0
 12 21  2  0  0  0
 29 27  2  0  0  0
 29 28  2  0  0  0
 16 22  3  0  0  0
M  END
> <rmsd>
0.679371178

$$$$
PubChem-145754922


 34 39  0  0  0  0  0  0  0  0999 V2000
    6.1173   30.2135   57.9306 C   0  0  0  0  0
    6.6881   30.5698   56.5827 C   0  0  0  0  0
    5.2828   28.8738   56.1543 C   0  0  0  0  0
    5.3378   28.9667   57.6601 C   0  0  0  0  0
    3.9170   29.1592   58.0777 C   0  0  0  0  0
    3.1348   28.6968   56.8689 C   0  0  0  0  0
    0.6053   29.0954   56.7902 C   0  0  0  0  0
   -0.3800   30.2021   56.6126 C   0  0  0  0  0
    0.4989   31.4491   56.4029 C   0  0  0  0  0
    1.8933   30.9213   56.4580 C   0  0  0  0  0
    2.5215   28.5293   60.0130 C   0  0  0  0  0
    1.1664   27.7803   61.9331 C   0  0  0  0  0
   -0.1119   27.1852   61.3907 C   0  0  0  0  0
    0.1056   26.0784   60.3957 C   0  0  0  0  0
   -0.8110   24.9967   60.8959 C   0  0  0  0  0
   -0.7107   26.4721   62.5878 C   0  0  0  0  0
    1.3908   27.0129   63.2109 C   0  0  0  0  0
    1.6205   29.0477   64.7859 C   0  0  0  0  0
    2.6137   29.6439   65.7252 C   0  0  0  0  0
    3.7878   28.6496   65.7061 C   0  0  0  0  0
    3.3558   27.6006   64.7368 C   0  0  0  0  0
    5.8598   30.0253   55.5904 O   0  0  0  0  0
    3.9473   28.7600   55.7219 O   0  0  0  0  0
    0.2828   27.9038   57.0366 O   0  0  0  0  0
    2.9190   31.6370   56.3194 O   0  0  0  0  0
    3.6324   28.3270   59.1941 O   0  0  0  0  0
    1.7579   29.5184   59.8274 O   0  0  0  0  0
    2.2792   27.6338   61.0550 O   0  0  0  0  0
   -0.8913   25.1065   62.2928 O   0  0  0  0  0
    0.1402   26.6089   63.7053 O   0  0  0  0  0
    0.4994   29.5595   64.5327 O   0  0  0  0  0
    4.0511   26.5960   64.4330 O   0  0  0  0  0
    1.9471   29.5240   56.6808 N   0  0  0  0  0
    2.0762   27.8443   64.1950 N   0  0  0  0  0
  1  2  1  0  0  0
  2 22  1  0  0  0
  3 22  1  0  0  0
  3  4  1  0  0  0
  3 23  1  0  0  0
  4  5  1  0  0  0
  4  1  1  0  0  0
  5  6  1  0  0  0
  5 26  1  0  0  0
  6 23  1  0  0  0
  6 33  1  0  0  0
  8  7  1  0  0  0
  8  9  1  0  0  0
  9 10  1  0  0  0
 10 33  1  0  0  0
 11 26  1  0  0  0
 11 28  1  0  0  0
 12 28  1  0  0  0
 12 13  1  0  0  0
 13 14  1  0  0  0
 14 15  1  0  0  0
 15 29  1  0  0  0
 16 29  1  0  0  0
 16 30  1  0  0  0
 16 13  1  0  0  0
 17 30  1  0  0  0
 17 34  1  0  0  0
 17 12  1  0  0  0
 19 18  1  0  0  0
 19 20  1  0  0  0
 20 21  1  0  0  0
 21 34  1  0  0  0
 33  7  1  0  0  0
 34 18  1  0  0  0
  7 24  2  0  0  0
 10 25  2  0  0  0
 11 27  2  0  0  0
 18 31  2  0  0  0
 21 32  2  0  0  0
M  END
> <rmsd>
0.715369344

$$$$
PubChem-73508345


 21 20  0  0  0  0  0  0  0  0999 V2000
    3.3188   31.6155   56.8325 C   0  0  0  0  0
    1.9917   29.9090   59.0973 C   0  0  0  0  0
    2.9761   29.7574   60.2056 C   0  0  0  0  0
    2.4921   28.7175   61.1967 C   0  0  0  0  0
    3.5049   28.5757   62.3160 C   0  0  0  0  0
    3.0409   27.5603   63.3123 C   0  0  0  0  0
   -0.6453   27.0865   64.8946 C   0  0  0  0  0
    2.3727   26.5823   66.3142 C   0  0  0  0  0
    1.4961   27.1188   57.7769 C   0  0  0  0  0
    2.3739   30.6967   56.3704 O   0  0  0  0  0
    3.8543   28.8098   57.4405 O   0  0  0  0  0
   -0.1077   30.6193   58.3518 O   0  0  0  0  0
    4.7594   26.1147   62.6742 O   0  0  0  0  0
    1.0790   29.2770   64.0103 O   0  0  0  0  0
    0.4312   26.7338   64.0783 O   0  0  0  0  0
    2.0964   27.9126   65.9928 O   0  0  0  0  0
    1.3612   28.1930   56.8947 O   0  0  0  0  0
    2.4498   29.3777   57.4366 P   0  0  0  0  0
    1.6244   27.9094   64.3606 P   0  0  0  0  0
    0.8349   30.4433   59.3391 N   0  0  0  0  0
    3.6631   26.4314   63.4440 N   0  0  0  0  0
  1 10  1  0  0  0
  3  2  1  0  0  0
  3  4  1  0  0  0
  4  5  1  0  0  0
  5  6  1  0  0  0
  7 15  1  0  0  0
  8 16  1  0  0  0
  9 17  1  0  0  0
 18 10  1  0  0  0
 18  2  1  0  0  0
 18 17  1  0  0  0
 19  6  1  0  0  0
 19 15  1  0  0  0
 19 16  1  0  0  0
 20 12  1  0  0  0
 21 13  1  0  0  0
  2 20  2  0  0  0
  6 21  2  0  0  0
 18 11  2  0  0  0
 19 14  2  0  0  0
M  END
> <rmsd>
0.796071768

$$$$
PubChem-132085952


 33 36  0  0  0  0  0  0  0  0999 V2000
    3.8909   31.3592   58.0935 C   0  0  0  0  0
    2.5129   30.8214   57.7335 C   0  0  0  0  0
    1.9397   31.4780   56.4687 C   0  0  0  0  0
    1.4223   32.8721   56.7034 C   0  0  0  0  0
    1.0885   34.7387   58.1242 C   0  0  0  0  0
    0.4377   35.4153   57.0954 C   0  0  0  0  0
    0.2926   34.7771   55.8658 C   0  0  0  0  0
    2.2546   30.7822   54.3849 C   0  0  0  0  0
    2.1661   28.5457   60.2653 C   0  0  0  0  0
    1.4420   28.4816   62.2436 C   0  0  0  0  0
    3.5808   27.1721   61.8206 C   0  0  0  0  0
    3.0977   25.7960   62.2812 C   0  0  0  0  0
    4.2868   25.0075   62.8297 C   0  0  0  0  0
    5.5020   26.8324   63.3684 C   0  0  0  0  0
    4.4565   27.8369   62.8843 C   0  0  0  0  0
    1.2651   28.1430   63.6979 C   0  0  0  0  0
    0.9783   29.3708   64.5814 C   0  0  0  0  0
   -1.2038   28.8022   64.7205 C   0  0  0  0  0
   -0.9930   27.6211   63.7704 C   0  0  0  0  0
    1.5662   33.4849   57.9123 N   0  0  0  0  0
    0.7841   33.5224   55.6927 N   0  0  0  0  0
    2.9676   28.3386   59.1012 N   0  0  0  0  0
    1.0359   29.2782   60.2857 N   0  0  0  0  0
    0.5783   29.2339   61.5296 N   0  0  0  0  0
    2.4502   28.0279   61.4710 N   0  0  0  0  0
   -0.1873   37.0311   57.3432 Cl  0  0  0  0  0
    2.8755   31.4741   55.4269 O   0  0  0  0  0
    1.2264   28.5262   57.1235 O   0  0  0  0  0
    3.6071   28.6553   56.5643 O   0  0  0  0  0
    4.8647   25.7005   63.9090 O   0  0  0  0  0
   -0.3296   29.8437   64.3666 O   0  0  0  0  0
    0.3180   27.1080   63.8995 O   0  0  0  0  0
    2.5637   29.0440   57.5737 S   0  0  0  0  0
  2  1  1  0  0  0
  2  3  1  0  0  0
  2 33  1  0  0  0
  3  4  1  0  0  0
  3 27  1  0  0  0
  4 21  1  0  0  0
  5 20  1  0  0  0
  6  7  1  0  0  0
  6 26  1  0  0  0
  8 27  1  0  0  0
 10 25  1  0  0  0
 11 25  1  0  0  0
 11 12  1  0  0  0
 12 13  1  0  0  0
 13 30  1  0  0  0
 14 30  1  0  0  0
 14 15  1  0  0  0
 15 11  1  0  0  0
 16 10  1  0  0  0
 16 17  1  0  0  0
 16 32  1  0  0  0
 17 31  1  0  0  0
 18 31  1  0  0  0
 18 19  1  0  0  0
 19 32  1  0  0  0
 22  9  1  0  0  0
 23 24  1  0  0  0
 25  9  1  0  0  0
 33 22  1  0  0  0
  4 20  2  0  0  0
  5  6  2  0  0  0
  7 21  2  0  0  0
  9 23  2  0  0  0
 10 24  2  0  0  0
 33 28  2  0  0  0
 33 29  2  0  0  0
M  END
> <rmsd>
0.659684956

$$$$
PubChem-142448992


 35 38  0  0  0  0  0  0  0  0999 V2000
    2.2917   28.8719   59.0983 B   0  0  0  0  0
    1.0884   29.6317   58.6407 O   0  0  0  0  0
    0.2871   29.0378   56.5696 O   0  0  0  0  0
    4.6381   28.9235   56.2611 O   0  0  0  0  0
    3.4554   28.5937   58.1958 O   0  0  0  0  0
   -1.2473   27.2895   63.5208 O   0  0  0  0  0
   -0.1795   29.3692   64.4071 O   0  0  0  0  0
    9.5440   22.5797   65.3793 O   0  0  0  0  0
    0.8285   29.9073   57.3015 C   0  0  0  0  0
    1.2501   31.2176   56.7232 C   0  0  0  0  0
    3.5535   30.8694   57.0863 C   0  0  0  0  0
    3.8934   29.4129   57.1495 C   0  0  0  0  0
    2.8306   32.3834   55.4682 C   0  0  0  0  0
    2.2886   28.2539   60.5348 C   0  0  0  0  0
    1.1882   28.4556   61.3836 C   0  0  0  0  0
    1.2269   27.8908   62.6559 C   0  0  0  0  0
    2.3025   27.1494   63.1005 C   0  0  0  0  0
    3.4040   26.9402   62.2665 C   0  0  0  0  0
    3.3916   27.4977   60.9782 C   0  0  0  0  0
    2.0942   26.6659   64.4865 C   0  0  0  0  0
    2.7259   25.4523   66.5819 C   0  0  0  0  0
    5.1647   24.8050   65.2348 C   0  0  0  0  0
    6.4262   24.4452   64.5801 C   0  0  0  0  0
    7.3690   23.6926   65.2864 C   0  0  0  0  0
    8.5879   23.3312   64.6886 C   0  0  0  0  0
    8.8526   23.7322   63.3719 C   0  0  0  0  0
    7.9120   24.4851   62.6634 C   0  0  0  0  0
    6.7024   24.8411   63.2644 C   0  0  0  0  0
    9.3571   22.1434   66.7186 C   0  0  0  0  0
    2.5430   31.0905   56.0610 N   0  0  0  0  0
    0.9576   27.0243   65.0135 N   0  0  0  0  0
    3.0435   25.8718   65.2190 N   0  0  0  0  0
    4.2648   25.5084   64.6218 N   0  0  0  0  0
    0.0363   27.9712   63.9009 S   0  0  0  0  0
   10.0227   23.3936   62.7770 F   0  0  0  0  0
  1  2  1  0  0  0
  1 14  1  0  0  0
  1  5  1  0  0  0
  9  2  1  0  0  0
 10  9  1  0  0  0
 10 30  1  0  0  0
 11 30  1  0  0  0
 11 12  1  0  0  0
 12  5  1  0  0  0
 13 30  1  0  0  0
 15 16  1  0  0  0
 17 18  1  0  0  0
 17 20  1  0  0  0
 19 14  1  0  0  0
 20 32  1  0  0  0
 21 32  1  0  0  0
 22 23  1  0  0  0
 24 25  1  0  0  0
 25  8  1  0  0  0
 26 27  1  0  0  0
 26 35  1  0  0  0
 28 23  1  0  0  0
 29  8  1  0  0  0
 32 33  1  0  0  0
 34 31  1  0  0  0
 34 16  1  0  0  0
  9  3  2  0  0  0
 12  4  2  0  0  0
 14 15  2  0  0  0
 16 17  2  0  0  0
 18 19  2  0  0  0
 20 31  2  0  0  0
 22 33  2  0  0  0
 23 24  2  0  0  0
 25 26  2  0  0  0
 27 28  2  0  0  0
 34  6  2  0  0  0
 34  7  2  0  0  0
M  END
> <rmsd>
0.770290077

$$$$
PubChem-153769795


 40 44  0  0  0  0  0  0  0  0999 V2000
    1.8879   25.0360   56.4824 C   0  0  0  0  0
    2.1546   23.0757   58.0822 C   0  0  0  0  0
    3.3503   22.6251   58.9238 C   0  0  0  0  0
    3.8423   24.6610   58.0970 C   0  0  0  0  0
    4.6013   25.9058   57.8437 C   0  0  0  0  0
    3.9870   27.0197   57.2565 C   0  0  0  0  0
    4.6980   28.2128   57.0562 C   0  0  0  0  0
    6.0409   28.2815   57.4369 C   0  0  0  0  0
    6.6652   27.1773   58.0217 C   0  0  0  0  0
    5.9469   25.9972   58.2289 C   0  0  0  0  0
    2.7139   29.4272   56.1535 C   0  0  0  0  0
    2.1159   31.7803   56.0819 C   0  0  0  0  0
    1.8171   31.7457   57.5328 C   0  0  0  0  0
    1.7179   30.5621   58.1466 C   0  0  0  0  0
    1.8342   29.4944   60.3831 C   0  0  0  0  0
    1.1640   29.3119   61.5943 C   0  0  0  0  0
    1.5617   28.3237   62.5107 C   0  0  0  0  0
    2.6753   27.5058   62.1860 C   0  0  0  0  0
    3.3537   27.7026   60.9797 C   0  0  0  0  0
    2.9414   28.6900   60.0869 C   0  0  0  0  0
    3.1603   26.4609   63.0506 C   0  0  0  0  0
    0.7876   28.1952   63.7718 C   0  0  0  0  0
    1.9927   33.0561   55.3140 C   0  0  0  0  0
    3.3209   33.7233   55.1900 C   0  0  0  0  0
    4.1637   33.4127   54.1164 C   0  0  0  0  0
    5.4180   34.0217   54.0118 C   0  0  0  0  0
    5.8330   34.9388   54.9824 C   0  0  0  0  0
    4.9946   35.2463   56.0583 C   0  0  0  0  0
    3.7404   34.6375   56.1632 C   0  0  0  0  0
    2.5333   24.3931   57.6147 N   0  0  0  0  0
    4.3172   23.7107   58.8259 N   0  0  0  0  0
    2.4773   30.6950   55.4579 N   0  0  0  0  0
    1.8997   29.3695   57.3676 N   0  0  0  0  0
    1.1493   28.2196   57.6454 N   0  0  0  0  0
    3.5537   25.6199   63.7418 N   0  0  0  0  0
    1.5924   32.9550   58.2547 N   0  0  0  0  0
    4.0961   29.3452   56.4971 O   0  0  0  0  0
    1.3992   30.5015   59.5115 O   0  0  0  0  0
   -0.1862   28.9642   63.9927 O   0  0  0  0  0
    1.1090   27.2400   64.7281 O   0  0  0  0  0
  1 30  1  0  0  0
  2 30  1  0  0  0
  2  3  1  0  0  0
  3 31  1  0  0  0
  4  5  1  0  0  0
  4 30  1  0  0  0
  6  7  1  0  0  0
  7 37  1  0  0  0
  8  9  1  0  0  0
 10  5  1  0  0  0
 11 37  1  0  0  0
 11 32  1  0  0  0
 11 33  1  0  0  0
 12 13  1  0  0  0
 13 36  1  0  0  0
 14 33  1  0  0  0
 14 38  1  0  0  0
 15 38  1  0  0  0
 16 17  1  0  0  0
 17 22  1  0  0  0
 18 19  1  0  0  0
 18 21  1  0  0  0
 20 15  1  0  0  0
 22 40  1  0  0  0
 23 12  1  0  0  0
 23 24  1  0  0  0
 25 26  1  0  0  0
 27 28  1  0  0  0
 29 24  1  0  0  0
 33 34  1  0  0  0
  4 31  2  0  0  0
  5  6  2  0  0  0
  7  8  2  0  0  0
  9 10  2  0  0  0
 12 32  2  0  0  0
 13 14  2  0  0  0
 15 16  2  0  0  0
 17 18  2  0  0  0
 19 20  2  0  0  0
 22 39  2  0  0  0
 24 25  2  0  0  0
 26 27  2  0  0  0
 28 29  2  0  0  0
 21 35  3  0  0  0
M  END
> <rmsd>
0.704970658

$$$$
PubChem-87526081


 20 20  0  0  0  0  0  0  0  0999 V2000
    4.5419   25.1879   65.4062 C   0  0  0  0  0
    4.1180   26.6647   63.4678 C   0  0  0  0  0
    2.7599   26.8094   63.7898 C   0  0  0  0  0
    1.9176   27.5963   62.9969 C   0  0  0  0  0
    2.4373   28.2500   61.8639 C   0  0  0  0  0
    3.7947   28.1030   61.5451 C   0  0  0  0  0
    4.6283   27.3156   62.3422 C   0  0  0  0  0
    1.7889   31.1102   58.0180 C   0  0  0  0  0
    4.9769   25.8838   64.2459 O   0  0  0  0  0
    3.2486   29.0297   57.1275 O   0  0  0  0  0
    0.8999   29.1327   56.4246 O   0  0  0  0  0
    2.5825   30.7810   55.3284 O   0  0  0  0  0
   -0.1063   29.1878   63.7074 O   0  0  0  0  0
   -0.6416   27.2252   62.3281 O   0  0  0  0  0
   -0.0811   26.8513   64.8325 O   0  0  0  0  0
    1.5890   29.0574   61.0425 N   0  0  0  0  0
    2.0768   29.7196   59.9099 N   0  0  0  0  0
    1.2938   30.4209   59.1977 N   0  0  0  0  0
    2.1310   29.9446   56.7129 S   0  0  0  0  0
    0.2217   27.7457   63.4424 S   0  0  0  0  0
  1  9  1  0  0  0
  2  9  1  0  0  0
  3  4  1  0  0  0
  5  6  1  0  0  0
  5 16  1  0  0  0
  7  2  1  0  0  0
  8 18  1  0  0  0
  8 19  1  0  0  0
 16 17  1  0  0  0
 19 12  1  0  0  0
 20  4  1  0  0  0
 20 15  1  0  0  0
  2  3  2  0  0  0
  4  5  2  0  0  0
  6  7  2  0  0  0
 17 18  2  0  0  0
 19 10  2  0  0  0
 19 11  2  0  0  0
 20 13  2  0  0  0
 20 14  2  0  0  0
M  END
> <rmsd>
0.839025855

$$$$
PubChem-136237271 CHEMBL2159758


 30 34  0  0  0  0  0  0  0  0999 V2000
   -1.9437   30.6118   58.0727 O   0  0  0  0  0
   -0.2432   29.1312   63.8291 O   0  0  0  0  0
    1.1837   26.9824   64.9226 O   0  0  0  0  0
    3.4184   25.9739   63.5696 O   0  0  0  0  0
   -0.9674   30.0369   57.5229 C   0  0  0  0  0
   -0.2836   30.7025   56.3730 C   0  0  0  0  0
    0.7912   31.6555   56.8765 C   0  0  0  0  0
    2.0966   30.9459   57.0178 C   0  0  0  0  0
    3.6334   29.7512   57.8097 C   0  0  0  0  0
    2.7811   29.2499   59.9794 C   0  0  0  0  0
    2.3885   28.6802   61.2776 C   0  0  0  0  0
    1.2696   29.1812   61.9554 C   0  0  0  0  0
    0.8678   28.6198   63.1704 C   0  0  0  0  0
    1.5834   27.5460   63.7161 C   0  0  0  0  0
    2.7020   27.0402   63.0414 C   0  0  0  0  0
    3.0999   27.6060   61.8273 C   0  0  0  0  0
   -0.4835   28.7537   58.0508 C   0  0  0  0  0
    0.6617   27.0035   58.2969 C   0  0  0  0  0
    1.5823   25.9631   58.2049 C   0  0  0  0  0
    1.5823   25.0072   59.2378 C   0  0  0  0  0
    0.6786   25.1176   60.3186 C   0  0  0  0  0
   -0.2345   26.1864   60.3799 C   0  0  0  0  0
   -0.2070   27.1114   59.3393 C   0  0  0  0  0
    2.8594   30.5160   55.9798 N   0  0  0  0  0
    3.8247   29.7382   56.4792 N   0  0  0  0  0
    2.0498   30.2060   59.3392 N   0  0  0  0  0
    2.5973   30.4748   58.1633 N   0  0  0  0  0
    0.5088   28.0370   57.4574 N   0  0  0  0  0
   -0.9513   28.2181   59.2097 N   0  0  0  0  0
    4.0659   28.6515   58.9970 S   0  0  0  0  0
  5 17  1  0  0  0
  6  5  1  0  0  0
  6  7  1  0  0  0
  7  8  1  0  0  0
  9 30  1  0  0  0
 10 30  1  0  0  0
 10 11  1  0  0  0
 12 13  1  0  0  0
 13  2  1  0  0  0
 14  3  1  0  0  0
 14 15  1  0  0  0
 15  4  1  0  0  0
 16 11  1  0  0  0
 18 28  1  0  0  0
 19 20  1  0  0  0
 21 22  1  0  0  0
 23 29  1  0  0  0
 23 18  1  0  0  0
 24 25  1  0  0  0
 27 26  1  0  0  0
 27  8  1  0  0  0
 27  9  1  0  0  0
 29 17  1  0  0  0
  5  1  2  0  0  0
  8 24  2  0  0  0
  9 25  2  0  0  0
 10 26  2  0  0  0
 11 12  2  0  0  0
 13 14  2  0  0  0
 15 16  2  0  0  0
 17 28  2  0  0  0
 18 19  2  0  0  0
 20 21  2  0  0  0
 22 23  2  0  0  0
M  END
> <rmsd>
0.810739875

$$$$
PubChem-139822738


 24 24  0  0  0  0  0  0  0  0999 V2000
    5.9301   28.6456   57.0261 C   0  0  0  0  0
    5.1996   29.8679   56.5919 C   0  0  0  0  0
    5.8927   30.9686   56.3297 C   0  0  0  0  0
    3.7334   29.8476   56.4678 C   0  0  0  0  0
    1.3563   27.3583   57.1071 C   0  0  0  0  0
    0.3620   27.4399   58.2640 C   0  0  0  0  0
    0.9963   27.7912   59.6163 C   0  0  0  0  0
   -0.1132   27.6973   60.6742 C   0  0  0  0  0
    0.4358   27.6935   62.0818 C   0  0  0  0  0
    1.5619   26.9819   62.3407 C   0  0  0  0  0
    2.3401   26.4305   61.2092 C   0  0  0  0  0
    2.0779   26.7831   59.9473 C   0  0  0  0  0
    2.0594   26.6880   63.7020 C   0  0  0  0  0
   -0.2748   28.5106   63.0884 C   0  0  0  0  0
    1.5303   29.2064   59.5972 C   0  0  0  0  0
    3.1068   30.8840   56.1139 O   0  0  0  0  0
    3.0334   28.6760   56.7497 O   0  0  0  0  0
    1.6967   28.6382   56.6696 O   0  0  0  0  0
    1.2678   26.5986   64.6775 O   0  0  0  0  0
    3.4100   26.4281   63.9023 O   0  0  0  0  0
   -1.5052   28.7425   62.9527 O   0  0  0  0  0
    0.4102   29.0979   64.1459 O   0  0  0  0  0
    2.7443   29.4487   59.8358 O   0  0  0  0  0
    0.6723   30.2633   59.3149 O   0  0  0  0  0
  1  2  1  0  0  0
  2  4  1  0  0  0
  4 17  1  0  0  0
  5 18  1  0  0  0
  5  6  1  0  0  0
  6  7  1  0  0  0
  7  8  1  0  0  0
  7 15  1  0  0  0
  7 12  1  0  0  0
  8  9  1  0  0  0
  9 14  1  0  0  0
 10 11  1  0  0  0
 10 13  1  0  0  0
 13 20  1  0  0  0
 14 22  1  0  0  0
 15 24  1  0  0  0
 17 18  1  0  0  0
  2  3  2  0  0  0
  4 16  2  0  0  0
  9 10  2  0  0  0
 11 12  2  0  0  0
 13 19  2  0  0  0
 14 21  2  0  0  0
 15 23  2  0  0  0
M  END
> <rmsd>
0.775539696

$$$$
PubChem-21600400


 26 27  0  0  0  0  0  0  0  0999 V2000
    0.3721   36.1561   60.2276 C   0  0  0  0  0
    1.2398   35.5359   59.3229 C   0  0  0  0  0
    1.8622   34.3308   59.6637 C   0  0  0  0  0
    1.6172   33.7427   60.9112 C   0  0  0  0  0
    0.7418   34.3603   61.8122 C   0  0  0  0  0
    0.1217   35.5679   61.4721 C   0  0  0  0  0
    2.2849   32.4604   61.2816 C   0  0  0  0  0
    1.6780   31.3131   60.5462 C   0  0  0  0  0
    1.3420   29.1269   62.1772 C   0  0  0  0  0
    0.6676   28.5097   63.4059 C   0  0  0  0  0
    1.6396   27.5260   64.0606 C   0  0  0  0  0
    2.2649   26.5889   63.0275 C   0  0  0  0  0
    2.7527   27.3985   61.8173 C   0  0  0  0  0
    3.3207   26.4615   60.7650 C   0  0  0  0  0
    2.1594   30.9733   59.3939 N   0  0  0  0  0
    1.6276   29.9311   58.6709 O   0  0  0  0  0
    1.5065   28.3916   56.5547 O   0  0  0  0  0
    3.7145   29.1895   57.2603 O   0  0  0  0  0
    2.1020   30.8836   56.1246 O   0  0  0  0  0
    1.6764   28.1151   61.2611 O   0  0  0  0  0
    3.8674   27.2026   59.7174 O   0  0  0  0  0
    3.3335   25.9050   63.6109 O   0  0  0  0  0
    0.9734   26.7733   65.0303 O   0  0  0  0  0
    0.3410   29.5106   64.3214 O   0  0  0  0  0
    2.2608   29.5528   57.1371 S   0  0  0  0  0
    0.1608   30.4056   61.3055 Se  0  0  0  0  0
  2  3  1  0  0  0
  4  5  1  0  0  0
  6  1  1  0  0  0
  7  4  1  0  0  0
  7  8  1  0  0  0
  8 26  1  0  0  0
  9 26  1  0  0  0
  9 10  1  0  0  0
  9 20  1  0  0  0
 10 11  1  0  0  0
 10 24  1  0  0  0
 11 12  1  0  0  0
 11 23  1  0  0  0
 12 13  1  0  0  0
 12 22  1  0  0  0
 13 20  1  0  0  0
 13 14  1  0  0  0
 14 21  1  0  0  0
 15 16  1  0  0  0
 25 16  1  0  0  0
 25 19  1  0  0  0
  1  2  2  0  0  0
  3  4  2  0  0  0
  5  6  2  0  0  0
  8 15  2  0  0  0
 25 17  2  0  0  0
 25 18  2  0  0  0
M  CHG  1  19  -1
M  END
> <rmsd>
0.82338506

$$$$
PubChem-118302237


 32 35  0  0  0  0  0  0  0  0999 V2000
    3.7249   28.3124   55.9788 C   0  0  0  0  0
    2.7180   27.2457   55.6480 C   0  0  0  0  0
    3.1390   26.0268   55.1093 C   0  0  0  0  0
    2.1948   25.0686   54.7282 C   0  0  0  0  0
    0.8293   25.3313   54.8775 C   0  0  0  0  0
    0.4041   26.5480   55.4198 C   0  0  0  0  0
    1.3434   27.5050   55.8153 C   0  0  0  0  0
    1.3917   28.9505   59.3977 C   0  0  0  0  0
    0.1920   28.9805   60.3428 C   0  0  0  0  0
    0.4202   30.0745   61.3906 C   0  0  0  0  0
   -0.0764   29.4602   62.6523 C   0  0  0  0  0
    0.1092   27.9713   62.3955 C   0  0  0  0  0
    2.5518   27.8080   62.5506 C   0  0  0  0  0
    3.7143   27.2865   63.1108 C   0  0  0  0  0
    3.5925   26.3585   64.1470 C   0  0  0  0  0
    1.2324   26.5077   64.0206 C   0  0  0  0  0
   -1.1015   29.1834   59.5325 C   0  0  0  0  0
    0.9125   28.6948   56.4046 O   0  0  0  0  0
    2.2580   30.9717   56.3246 O   0  0  0  0  0
    3.5147   28.8516   57.2598 O   0  0  0  0  0
    1.5226   30.1598   58.7072 O   0  0  0  0  0
    0.1170   27.7323   61.0035 O   0  0  0  0  0
    4.6161   25.8600   64.6847 O   0  0  0  0  0
    0.1061   26.1364   64.4486 O   0  0  0  0  0
    0.6651   29.9122   63.7468 O   0  0  0  0  0
   -0.2725   31.2561   61.1102 O   0  0  0  0  0
    2.0587   29.7273   57.1600 P   0  0  0  0  0
    1.3259   27.4225   63.0083 N   0  0  0  0  0
    2.3590   25.9897   64.5776 N   0  0  0  0  0
    5.2797   27.7997   62.5057 Cl  0  0  0  0  0
   -2.2081   29.1846   60.3643 F   0  0  0  0  0
   -1.2473   28.1830   58.5867 F   0  0  0  0  0
  1  2  1  0  0  0
  1 20  1  0  0  0
  3  4  1  0  0  0
  5  6  1  0  0  0
  7 18  1  0  0  0
  7  2  1  0  0  0
  8 21  1  0  0  0
  9  8  1  0  0  0
  9 10  1  0  0  0
  9 17  1  0  0  0
  9 22  1  0  0  0
 10 11  1  0  0  0
 10 26  1  0  0  0
 11 12  1  0  0  0
 11 25  1  0  0  0
 12 22  1  0  0  0
 12 28  1  0  0  0
 14 15  1  0  0  0
 14 30  1  0  0  0
 15 29  1  0  0  0
 16 28  1  0  0  0
 17 31  1  0  0  0
 17 32  1  0  0  0
 27 18  1  0  0  0
 27 20  1  0  0  0
 27 21  1  0  0  0
 28 13  1  0  0  0
 29 16  1  0  0  0
  2  3  2  0  0  0
  4  5  2  0  0  0
  6  7  2  0  0  0
 13 14  2  0  0  0
 15 23  2  0  0  0
 16 24  2  0  0  0
 27 19  2  0  0  0
M  END
> <rmsd>
0.874081314

$$$$
PubChem-158863830


 25 26  0  0  0  0  0  0  0  0999 V2000
    0.2845   30.1011   65.5622 C   0  0  0  0  0
    0.6201   30.9257   63.4110 C   0  0  0  0  0
   -0.2236   28.7682   63.7183 C   0  0  0  0  0
    0.4756   27.7568   62.8225 C   0  0  0  0  0
    1.3129   26.8159   63.6309 C   0  0  0  0  0
    3.5249   27.5474   62.5996 C   0  0  0  0  0
    2.9329   27.9580   61.2798 C   0  0  0  0  0
    3.7620   27.4342   60.0695 C   0  0  0  0  0
    4.7970   28.4516   59.5006 C   0  0  0  0  0
    4.3443   29.9282   59.5951 C   0  0  0  0  0
    4.0103   30.1327   61.0676 C   0  0  0  0  0
    2.1111   29.8335   59.9999 C   0  0  0  0  0
    0.7350   29.7338   64.2324 N   0  0  0  0  0
    2.7536   26.8408   63.5906 N   0  0  0  0  0
    2.7517   29.4099   61.1914 N   0  0  0  0  0
    3.0391   30.0791   58.9613 N   0  0  0  0  0
    3.4497   26.1530   64.5954 N   0  0  0  0  0
    0.7281   26.0012   64.3956 O   0  0  0  0  0
    4.7403   27.7964   62.8277 O   0  0  0  0  0
    0.8630   29.9430   59.8731 O   0  0  0  0  0
    2.7967   30.9122   57.9201 O   0  0  0  0  0
    2.3220   30.7560   55.3700 O   0  0  0  0  0
    1.4725   28.9568   56.7973 O   0  0  0  0  0
    4.0293   29.0444   56.3116 O   0  0  0  0  0
    2.6136   29.9102   56.5767 S   0  0  0  0  0
  1 13  1  0  0  0
  2 13  1  0  0  0
  3 13  1  0  0  0
  3  4  1  0  0  0
  4  5  1  0  0  0
  5 14  1  0  0  0
  7  6  1  0  0  0
  7  8  1  0  0  0
  7 15  1  0  0  0
  8  9  1  0  0  0
 10  9  1  0  0  0
 10 11  1  0  0  0
 10 16  1  0  0  0
 11 15  1  0  0  0
 12 16  1  0  0  0
 14  6  1  0  0  0
 14 17  1  0  0  0
 15 12  1  0  0  0
 16 21  1  0  0  0
 25 21  1  0  0  0
 25 24  1  0  0  0
  5 18  2  0  0  0
  6 19  2  0  0  0
 12 20  2  0  0  0
 25 22  2  0  0  0
 25 23  2  0  0  0
M  END
> <rmsd>
0.709987223

$$$$
PubChem-107652


 39 45  0  0  0  0  0  0  0  0999 V2000
   -4.3250   31.3512   63.4140 C   0  0  0  0  0
   -3.1333   30.4694   63.2220 C   0  0  0  0  0
   -1.9462   30.9041   63.6507 C   0  0  0  0  0
   -0.6821   30.0958   63.5441 C   0  0  0  0  0
   -0.7407   29.0093   62.3947 C   0  0  0  0  0
   -2.0867   28.2677   62.4848 C   0  0  0  0  0
   -3.2921   29.2090   62.4067 C   0  0  0  0  0
   -0.6524   29.7712   61.0544 C   0  0  0  0  0
    0.6796   28.8778   59.1974 C   0  0  0  0  0
    0.7262   28.1600   57.8715 C   0  0  0  0  0
    1.8098   28.5648   56.9202 C   0  0  0  0  0
    2.0803   27.7092   55.6882 C   0  0  0  0  0
    3.5728   27.3670   55.6053 C   0  0  0  0  0
    4.2741   29.0090   57.1116 C   0  0  0  0  0
    2.8567   29.6129   57.2891 C   0  0  0  0  0
    4.5496   27.8953   58.1230 C   0  0  0  0  0
    4.3386   27.9309   59.4383 C   0  0  0  0  0
    4.7859   26.7630   60.2063 C   0  0  0  0  0
    4.5171   26.4774   61.4855 C   0  0  0  0  0
    3.6519   27.2241   62.4010 C   0  0  0  0  0
    1.7548   28.8654   62.6270 C   0  0  0  0  0
    0.4609   28.0173   62.5827 C   0  0  0  0  0
    0.3691   27.5476   64.0103 C   0  0  0  0  0
   -0.3728   26.3721   64.5078 C   0  0  0  0  0
    0.7616   28.7024   64.8598 C   0  0  0  0  0
    1.9911   29.2489   64.1010 C   0  0  0  0  0
    0.4975   26.8618   61.5785 C   0  0  0  0  0
    5.3482   30.1141   57.3303 C   0  0  0  0  0
    5.4346   31.1024   56.1729 C   0  0  0  0  0
   -0.5237   28.9162   59.9217 O   0  0  0  0  0
    1.7217   29.4044   59.6858 O   0  0  0  0  0
    0.5165   29.1083   56.8495 O   0  0  0  0  0
    4.3860   28.5113   55.7801 O   0  0  0  0  0
    2.6781   30.7451   56.4844 O   0  0  0  0  0
    3.5952   26.8546   63.6014 O   0  0  0  0  0
    2.8872   28.3013   61.9486 O   0  0  0  0  0
    1.0352   26.3493   64.3202 O   0  0  0  0  0
   -0.3340   29.6149   64.8526 O   0  0  0  0  0
    6.6126   29.5623   57.5200 O   0  0  0  0  0
  1  2  1  0  0  0
  4  3  1  0  0  0
  4  5  1  0  0  0
  4 38  1  0  0  0
  5  6  1  0  0  0
  5  8  1  0  0  0
  6  7  1  0  0  0
  7  2  1  0  0  0
  8 30  1  0  0  0
  9 30  1  0  0  0
 10  9  1  0  0  0
 10 11  1  0  0  0
 10 32  1  0  0  0
 11 32  1  0  0  0
 11 12  1  0  0  0
 12 13  1  0  0  0
 13 33  1  0  0  0
 14 33  1  0  0  0
 14 15  1  0  0  0
 14 16  1  0  0  0
 14 28  1  0  0  0
 15 34  1  0  0  0
 15 11  1  0  0  0
 17 18  1  0  0  0
 19 20  1  0  0  0
 20 36  1  0  0  0
 21 36  1  0  0  0
 21 22  1  0  0  0
 22 23  1  0  0  0
 22 27  1  0  0  0
 22  5  1  0  0  0
 23 24  1  0  0  0
 23 25  1  0  0  0
 23 37  1  0  0  0
 24 37  1  0  0  0
 25 26  1  0  0  0
 25 38  1  0  0  0
 26 21  1  0  0  0
 28 29  1  0  0  0
 28 39  1  0  0  0
  2  3  2  0  0  0
  9 31  2  0  0  0
 16 17  2  0  0  0
 18 19  2  0  0  0
 20 35  2  0  0  0
M  END
> <rmsd>
0.792489886

$$$$
PubChem-54327269


 30 32  0  0  0  0  0  0  0  0999 V2000
   -0.2324   31.5757   63.4312 C   0  0  0  0  0
    0.8764   30.8037   64.1194 C   0  0  0  0  0
    2.2472   31.2556   63.5910 C   0  0  0  0  0
    2.6693   30.5817   62.3214 C   0  0  0  0  0
    1.9131   30.7245   61.1401 C   0  0  0  0  0
    2.3628   30.0578   60.0043 C   0  0  0  0  0
    3.4925   29.3046   60.0103 C   0  0  0  0  0
    4.2728   29.1469   61.1520 C   0  0  0  0  0
    3.8457   29.7980   62.3216 C   0  0  0  0  0
    2.5980   29.1684   57.9136 C   0  0  0  0  0
    3.1120   29.9280   56.7280 C   0  0  0  0  0
    1.8081   27.9755   57.4661 C   0  0  0  0  0
    1.4651   28.6593   64.9238 C   0  0  0  0  0
    1.3922   27.1513   64.6989 C   0  0  0  0  0
    1.9184   26.7328   63.3533 C   0  0  0  0  0
    1.1545   26.9505   62.1955 C   0  0  0  0  0
    1.6252   26.5382   60.9476 C   0  0  0  0  0
    2.8628   25.9011   60.8456 C   0  0  0  0  0
    3.6302   25.6792   61.9914 C   0  0  0  0  0
    3.1656   26.0903   63.2525 C   0  0  0  0  0
    5.2276   25.3018   64.3798 C   0  0  0  0  0
    3.6859   28.7560   58.7578 O   0  0  0  0  0
    1.7907   30.0196   58.7469 O   0  0  0  0  0
    4.1960   29.5930   56.1791 O   0  0  0  0  0
    2.3611   30.9620   56.1844 O   0  0  0  0  0
    0.5774   28.0836   57.2218 O   0  0  0  0  0
    2.4424   26.7557   57.2636 O   0  0  0  0  0
    3.9254   25.8726   64.4074 O   0  0  0  0  0
    0.0902   26.6830   64.8928 O   0  0  0  0  0
    0.6566   29.3730   63.9432 N   0  0  0  0  0
  1  2  1  0  0  0
  2  3  1  0  0  0
  2 30  1  0  0  0
  3  4  1  0  0  0
  5  6  1  0  0  0
  6 23  1  0  0  0
  7  8  1  0  0  0
  7 22  1  0  0  0
  9  4  1  0  0  0
 10 22  1  0  0  0
 10 23  1  0  0  0
 10 11  1  0  0  0
 10 12  1  0  0  0
 11 25  1  0  0  0
 12 27  1  0  0  0
 13 30  1  0  0  0
 13 14  1  0  0  0
 14 15  1  0  0  0
 14 29  1  0  0  0
 16 17  1  0  0  0
 18 19  1  0  0  0
 20 28  1  0  0  0
 20 15  1  0  0  0
 21 28  1  0  0  0
  4  5  2  0  0  0
  6  7  2  0  0  0
  8  9  2  0  0  0
 11 24  2  0  0  0
 12 26  2  0  0  0
 15 16  2  0  0  0
 17 18  2  0  0  0
 19 20  2  0  0  0
M  END
> <rmsd>
0.72672683

$$$$
PubChem-143757417


 38 41  0  0  0  0  0  0  0  0999 V2000
    3.6526   31.8701   53.7396 C   0  0  0  0  0
    3.7522   30.8923   54.8542 C   0  0  0  0  0
    5.0035   30.4986   55.3258 C   0  0  0  0  0
    5.0564   29.5840   56.3757 C   0  0  0  0  0
    2.6920   29.4948   56.4402 C   0  0  0  0  0
    1.5104   28.0673   58.0768 C   0  0  0  0  0
    1.7884   28.7694   59.3729 C   0  0  0  0  0
    2.9761   28.6896   61.5293 C   0  0  0  0  0
    4.3668   28.2706   62.0344 C   0  0  0  0  0
    4.3080   27.5530   63.3881 C   0  0  0  0  0
    3.2591   28.1687   64.3211 C   0  0  0  0  0
    2.0116   28.6454   63.5601 C   0  0  0  0  0
    0.7806   28.2993   64.3241 C   0  0  0  0  0
    0.2125   27.1964   58.1256 C   0  0  0  0  0
   -0.0169   26.4054   56.8330 C   0  0  0  0  0
    0.9678   26.3179   55.8325 C   0  0  0  0  0
    0.7454   25.5636   54.6776 C   0  0  0  0  0
   -0.4609   24.8806   54.5119 C   0  0  0  0  0
   -1.4444   24.9498   55.5015 C   0  0  0  0  0
   -1.2222   25.7043   56.6563 C   0  0  0  0  0
    0.4095   26.1697   59.2367 C   0  0  0  0  0
   -0.4394   26.1422   60.3574 C   0  0  0  0  0
   -0.2271   25.2250   61.3899 C   0  0  0  0  0
    0.8383   24.3248   61.3172 C   0  0  0  0  0
    1.6913   24.3404   60.2117 C   0  0  0  0  0
    1.4795   25.2567   59.1784 C   0  0  0  0  0
   -1.2469   28.8753   57.3997 C   0  0  0  0  0
    6.3701   29.1385   56.9083 C   0  0  0  0  0
    3.9068   29.0985   56.9114 N   0  0  0  0  0
    2.6237   30.3882   55.4182 N   0  0  0  0  0
    1.5119   28.9923   56.9920 O   0  0  0  0  0
    1.0525   29.7202   59.7543 O   0  0  0  0  0
    2.8470   28.3235   60.1642 O   0  0  0  0  0
    1.9513   28.0783   62.2763 O   0  0  0  0  0
    0.0238   29.2146   64.7390 O   0  0  0  0  0
    0.4600   26.9702   64.5745 O   0  0  0  0  0
    4.0201   26.2021   63.1886 O   0  0  0  0  0
   -0.9244   27.9961   58.4499 O   0  0  0  0  0
  1  2  1  0  0  0
  2 30  1  0  0  0
  3  4  1  0  0  0
  5 29  1  0  0  0
  5 31  1  0  0  0
  6 31  1  0  0  0
  6  7  1  0  0  0
  6 14  1  0  0  0
  7 33  1  0  0  0
  8 33  1  0  0  0
  8  9  1  0  0  0
  8 34  1  0  0  0
  9 10  1  0  0  0
 10 11  1  0  0  0
 10 37  1  0  0  0
 11 12  1  0  0  0
 12 34  1  0  0  0
 12 13  1  0  0  0
 13 36  1  0  0  0
 14 15  1  0  0  0
 14 21  1  0  0  0
 14 38  1  0  0  0
 16 17  1  0  0  0
 18 19  1  0  0  0
 20 15  1  0  0  0
 22 23  1  0  0  0
 24 25  1  0  0  0
 26 21  1  0  0  0
 27 38  1  0  0  0
 28  4  1  0  0  0
  2  3  2  0  0  0
  4 29  2  0  0  0
  5 30  2  0  0  0
  7 32  2  0  0  0
 13 35  2  0  0  0
 15 16  2  0  0  0
 17 18  2  0  0  0
 19 20  2  0  0  0
 21 22  2  0  0  0
 23 24  2  0  0  0
 25 26  2  0  0  0
M  END
> <rmsd>
0.607803047

$$$$
PubChem-92029226 MolPort-047-605-761


 39 45  0  0  0  0  0  0  0  0999 V2000
   -4.3250   31.3512   63.4140 C   0  0  0  0  0
   -3.1333   30.4694   63.2220 C   0  0  0  0  0
   -1.9462   30.9041   63.6507 C   0  0  0  0  0
   -0.6821   30.0958   63.5441 C   0  0  0  0  0
   -0.7407   29.0093   62.3947 C   0  0  0  0  0
   -2.0867   28.2677   62.4848 C   0  0  0  0  0
   -3.2921   29.2090   62.4067 C   0  0  0  0  0
   -0.6524   29.7712   61.0544 C   0  0  0  0  0
    0.6796   28.8778   59.1974 C   0  0  0  0  0
    0.7262   28.1600   57.8715 C   0  0  0  0  0
    1.8098   28.5648   56.9202 C   0  0  0  0  0
    2.0803   27.7092   55.6882 C   0  0  0  0  0
    3.5728   27.3670   55.6053 C   0  0  0  0  0
    4.2741   29.0090   57.1116 C   0  0  0  0  0
    2.8567   29.6129   57.2891 C   0  0  0  0  0
    4.5496   27.8953   58.1230 C   0  0  0  0  0
    4.3386   27.9309   59.4383 C   0  0  0  0  0
    4.7859   26.7630   60.2063 C   0  0  0  0  0
    4.5171   26.4774   61.4855 C   0  0  0  0  0
    3.6519   27.2241   62.4010 C   0  0  0  0  0
    1.7548   28.8654   62.6270 C   0  0  0  0  0
    0.4609   28.0173   62.5827 C   0  0  0  0  0
    0.3691   27.5476   64.0103 C   0  0  0  0  0
   -0.3728   26.3721   64.5078 C   0  0  0  0  0
    0.7616   28.7024   64.8598 C   0  0  0  0  0
    1.9911   29.2489   64.1010 C   0  0  0  0  0
    0.4975   26.8618   61.5785 C   0  0  0  0  0
    5.3482   30.1141   57.3303 C   0  0  0  0  0
    5.4346   31.1024   56.1729 C   0  0  0  0  0
   -0.5237   28.9162   59.9217 O   0  0  0  0  0
    1.7217   29.4044   59.6858 O   0  0  0  0  0
    0.5165   29.1083   56.8495 O   0  0  0  0  0
    4.3860   28.5113   55.7801 O   0  0  0  0  0
    2.6781   30.7451   56.4844 O   0  0  0  0  0
    3.5952   26.8546   63.6014 O   0  0  0  0  0
    2.8872   28.3013   61.9486 O   0  0  0  0  0
    1.0352   26.3493   64.3202 O   0  0  0  0  0
   -0.3340   29.6149   64.8526 O   0  0  0  0  0
    6.6126   29.5623   57.5200 O   0  0  0  0  0
  1  2  1  0  0  0
  4  3  1  0  0  0
  4  5  1  0  0  0
  4 38  1  0  0  0
  5  6  1  0  0  0
  5  8  1  0  0  0
  6  7  1  0  0  0
  7  2  1  0  0  0
  8 30  1  0  0  0
  9 30  1  0  0  0
 10  9  1  0  0  0
 10 11  1  0  0  0
 10 32  1  0  0  0
 11 32  1  0  0  0
 11 12  1  0  0  0
 12 13  1  0  0  0
 13 33  1  0  0  0
 14 33  1  0  0  0
 14 15  1  0  0  0
 14 16  1  0  0  0
 14 28  1  0  0  0
 15 34  1  0  0  0
 15 11  1  0  0  0
 17 18  1  0  0  0
 19 20  1  0  0  0
 20 36  1  0  0  0
 21 36  1  0  0  0
 21 22  1  0  0  0
 22 23  1  0  0  0
 22 27  1  0  0  0
 22  5  1  0  0  0
 23 24  1  0  0  0
 23 25  1  0  0  0
 23 37  1  0  0  0
 24 37  1  0  0  0
 25 26  1  0  0  0
 25 38  1  0  0  0
 26 21  1  0  0  0
 28 29  1  0  0  0
 28 39  1  0  0  0
  2  3  2  0  0  0
  9 31  2  0  0  0
 16 17  2  0  0  0
 18 19  2  0  0  0
 20 35  2  0  0  0
M  END
> <rmsd>
0.792489886

$$$$
PubChem-88229674


 32 34  0  0  0  0  0  0  0  0999 V2000
   -0.2712   30.4810   61.4530 C   0  0  0  0  0
    0.8538   29.5020   61.5418 C   0  0  0  0  0
    1.7553   29.3796   60.4736 C   0  0  0  0  0
    2.8157   28.4631   60.5522 C   0  0  0  0  0
    2.9800   27.6984   61.7122 C   0  0  0  0  0
    2.0873   27.8030   62.7848 C   0  0  0  0  0
    1.0269   28.7375   62.7086 C   0  0  0  0  0
    0.5334   29.4583   65.0160 C   0  0  0  0  0
   -0.3651   29.4936   66.0044 C   0  0  0  0  0
   -0.0723   30.0556   67.3711 C   0  0  0  0  0
    1.3642   30.4980   67.5481 C   0  0  0  0  0
    1.0080   31.0370   69.8423 C   0  0  0  0  0
    2.2913   30.4568   66.4087 C   0  0  0  0  0
    1.9028   29.9760   65.2295 C   0  0  0  0  0
    3.8183   28.3791   59.4326 C   0  0  0  0  0
    3.1860   28.7791   58.0989 C   0  0  0  0  0
    2.4476   30.1374   58.1861 C   0  0  0  0  0
    3.4447   31.2862   58.2968 C   0  0  0  0  0
    1.5641   30.3549   56.9450 C   0  0  0  0  0
   -0.6214   29.9885   56.9101 C   0  0  0  0  0
    1.9615   31.6207   55.1692 C   0  0  0  0  0
    0.1440   28.9290   63.7795 O   0  0  0  0  0
    1.2959   26.6281   64.6446 O   0  0  0  0  0
    3.4666   26.2983   64.1124 O   0  0  0  0  0
    1.5962   30.1841   59.3362 O   0  0  0  0  0
    0.6104   29.3368   56.8341 O   0  0  0  0  0
    2.3261   30.4160   55.7722 O   0  0  0  0  0
    4.1607   28.7936   57.0956 O   0  0  0  0  0
    1.8024   30.9408   68.6876 N   0  0  0  0  0
    0.3543   31.1165   70.7940 N   0  0  0  0  0
    2.2632   26.9369   63.9188 N   0  0  0  0  0
    4.3568   27.0306   59.3235 N   0  0  0  0  0
  1  2  1  0  0  0
  3  4  1  0  0  0
  3 25  1  0  0  0
  5  6  1  0  0  0
  6 31  1  0  0  0
  7 22  1  0  0  0
  7  2  1  0  0  0
  8 22  1  0  0  0
 10  9  1  0  0  0
 10 11  1  0  0  0
 11 13  1  0  0  0
 14  8  1  0  0  0
 15  4  1  0  0  0
 15 16  1  0  0  0
 15 32  1  0  0  0
 16 17  1  0  0  0
 16 28  1  0  0  0
 17 25  1  0  0  0
 17 18  1  0  0  0
 17 19  1  0  0  0
 19 26  1  0  0  0
 19 27  1  0  0  0
 20 26  1  0  0  0
 21 27  1  0  0  0
 29 12  1  0  0  0
 31 24  1  0  0  0
  2  3  2  0  0  0
  4  5  2  0  0  0
  6  7  2  0  0  0
  8  9  2  0  0  0
 11 29  2  0  0  0
 13 14  2  0  0  0
 31 23  2  0  0  0
 12 30  3  0  0  0
M  CHG  2  31   1  24  -1
M  END
> <rmsd>
0.751578629

$$$$
PubChem-20077517 PubChem-20077518 PubChem-20077520 PubChem-73658537


 21 21  0  0  0  0  0  0  0  0999 V2000
    5.5944   29.0355   63.3915 C   0  0  0  0  0
    4.6070   29.1851   62.2819 C   0  0  0  0  0
    4.9075   30.0802   61.2590 C   0  0  0  0  0
    4.0253   30.2821   60.2011 C   0  0  0  0  0
    2.8077   29.5710   60.1495 C   0  0  0  0  0
    2.4877   28.6686   61.1920 C   0  0  0  0  0
    3.3865   28.4794   62.2696 C   0  0  0  0  0
    3.0698   27.5430   63.3713 C   0  0  0  0  0
    1.2274   27.8580   61.1132 C   0  0  0  0  0
    1.8670   29.7697   59.0240 C   0  0  0  0  0
    4.3986   31.2945   59.1705 C   0  0  0  0  0
    3.8252   26.5601   63.5933 O   0  0  0  0  0
    2.0670   27.7209   65.8726 O   0  0  0  0  0
    0.9777   29.3318   64.1261 O   0  0  0  0  0
    0.4842   26.6152   64.1097 O   0  0  0  0  0
    0.7031   30.1946   59.2499 O   0  0  0  0  0
    1.2706   28.5408   56.6941 O   0  0  0  0  0
    2.5336   30.8184   56.4652 O   0  0  0  0  0
    3.8041   28.5269   57.3364 O   0  0  0  0  0
    1.6432   27.8055   64.4244 P   0  0  0  0  0
    2.3457   29.3839   57.3403 P   0  0  0  0  0
  1  2  1  0  0  0
  3  4  1  0  0  0
  5  6  1  0  0  0
  5 10  1  0  0  0
  7  8  1  0  0  0
  7  2  1  0  0  0
  9  6  1  0  0  0
 11  4  1  0  0  0
 20  8  1  0  0  0
 20 14  1  0  0  0
 20 15  1  0  0  0
 21 10  1  0  0  0
 21 18  1  0  0  0
 21 19  1  0  0  0
  2  3  2  0  0  0
  4  5  2  0  0  0
  6  7  2  0  0  0
  8 12  2  0  0  0
 10 16  2  0  0  0
 20 13  2  0  0  0
 21 17  2  0  0  0
M  END
> <rmsd>
0.725978017

$$$$
PubChem-20077517 PubChem-20077518 PubChem-20077520 PubChem-73658537


 21 21  0  0  0  0  0  0  0  0999 V2000
    4.3809   31.2875   59.1971 C   0  0  0  0  0
    4.0031   30.2676   60.2187 C   0  0  0  0  0
    4.8785   30.0614   61.2814 C   0  0  0  0  0
    4.5731   29.1592   62.2966 C   0  0  0  0  0
    3.3546   28.4503   62.2715 C   0  0  0  0  0
    2.4628   28.6439   61.1888 C   0  0  0  0  0
    2.7877   29.5537   60.1542 C   0  0  0  0  0
    1.8542   29.7572   59.0235 C   0  0  0  0  0
    1.2053   27.8307   61.0961 C   0  0  0  0  0
    3.0329   27.5063   63.3653 C   0  0  0  0  0
    5.5533   29.0051   63.4120 C   0  0  0  0  0
    0.6877   30.1777   59.2440 O   0  0  0  0  0
    1.2772   28.5413   56.6820 O   0  0  0  0  0
    3.8061   28.5299   57.3417 O   0  0  0  0  0
    2.5358   30.8236   56.4760 O   0  0  0  0  0
    3.7891   26.5238   63.5864 O   0  0  0  0  0
    0.5655   26.6998   64.1193 O   0  0  0  0  0
    2.0692   27.6528   66.0342 O   0  0  0  0  0
    0.9381   29.2900   64.1248 O   0  0  0  0  0
    2.3456   29.3831   57.3407 P   0  0  0  0  0
    1.6011   27.7607   64.4130 P   0  0  0  0  0
  1  2  1  0  0  0
  3  4  1  0  0  0
  5  6  1  0  0  0
  5 10  1  0  0  0
  7  8  1  0  0  0
  7  2  1  0  0  0
  9  6  1  0  0  0
 11  4  1  0  0  0
 20  8  1  0  0  0
 20 14  1  0  0  0
 20 15  1  0  0  0
 21 10  1  0  0  0
 21 18  1  0  0  0
 21 19  1  0  0  0
  2  3  2  0  0  0
  4  5  2  0  0  0
  6  7  2  0  0  0
  8 12  2  0  0  0
 10 16  2  0  0  0
 20 13  2  0  0  0
 21 17  2  0  0  0
M  END
> <rmsd>
0.72260493

$$$$
PubChem-21727670


 36 39  0  0  0  0  0  0  0  0999 V2000
    3.5716   26.6470   56.9852 C   0  0  0  0  0
    4.9069   26.1332   56.4592 C   0  0  0  0  0
    5.9652   26.1769   57.5101 C   0  0  0  0  0
    5.9256   25.2907   58.5930 C   0  0  0  0  0
    6.9398   25.3149   59.5564 C   0  0  0  0  0
    7.9923   26.2300   59.4387 C   0  0  0  0  0
    8.0348   27.1121   58.3550 C   0  0  0  0  0
    7.0247   27.0819   57.3890 C   0  0  0  0  0
    6.8950   24.3656   60.7064 C   0  0  0  0  0
    6.3582   25.0399   61.9625 C   0  0  0  0  0
    4.8621   25.3121   61.8556 C   0  0  0  0  0
    4.3647   26.1229   63.0570 C   0  0  0  0  0
    2.8482   26.2652   62.8809 C   0  0  0  0  0
    2.2283   26.9785   64.0718 C   0  0  0  0  0
    0.3072   27.3451   65.0914 C   0  0  0  0  0
   -0.9133   28.2429   65.0282 C   0  0  0  0  0
   -1.6495   30.1098   64.1093 C   0  0  0  0  0
   -1.2262   31.2307   63.1797 C   0  0  0  0  0
   -0.4402   31.7624   61.1895 C   0  0  0  0  0
   -0.4198   31.2234   59.7717 C   0  0  0  0  0
    1.0455   30.8502   58.1714 C   0  0  0  0  0
    2.3547   30.2081   57.7398 C   0  0  0  0  0
    2.2540   28.6745   57.7090 C   0  0  0  0  0
    3.5859   28.1641   57.1444 C   0  0  0  0  0
    3.9963   30.1629   56.1914 C   0  0  0  0  0
    2.8006   24.4646   61.5214 C   0  0  0  0  0
    0.8801   27.2353   63.8240 O   0  0  0  0  0
   -0.5246   29.5443   64.7091 O   0  0  0  0  0
   -0.5166   30.7073   62.0983 O   0  0  0  0  0
    0.7959   30.5872   59.5187 O   0  0  0  0  0
    3.8700   28.7890   55.9137 O   0  0  0  0  0
    2.7298   30.7072   56.4771 O   0  0  0  0  0
    1.1965   28.2772   56.8827 O   0  0  0  0  0
    2.2492   25.0022   62.7009 O   0  0  0  0  0
    4.1439   24.1048   61.7438 O   0  0  0  0  0
    4.6516   25.4450   64.2479 O   0  0  0  0  0
  1  2  1  0  0  0
  2  3  1  0  0  0
  4  5  1  0  0  0
  6  7  1  0  0  0
  8  3  1  0  0  0
  9  5  1  0  0  0
  9 10  1  0  0  0
 11 10  1  0  0  0
 11 12  1  0  0  0
 11 35  1  0  0  0
 12 13  1  0  0  0
 12 36  1  0  0  0
 13 14  1  0  0  0
 13 34  1  0  0  0
 14 27  1  0  0  0
 15 27  1  0  0  0
 15 16  1  0  0  0
 16 28  1  0  0  0
 17 28  1  0  0  0
 17 18  1  0  0  0
 18 29  1  0  0  0
 19 29  1  0  0  0
 19 20  1  0  0  0
 20 30  1  0  0  0
 21 30  1  0  0  0
 22 21  1  0  0  0
 22 23  1  0  0  0
 22 32  1  0  0  0
 23 24  1  0  0  0
 23 33  1  0  0  0
 24 31  1  0  0  0
 24  1  1  0  0  0
 25 31  1  0  0  0
 25 32  1  0  0  0
 26 34  1  0  0  0
 26 35  1  0  0  0
  3  4  2  0  0  0
  5  6  2  0  0  0
  7  8  2  0  0  0
M  END
> <rmsd>
0.801898241

$$$$
PubChem-89136664


 21 21  0  0  0  0  0  0  0  0999 V2000
    3.5167   26.7575   60.6668 C   0  0  0  0  0
    2.8726   27.5983   61.7533 C   0  0  0  0  0
    2.3481   26.7016   62.8814 C   0  0  0  0  0
    1.6679   27.5652   63.9455 C   0  0  0  0  0
    0.7203   28.5902   63.3195 C   0  0  0  0  0
    1.4237   29.2842   62.1484 C   0  0  0  0  0
    1.6639   31.3808   60.5963 C   0  0  0  0  0
    2.3073   32.5023   61.3432 C   0  0  0  0  0
    2.0684   33.8141   60.6651 C   0  0  0  0  0
    0.8655   34.3839   60.6853 C   0  0  0  0  0
    1.8094   28.3264   61.1942 O   0  0  0  0  0
    1.5468   30.0168   58.7085 O   0  0  0  0  0
    2.1157   30.7436   56.2568 O   0  0  0  0  0
    1.4084   28.4255   56.6358 O   0  0  0  0  0
    3.7981   29.1162   57.3897 O   0  0  0  0  0
    0.3602   29.5323   64.2849 O   0  0  0  0  0
    0.9628   26.7517   64.8333 O   0  0  0  0  0
    3.4047   25.9996   63.4654 O   0  0  0  0  0
    0.3076   30.4890   61.3633 S   0  0  0  0  0
    2.1940   29.5755   57.1985 S   0  0  0  0  0
    2.1071   31.0497   59.4243 N   0  0  0  0  0
  2  1  1  0  0  0
  2  3  1  0  0  0
  2 11  1  0  0  0
  3  4  1  0  0  0
  3 18  1  0  0  0
  4  5  1  0  0  0
  4 17  1  0  0  0
  5  6  1  0  0  0
  5 16  1  0  0  0
  6 11  1  0  0  0
  6 19  1  0  0  0
  7 19  1  0  0  0
  8  7  1  0  0  0
  8  9  1  0  0  0
 20 12  1  0  0  0
 20 15  1  0  0  0
 21 12  1  0  0  0
  7 21  2  0  0  0
  9 10  2  0  0  0
 20 13  2  0  0  0
 20 14  2  0  0  0
M  END
> <rmsd>
0.806169152

$$$$
PubChem-25051580


 22 22  0  0  0  0  0  0  0  0999 V2000
   -0.0788   30.3795   60.9800 C   0  0  0  0  0
    1.6567   28.9442   59.8788 C   0  0  0  0  0
    2.1433   28.5279   58.6916 C   0  0  0  0  0
    3.3608   27.6381   58.5894 C   0  0  0  0  0
    4.1610   27.5748   59.8553 C   0  0  0  0  0
    5.3940   27.0793   59.8631 C   0  0  0  0  0
    3.5463   27.9721   61.1206 C   0  0  0  0  0
    2.3605   28.5894   61.1544 C   0  0  0  0  0
    2.3569   28.5699   63.7153 C   0  0  0  0  0
    1.7577   29.4342   64.8196 C   0  0  0  0  0
    2.1764   27.1107   63.9998 C   0  0  0  0  0
    1.9042   28.5397   56.1550 C   0  0  0  0  0
    3.0280   29.4285   55.7460 C   0  0  0  0  0
    0.4861   29.7229   59.8552 O   0  0  0  0  0
    6.0090   26.6458   58.6936 O   0  0  0  0  0
    0.3654   29.3226   64.8441 O   0  0  0  0  0
    1.0265   26.5969   64.0219 O   0  0  0  0  0
    3.2902   26.3147   64.2293 O   0  0  0  0  0
    4.2023   28.9790   55.7033 O   0  0  0  0  0
    2.7833   30.7581   55.4296 O   0  0  0  0  0
    1.7788   28.9230   62.4218 N   0  0  0  0  0
    1.4460   28.8905   57.4926 N   0  0  0  0  0
  1 14  1  0  0  0
  2 14  1  0  0  0
  3 22  1  0  0  0
  4  3  1  0  0  0
  4  5  1  0  0  0
  5  7  1  0  0  0
  6 15  1  0  0  0
  8 21  1  0  0  0
  8  2  1  0  0  0
  9 21  1  0  0  0
  9 10  1  0  0  0
  9 11  1  0  0  0
 10 16  1  0  0  0
 11 18  1  0  0  0
 12 22  1  0  0  0
 12 13  1  0  0  0
 13 20  1  0  0  0
  2  3  2  0  0  0
  5  6  2  0  0  0
  7  8  2  0  0  0
 11 17  2  0  0  0
 13 19  2  0  0  0
M  END
> <rmsd>
0.732194304

$$$$
PubChem-146472992


 31 34  0  0  0  0  0  0  0  0999 V2000
   10.5682   27.7660   67.7453 C   0  0  0  0  0
    9.1829   27.1407   67.8693 C   0  0  0  0  0
    9.1183   25.8406   67.0690 C   0  0  0  0  0
    9.4664   26.0763   65.5937 C   0  0  0  0  0
   10.8299   26.7600   65.4660 C   0  0  0  0  0
   10.8836   28.0523   66.2808 C   0  0  0  0  0
    7.1092   26.3998   64.7062 C   0  0  0  0  0
    6.1510   27.2161   64.1191 C   0  0  0  0  0
    6.2002   28.5226   63.6688 C   0  0  0  0  0
    4.9053   28.7737   63.1951 C   0  0  0  0  0
    4.8960   26.7427   63.9145 C   0  0  0  0  0
    5.4646   24.6749   64.8405 C   0  0  0  0  0
    2.7098   27.5509   63.0156 C   0  0  0  0  0
    1.8667   28.3132   64.0205 C   0  0  0  0  0
    1.1060   29.2963   63.1691 C   0  0  0  0  0
    1.2553   28.7402   61.7778 C   0  0  0  0  0
    1.2567   29.8725   60.7675 C   0  0  0  0  0
    1.6420   30.4260   58.6671 C   0  0  0  0  0
    8.4387   26.8749   64.9347 N   0  0  0  0  0
    4.1244   27.6750   63.3460 N   0  0  0  0  0
    4.5276   25.4856   64.2643 N   0  0  0  0  0
    6.7390   25.1309   65.0561 N   0  0  0  0  0
    5.0345   23.0441   65.3069 Cl  0  0  0  0  0
    2.4708   28.0403   61.7165 O   0  0  0  0  0
    1.2736   29.3505   59.4744 O   0  0  0  0  0
    0.9862   29.0829   56.3913 O   0  0  0  0  0
    3.4543   28.7612   57.2022 O   0  0  0  0  0
    2.5917   31.1219   56.0583 O   0  0  0  0  0
   -0.2444   29.3703   63.5230 O   0  0  0  0  0
    1.0085   27.4166   64.6635 O   0  0  0  0  0
    2.1422   29.8153   57.0336 P   0  0  0  0  0
  1  2  1  0  0  0
  2  3  1  0  0  0
  3  4  1  0  0  0
  4  5  1  0  0  0
  4 19  1  0  0  0
  5  6  1  0  0  0
  6  1  1  0  0  0
  7 22  1  0  0  0
  8  9  1  0  0  0
 10 20  1  0  0  0
 11  8  1  0  0  0
 12 21  1  0  0  0
 12 23  1  0  0  0
 13 20  1  0  0  0
 13 14  1  0  0  0
 13 24  1  0  0  0
 14 15  1  0  0  0
 14 30  1  0  0  0
 15 16  1  0  0  0
 15 29  1  0  0  0
 16 24  1  0  0  0
 16 17  1  0  0  0
 17 25  1  0  0  0
 18 25  1  0  0  0
 18 31  1  0  0  0
 19  7  1  0  0  0
 20 11  1  0  0  0
 31 27  1  0  0  0
 31 28  1  0  0  0
  7  8  2  0  0  0
  9 10  2  0  0  0
 11 21  2  0  0  0
 12 22  2  0  0  0
 31 26  2  0  0  0
M  END
> <rmsd>
0.78867358

$$$$
PubChem-20023049


 31 36  0  0  0  0  0  0  0  0999 V2000
   -0.4169   31.7616   59.7837 C   0  0  0  0  0
   -0.8145   32.8988   60.7026 C   0  0  0  0  0
    0.2949   33.5838   62.6781 C   0  0  0  0  0
    0.7668   32.3008   63.3076 C   0  0  0  0  0
   -0.0313   31.6869   64.1922 C   0  0  0  0  0
    0.3033   30.3555   64.7910 C   0  0  0  0  0
    1.6636   29.2893   63.3837 C   0  0  0  0  0
    1.9875   30.3097   62.2818 C   0  0  0  0  0
    2.0995   31.7277   62.8465 C   0  0  0  0  0
    2.6633   32.5902   61.7291 C   0  0  0  0  0
    1.5540   32.7837   60.6874 C   0  0  0  0  0
    1.0242   31.4640   60.1113 C   0  0  0  0  0
    1.0967   30.1891   61.0221 C   0  0  0  0  0
    2.0353   29.6117   59.0306 C   0  0  0  0  0
    1.7459   31.0164   58.8932 C   0  0  0  0  0
    2.0467   31.7245   57.8050 C   0  0  0  0  0
    2.7510   31.0694   56.6907 C   0  0  0  0  0
    3.0962   29.6299   56.7712 C   0  0  0  0  0
    2.6282   28.7775   57.9301 C   0  0  0  0  0
    1.9895   27.8697   62.9381 C   0  0  0  0  0
    2.0584   26.9427   64.1045 C   0  0  0  0  0
    0.3945   33.5479   61.2061 N   0  0  0  0  0
    1.6593   29.1392   60.1683 N   0  0  0  0  0
    1.6587   27.7924   57.4702 N   0  0  0  0  0
    0.3230   29.3847   63.7824 O   0  0  0  0  0
    3.0662   31.7430   55.6747 O   0  0  0  0  0
    3.7786   29.0987   55.8551 O   0  0  0  0  0
    1.8703   26.5795   57.6683 O   0  0  0  0  0
    0.4807   28.1916   56.8813 O   0  0  0  0  0
    1.0269   26.6912   64.7809 O   0  0  0  0  0
    3.2635   26.3367   64.4319 O   0  0  0  0  0
  1  2  1  0  0  0
  2 22  1  0  0  0
  3 22  1  0  0  0
  3  4  1  0  0  0
  6  5  1  0  0  0
  6 25  1  0  0  0
  7 25  1  0  0  0
  7 20  1  0  0  0
  8  7  1  0  0  0
  8  9  1  0  0  0
  9 10  1  0  0  0
  9  4  1  0  0  0
 11 10  1  0  0  0
 11 12  1  0  0  0
 11 22  1  0  0  0
 12 13  1  0  0  0
 12  1  1  0  0  0
 12 15  1  0  0  0
 13 23  1  0  0  0
 13  8  1  0  0  0
 14 15  1  0  0  0
 16 17  1  0  0  0
 17 18  1  0  0  0
 19 18  1  0  0  0
 19 24  1  0  0  0
 19 14  1  0  0  0
 20 21  1  0  0  0
 21 31  1  0  0  0
 24 29  1  0  0  0
  4  5  2  0  0  0
 14 23  2  0  0  0
 15 16  2  0  0  0
 17 26  2  0  0  0
 18 27  2  0  0  0
 21 30  2  0  0  0
 24 28  2  0  0  0
M  CHG  2  24   1  29  -1
M  END
> <rmsd>
0.7512483

$$$$
PubChem-146473317


 34 37  0  0  0  0  0  0  0  0999 V2000
   10.6245   26.8895   66.1685 C   0  0  0  0  0
    9.4299   26.0240   65.8142 C   0  0  0  0  0
    9.8435   24.9051   64.9073 C   0  0  0  0  0
    9.7042   23.5834   65.3455 C   0  0  0  0  0
   10.0666   22.5233   64.5095 C   0  0  0  0  0
   10.5682   22.7814   63.2306 C   0  0  0  0  0
   10.7082   24.0998   62.7870 C   0  0  0  0  0
   10.3460   25.1605   63.6220 C   0  0  0  0  0
    7.0727   26.3732   64.9438 C   0  0  0  0  0
    6.1367   27.1750   64.3039 C   0  0  0  0  0
    6.2085   28.4628   63.8058 C   0  0  0  0  0
    4.9306   28.7031   63.2829 C   0  0  0  0  0
    4.8854   26.7016   64.0789 C   0  0  0  0  0
    5.4130   24.6646   65.0928 C   0  0  0  0  0
    2.7344   27.4859   63.0796 C   0  0  0  0  0
    1.8613   28.2546   64.0534 C   0  0  0  0  0
    1.1731   29.2699   63.1804 C   0  0  0  0  0
    1.3436   28.7074   61.7947 C   0  0  0  0  0
    1.4173   29.8381   60.7850 C   0  0  0  0  0
    1.7802   30.4058   58.6845 C   0  0  0  0  0
    9.9294   21.2456   64.9381 F   0  0  0  0  0
    8.4004   26.8447   65.1883 N   0  0  0  0  0
    4.1383   27.6153   63.4500 N   0  0  0  0  0
    4.4991   25.4592   64.4604 N   0  0  0  0  0
    6.6829   25.1211   65.3299 N   0  0  0  0  0
    4.9610   23.0530   65.6019 Cl  0  0  0  0  0
    2.5330   27.9618   61.7685 O   0  0  0  0  0
    1.4638   29.3149   59.4931 O   0  0  0  0  0
    3.4039   28.9068   57.0955 O   0  0  0  0  0
    2.5735   31.1498   56.0381 O   0  0  0  0  0
    0.8941   28.9835   56.3622 O   0  0  0  0  0
   -0.1830   29.4020   63.4914 O   0  0  0  0  0
    0.9457   27.3712   64.6324 O   0  0  0  0  0
    2.2051   29.8241   57.0204 P   0  0  0  0  0
  2  1  1  0  0  0
  2  3  1  0  0  0
  2 22  1  0  0  0
  4  5  1  0  0  0
  5 21  1  0  0  0
  6  7  1  0  0  0
  8  3  1  0  0  0
  9 25  1  0  0  0
 10 11  1  0  0  0
 12 23  1  0  0  0
 13 10  1  0  0  0
 14 24  1  0  0  0
 14 26  1  0  0  0
 15 23  1  0  0  0
 15 16  1  0  0  0
 15 27  1  0  0  0
 16 17  1  0  0  0
 16 33  1  0  0  0
 17 18  1  0  0  0
 17 32  1  0  0  0
 18 27  1  0  0  0
 18 19  1  0  0  0
 19 28  1  0  0  0
 20 28  1  0  0  0
 20 34  1  0  0  0
 22  9  1  0  0  0
 23 13  1  0  0  0
 34 30  1  0  0  0
 34 31  1  0  0  0
  3  4  2  0  0  0
  5  6  2  0  0  0
  7  8  2  0  0  0
  9 10  2  0  0  0
 11 12  2  0  0  0
 13 24  2  0  0  0
 14 25  2  0  0  0
 34 29  2  0  0  0
M  END
> <rmsd>
0.784824014

$$$$
PubChem-163791697


 23 24  0  0  0  0  0  0  0  0999 V2000
    0.0440   31.9829   59.7185 C   0  0  0  0  0
    1.0549   33.0623   60.0039 C   0  0  0  0  0
    2.2006   33.1249   59.3212 C   0  0  0  0  0
    2.5232   32.1067   58.3064 C   0  0  0  0  0
    1.7923   30.9917   58.2018 C   0  0  0  0  0
    0.7037   30.6938   59.2068 C   0  0  0  0  0
    2.2703   27.9788   61.1350 C   0  0  0  0  0
    2.3217   28.5403   62.5345 C   0  0  0  0  0
    3.5242   28.0006   63.3252 C   0  0  0  0  0
    3.7438   26.5186   63.1487 C   0  0  0  0  0
    3.4320   25.8973   62.0080 C   0  0  0  0  0
    2.7688   26.6101   60.9084 C   0  0  0  0  0
    1.0349   28.3055   63.2633 C   0  0  0  0  0
    1.2511   29.9517   60.3316 N   0  0  0  0  0
    1.7557   28.6562   60.1545 N   0  0  0  0  0
    2.6009   26.0208   59.7706 N   0  0  0  0  0
    4.3789   25.7850   64.1882 N   0  0  0  0  0
    0.6454   27.1361   63.5244 O   0  0  0  0  0
    0.2578   29.3903   63.6456 O   0  0  0  0  0
    1.0799   28.8076   56.8466 O   0  0  0  0  0
    2.3740   30.5009   55.6459 O   0  0  0  0  0
    3.6113   29.0152   57.3903 O   0  0  0  0  0
    2.1931   29.8099   56.9680 S   0  0  0  0  0
  1  2  1  0  0  0
  3  4  1  0  0  0
  6  5  1  0  0  0
  6 14  1  0  0  0
  6  1  1  0  0  0
  8  7  1  0  0  0
  8  9  1  0  0  0
  8 13  1  0  0  0
  9 10  1  0  0  0
 10 17  1  0  0  0
 11 12  1  0  0  0
 12  7  1  0  0  0
 13 19  1  0  0  0
 14 15  1  0  0  0
 23  5  1  0  0  0
 23 22  1  0  0  0
  2  3  2  0  0  0
  4  5  2  0  0  0
  7 15  2  0  0  0
 10 11  2  0  0  0
 12 16  2  0  0  0
 13 18  2  0  0  0
 23 20  2  0  0  0
 23 21  2  0  0  0
M  END
> <rmsd>
0.767922163

$$$$
PubChem-159504075 PubChem-22394830


 29 30  0  0  0  0  0  0  0  0999 V2000
    2.0812   26.7529   54.5717 C   0  0  0  0  0
    1.4778   27.7387   56.7827 C   0  0  0  0  0
    0.7183   28.1800   58.6896 C   0  0  0  0  0
    0.2105   26.9571   58.2952 C   0  0  0  0  0
    0.4327   28.8523   59.9609 C   0  0  0  0  0
   -0.8028   28.8149   62.2075 C   0  0  0  0  0
   -1.5480   30.1356   62.0155 C   0  0  0  0  0
   -2.9504   29.9132   61.5536 C   0  0  0  0  0
   -4.0125   30.2070   62.4116 C   0  0  0  0  0
   -5.3233   30.0168   61.9677 C   0  0  0  0  0
   -4.5381   29.2720   59.8543 C   0  0  0  0  0
   -3.2138   29.4490   60.2605 C   0  0  0  0  0
    0.4310   29.0046   63.0941 C   0  0  0  0  0
    1.1696   27.6835   63.3040 C   0  0  0  0  0
    2.5316   27.9357   63.9296 C   0  0  0  0  0
    3.3631   26.7324   63.8384 C   0  0  0  0  0
    3.9437   29.0344   53.5892 C   0  0  0  0  0
    2.1917   27.8274   55.5444 N   0  0  0  0  0
    1.5245   28.6873   57.7380 N   0  0  0  0  0
   -0.4385   28.2323   60.9153 N   0  0  0  0  0
   -5.5573   29.5558   60.7094 N   0  0  0  0  0
    4.0201   25.7824   63.7666 N   0  0  0  0  0
    0.7094   26.7232   57.1046 O   0  0  0  0  0
    0.9551   29.9729   60.2064 O   0  0  0  0  0
    0.4187   26.8235   64.1111 O   0  0  0  0  0
    0.0620   29.5526   64.3270 O   0  0  0  0  0
    2.3463   30.4486   55.1995 O   0  0  0  0  0
    4.2709   29.3190   56.2268 O   0  0  0  0  0
    3.1880   29.2039   55.1913 S   0  0  0  0  0
  1 18  1  0  0  0
  2 23  1  0  0  0
  3 19  1  0  0  0
  3  5  1  0  0  0
  4 23  1  0  0  0
  5 20  1  0  0  0
  6 20  1  0  0  0
  6  7  1  0  0  0
  6 13  1  0  0  0
  7  8  1  0  0  0
  9 10  1  0  0  0
 11 21  1  0  0  0
 12  8  1  0  0  0
 13 14  1  0  0  0
 13 26  1  0  0  0
 14 15  1  0  0  0
 14 25  1  0  0  0
 15 16  1  0  0  0
 18  2  1  0  0  0
 29 18  1  0  0  0
 29 17  1  0  0  0
  2 19  2  0  0  0
  3  4  2  0  0  0
  5 24  2  0  0  0
  8  9  2  0  0  0
 10 21  2  0  0  0
 11 12  2  0  0  0
 29 27  2  0  0  0
 29 28  2  0  0  0
 16 22  3  0  0  0
M  END
> <rmsd>
0.677323639

$$$$
PubChem-155619866


 35 38  0  0  0  0  0  0  0  0999 V2000
    5.3745   36.6562   57.3926 C   0  0  0  0  0
    4.9512   35.2437   57.2106 C   0  0  0  0  0
    3.6420   34.8525   57.4829 C   0  0  0  0  0
    4.1684   32.6284   56.8721 C   0  0  0  0  0
    5.8549   34.2822   56.7628 C   0  0  0  0  0
    3.7514   31.2007   56.6849 C   0  0  0  0  0
    3.3715   30.5598   58.0270 C   0  0  0  0  0
    4.5709   30.5295   58.9615 C   0  0  0  0  0
    1.7202   28.6575   60.3755 C   0  0  0  0  0
    0.6892   28.9290   62.2004 C   0  0  0  0  0
    2.2594   26.9351   62.0962 C   0  0  0  0  0
    1.2737   26.0504   62.8330 C   0  0  0  0  0
    0.4032   27.7426   64.4794 C   0  0  0  0  0
    0.2034   28.8453   63.5994 C   0  0  0  0  0
   -0.9172   30.0388   65.3441 C   0  0  0  0  0
   -0.7153   28.9929   66.2359 C   0  0  0  0  0
   -0.0540   27.8510   65.7960 C   0  0  0  0  0
    3.4627   27.3280   62.9453 C   0  0  0  0  0
    5.1709   26.6453   64.1610 C   0  0  0  0  0
    3.2287   30.7087   54.5764 C   0  0  0  0  0
    3.1509   31.8216   53.5498 C   0  0  0  0  0
    2.4546   29.5095   54.0687 C   0  0  0  0  0
    3.2737   33.5563   57.3101 N   0  0  0  0  0
    5.4494   32.9955   56.6019 N   0  0  0  0  0
    2.5843   28.1332   59.3659 N   0  0  0  0  0
    0.9648   29.7599   60.2253 N   0  0  0  0  0
    0.3220   29.9311   61.3715 N   0  0  0  0  0
    1.5753   28.1117   61.5939 N   0  0  0  0  0
   -0.4589   29.9415   64.0701 N   0  0  0  0  0
    2.7573   28.8911   57.8197 S   0  0  0  0  0
    3.7304   28.0971   56.9942 O   0  0  0  0  0
    1.4233   28.9086   57.1279 O   0  0  0  0  0
    1.0232   26.5316   64.1449 O   0  0  0  0  0
    4.2368   26.2020   63.2262 O   0  0  0  0  0
    2.6780   31.1462   55.7855 O   0  0  0  0  0
  1  2  1  0  0  0
  3 23  1  0  0  0
  4 24  1  0  0  0
  5  2  1  0  0  0
  6  4  1  0  0  0
  6  7  1  0  0  0
  6 35  1  0  0  0
  7  8  1  0  0  0
  7 30  1  0  0  0
 10 28  1  0  0  0
 11 28  1  0  0  0
 11 12  1  0  0  0
 11 18  1  0  0  0
 12 33  1  0  0  0
 13 33  1  0  0  0
 14 29  1  0  0  0
 14 10  1  0  0  0
 15 16  1  0  0  0
 17 13  1  0  0  0
 18 34  1  0  0  0
 19 34  1  0  0  0
 20 35  1  0  0  0
 20 21  1  0  0  0
 20 22  1  0  0  0
 25  9  1  0  0  0
 26 27  1  0  0  0
 28  9  1  0  0  0
 30 25  1  0  0  0
  2  3  2  0  0  0
  4 23  2  0  0  0
  5 24  2  0  0  0
  9 26  2  0  0  0
 10 27  2  0  0  0
 13 14  2  0  0  0
 15 29  2  0  0  0
 16 17  2  0  0  0
 30 31  2  0  0  0
 30 32  2  0  0  0
M  END
> <rmsd>
0.724799514

$$$$
PubChem-77425867


 38 43  0  0  0  0  0  0  0  0999 V2000
    1.0264   26.5228   62.1169 C   0  0  0  0  0
    2.4299   26.7578   61.5618 C   0  0  0  0  0
    2.4124   26.8515   60.0373 C   0  0  0  0  0
    3.7940   26.6056   59.4752 C   0  0  0  0  0
    4.1336   27.1875   58.3329 C   0  0  0  0  0
    3.2813   28.0660   57.6032 C   0  0  0  0  0
    2.0926   28.4905   58.0594 C   0  0  0  0  0
    1.7128   28.1426   59.4887 C   0  0  0  0  0
    1.8528   29.3438   60.3949 C   0  0  0  0  0
    3.0784   28.0100   62.1714 C   0  0  0  0  0
    3.0746   27.9650   63.7053 C   0  0  0  0  0
    1.6908   27.6362   64.2837 C   0  0  0  0  0
    1.0917   26.3826   63.6338 C   0  0  0  0  0
    0.7282   27.0222   54.8658 C   0  0  0  0  0
   -0.4287   27.0324   55.6628 C   0  0  0  0  0
   -1.2497   25.9035   55.7297 C   0  0  0  0  0
   -0.9211   24.7574   55.0009 C   0  0  0  0  0
    0.2281   24.7410   54.2058 C   0  0  0  0  0
    1.0492   25.8706   54.1394 C   0  0  0  0  0
   -0.4637   30.5911   53.7666 C   0  0  0  0  0
   -1.7056   31.1511   53.4479 C   0  0  0  0  0
   -2.0257   31.4534   52.1209 C   0  0  0  0  0
   -1.1033   31.1964   51.1029 C   0  0  0  0  0
    0.1396   30.6373   51.4117 C   0  0  0  0  0
    0.4591   30.3355   52.7384 C   0  0  0  0  0
    5.2163   27.7548   56.3988 C   0  0  0  0  0
    1.3772   30.4536   60.0371 O   0  0  0  0  0
   -0.1835   26.1356   64.1428 O   0  0  0  0  0
    0.8335   28.7300   64.1357 O   0  0  0  0  0
    4.0110   27.0323   64.1545 O   0  0  0  0  0
    1.1984   29.2817   57.3201 O   0  0  0  0  0
    2.4328   30.5668   55.3612 O   0  0  0  0  0
    1.5753   28.1309   54.7766 O   0  0  0  0  0
   -0.1815   30.2992   55.1051 O   0  0  0  0  0
    3.9288   28.3869   56.4244 O   0  0  0  0  0
    5.3060   27.0178   57.6250 O   0  0  0  0  0
    2.4292   29.2271   61.6983 N   0  0  0  0  0
    1.3015   29.6007   55.6309 P   0  0  0  0  0
  2  1  1  0  0  0
  2  3  1  0  0  0
  3  4  1  0  0  0
  5  6  1  0  0  0
  5 36  1  0  0  0
  6 35  1  0  0  0
  7 31  1  0  0  0
  8  7  1  0  0  0
  8  9  1  0  0  0
  8  3  1  0  0  0
  9 37  1  0  0  0
 10 37  1  0  0  0
 10 11  1  0  0  0
 10  2  1  0  0  0
 11 12  1  0  0  0
 11 30  1  0  0  0
 12 13  1  0  0  0
 12 29  1  0  0  0
 13 28  1  0  0  0
 13  1  1  0  0  0
 14 33  1  0  0  0
 15 16  1  0  0  0
 17 18  1  0  0  0
 19 14  1  0  0  0
 20 34  1  0  0  0
 21 22  1  0  0  0
 23 24  1  0  0  0
 25 20  1  0  0  0
 26 35  1  0  0  0
 26 36  1  0  0  0
 38 31  1  0  0  0
 38 33  1  0  0  0
 38 34  1  0  0  0
  4  5  2  0  0  0
  6  7  2  0  0  0
  9 27  2  0  0  0
 14 15  2  0  0  0
 16 17  2  0  0  0
 18 19  2  0  0  0
 20 21  2  0  0  0
 22 23  2  0  0  0
 24 25  2  0  0  0
 38 32  2  0  0  0
M  END
> <rmsd>
0.834445655

$$$$
PubChem-70600605


 36 40  0  0  0  0  0  0  0  0999 V2000
    1.3422   27.9767   62.3131 C   0  0  0  0  0
    2.1991   28.4538   63.4841 C   0  0  0  0  0
    1.5196   29.6572   64.1686 C   0  0  0  0  0
    1.3367   30.5430   66.2736 C   0  0  0  0  0
   -0.0049   30.2083   65.6827 C   0  0  0  0  0
    2.3961   27.2975   64.4849 C   0  0  0  0  0
    2.6473   25.0216   64.4679 C   0  0  0  0  0
    1.4542   25.4517   65.2764 C   0  0  0  0  0
    3.7259   29.8779   62.0771 C   0  0  0  0  0
    5.1218   30.2256   61.7330 C   0  0  0  0  0
    6.1082   29.9074   62.6787 C   0  0  0  0  0
    7.4366   30.2887   62.4902 C   0  0  0  0  0
    7.7994   31.0025   61.3504 C   0  0  0  0  0
    6.8376   31.3144   60.3897 C   0  0  0  0  0
    5.4996   30.9238   60.5529 C   0  0  0  0  0
    4.5736   31.2022   59.4377 C   0  0  0  0  0
    2.6988   30.3904   57.9725 C   0  0  0  0  0
    1.8327   31.6337   58.1760 C   0  0  0  0  0
    3.5060   30.5277   56.6651 C   0  0  0  0  0
    4.3205   29.1693   55.0100 C   0  0  0  0  0
    3.3937   30.2235   54.4706 C   0  0  0  0  0
    1.8024   29.1369   57.9298 C   0  0  0  0  0
   -0.1325   28.3658   58.8813 C   0  0  0  0  0
   -0.2230   28.4179   57.3811 C   0  0  0  0  0
    2.3150   30.1457   65.2884 N   0  0  0  0  0
    3.2016   26.2302   63.9041 N   0  0  0  0  0
    4.3496   29.3600   56.4412 N   0  0  0  0  0
    1.1647   28.9025   59.2188 N   0  0  0  0  0
    0.2182   29.3518   64.6027 O   0  0  0  0  0
    1.1693   26.7737   64.9280 O   0  0  0  0  0
    3.4896   28.8466   63.0005 O   0  0  0  0  0
    2.7636   30.5429   61.6058 O   0  0  0  0  0
    4.7078   32.2652   58.7708 O   0  0  0  0  0
    3.6026   30.2548   59.0769 O   0  0  0  0  0
    2.6753   30.7391   55.5513 O   0  0  0  0  0
    0.8196   29.2296   56.9292 O   0  0  0  0  0
  2  1  1  0  0  0
  2  3  1  0  0  0
  2  6  1  0  0  0
  2 31  1  0  0  0
  3 25  1  0  0  0
  3 29  1  0  0  0
  4 25  1  0  0  0
  4  5  1  0  0  0
  5 29  1  0  0  0
  6 26  1  0  0  0
  6 30  1  0  0  0
  7 26  1  0  0  0
  7  8  1  0  0  0
  8 30  1  0  0  0
  9 31  1  0  0  0
  9 10  1  0  0  0
 11 12  1  0  0  0
 13 14  1  0  0  0
 15 16  1  0  0  0
 15 10  1  0  0  0
 16 34  1  0  0  0
 17 34  1  0  0  0
 17 18  1  0  0  0
 17 19  1  0  0  0
 17 22  1  0  0  0
 19 27  1  0  0  0
 19 35  1  0  0  0
 20 27  1  0  0  0
 20 21  1  0  0  0
 21 35  1  0  0  0
 22 28  1  0  0  0
 22 36  1  0  0  0
 23 28  1  0  0  0
 23 24  1  0  0  0
 24 36  1  0  0  0
  9 32  2  0  0  0
 10 11  2  0  0  0
 12 13  2  0  0  0
 14 15  2  0  0  0
 16 33  2  0  0  0
M  END
> <rmsd>
0.72551465

$$$$
PubChem-145827839


 30 32  0  0  0  0  0  0  0  0999 V2000
    0.9578   32.0779   57.6834 C   0  0  0  0  0
    2.1365   31.2747   57.2373 C   0  0  0  0  0
    2.5983   30.0677   58.0061 C   0  0  0  0  0
    2.3622   28.8233   57.2106 C   0  0  0  0  0
    2.4144   29.1985   60.3297 C   0  0  0  0  0
    1.6748   29.1482   61.5139 C   0  0  0  0  0
    2.0964   28.3715   62.6051 C   0  0  0  0  0
    3.3023   27.6406   62.4906 C   0  0  0  0  0
    4.0418   27.6915   61.3054 C   0  0  0  0  0
    3.6032   28.4641   60.2304 C   0  0  0  0  0
    1.2559   28.3656   63.8289 C   0  0  0  0  0
    1.4435   27.3619   64.9212 C   0  0  0  0  0
    0.8999   25.2437   64.0584 C   0  0  0  0  0
   -0.1640   24.1544   63.9645 C   0  0  0  0  0
   -0.8945   24.8103   66.2632 C   0  0  0  0  0
    0.1933   25.8831   66.2340 C   0  0  0  0  0
   -0.5858   22.3638   65.6977 C   0  0  0  0  0
   -0.3063   21.3557   64.7627 C   0  0  0  0  0
   -0.3572   20.0152   65.1520 C   0  0  0  0  0
   -0.9492   20.6424   67.3619 C   0  0  0  0  0
   -0.9086   21.9940   67.0119 C   0  0  0  0  0
    2.7398   31.6149   56.2329 O   0  0  0  0  0
    3.3392   28.1954   56.7284 O   0  0  0  0  0
    1.0697   28.3625   56.9921 O   0  0  0  0  0
    1.9431   29.9824   59.2705 O   0  0  0  0  0
    3.7907   26.8717   63.5396 O   0  0  0  0  0
    0.3212   29.2032   63.9478 O   0  0  0  0  0
    0.3934   26.3567   64.8640 N   0  0  0  0  0
   -0.5500   23.7513   65.3155 N   0  0  0  0  0
   -0.6761   19.6882   66.4324 N   0  0  0  0  0
  1  2  1  0  0  0
  3  2  1  0  0  0
  3  4  1  0  0  0
  3 25  1  0  0  0
  4 24  1  0  0  0
  5 25  1  0  0  0
  6  7  1  0  0  0
  7 11  1  0  0  0
  8  9  1  0  0  0
  8 26  1  0  0  0
 10  5  1  0  0  0
 12 11  1  0  0  0
 12 28  1  0  0  0
 13 28  1  0  0  0
 13 14  1  0  0  0
 14 29  1  0  0  0
 15 29  1  0  0  0
 15 16  1  0  0  0
 16 28  1  0  0  0
 18 19  1  0  0  0
 20 30  1  0  0  0
 21 17  1  0  0  0
 29 17  1  0  0  0
  2 22  2  0  0  0
  4 23  2  0  0  0
  5  6  2  0  0  0
  7  8  2  0  0  0
  9 10  2  0  0  0
 11 27  2  0  0  0
 17 18  2  0  0  0
 19 30  2  0  0  0
 20 21  2  0  0  0
M  END
> <rmsd>
0.701553464

$$$$
PubChem-153325478 CHEMBL4790605


 34 37  0  0  0  0  0  0  0  0999 V2000
    4.7513   28.6199   62.4370 N   0  0  0  0  0
    3.6692   26.6158   63.2574 N   0  0  0  0  0
    4.0999   25.4821   63.7993 N   0  0  0  0  0
    8.3130   26.6050   63.5636 N   0  0  0  0  0
    5.9565   29.2356   62.2386 C   0  0  0  0  0
    7.1616   28.5916   62.6054 C   0  0  0  0  0
    7.1231   27.3054   63.1844 C   0  0  0  0  0
    5.8692   26.7289   63.3623 C   0  0  0  0  0
    4.7362   27.3828   62.9943 C   0  0  0  0  0
    5.4583   25.5125   63.8789 C   0  0  0  0  0
    2.2620   26.9269   63.0315 C   0  0  0  0  0
    1.2472   28.5753   61.8647 C   0  0  0  0  0
    1.4028   29.1232   63.2582 C   0  0  0  0  0
    1.7620   27.9096   64.0721 C   0  0  0  0  0
    1.6406   29.6348   60.8514 C   0  0  0  0  0
    1.5692   30.2535   58.7316 C   0  0  0  0  0
    9.6498   27.1729   63.4395 C   0  0  0  0  0
    9.8943   28.1899   64.5424 C   0  0  0  0  0
   10.6764   26.0858   63.4843 C   0  0  0  0  0
   10.7905   25.2394   64.5984 C   0  0  0  0  0
   11.7487   24.2207   64.6110 C   0  0  0  0  0
   12.5928   24.0419   63.5108 C   0  0  0  0  0
   12.4795   24.8809   62.3982 C   0  0  0  0  0
   11.5218   25.9004   62.3849 C   0  0  0  0  0
    2.0809   27.4521   61.7356 O   0  0  0  0  0
    0.6376   27.3653   64.6986 O   0  0  0  0  0
    0.2122   29.7154   63.6884 O   0  0  0  0  0
    1.4887   29.1329   59.5587 O   0  0  0  0  0
    3.6679   29.3033   57.2820 O   0  0  0  0  0
    2.1865   31.0853   56.0644 O   0  0  0  0  0
    1.3031   28.5005   56.4853 O   0  0  0  0  0
    2.2364   29.7625   57.1179 P   0  0  0  0  0
   13.2927   24.7010   61.3294 F   0  0  0  0  0
    6.0090   30.8285   61.5180 Cl  0  0  0  0  0
  2  3  1  0  0  0
  5  6  1  0  0  0
  5 34  1  0  0  0
  7  8  1  0  0  0
  7  4  1  0  0  0
  9  2  1  0  0  0
  9  1  1  0  0  0
 10  8  1  0  0  0
 11  2  1  0  0  0
 11 25  1  0  0  0
 12 25  1  0  0  0
 12 13  1  0  0  0
 12 15  1  0  0  0
 13 14  1  0  0  0
 13 27  1  0  0  0
 14 26  1  0  0  0
 14 11  1  0  0  0
 15 28  1  0  0  0
 16 28  1  0  0  0
 16 32  1  0  0  0
 17  4  1  0  0  0
 17 18  1  0  0  0
 17 19  1  0  0  0
 20 21  1  0  0  0
 22 23  1  0  0  0
 23 33  1  0  0  0
 24 19  1  0  0  0
 32 30  1  0  0  0
 32 31  1  0  0  0
  5  1  2  0  0  0
  6  7  2  0  0  0
  8  9  2  0  0  0
 10  3  2  0  0  0
 19 20  2  0  0  0
 21 22  2  0  0  0
 23 24  2  0  0  0
 32 29  2  0  0  0
M  END
> <rmsd>
0.7711007

$$$$
PubChem-73387893


 26 28  0  0  0  0  0  0  0  0999 V2000
    4.4164   27.2810   59.8575 C   0  0  0  0  0
    3.1132   26.6244   60.4061 C   0  0  0  0  0
    2.5189   27.3135   61.6700 C   0  0  0  0  0
    4.2532   29.0177   61.5477 C   0  0  0  0  0
    4.4791   28.8142   60.0546 C   0  0  0  0  0
    2.3466   29.4359   60.5329 C   0  0  0  0  0
    2.9486   26.6437   62.9427 C   0  0  0  0  0
    0.3258   27.5470   64.3893 C   0  0  0  0  0
   -0.0223   28.6711   63.4286 C   0  0  0  0  0
   -1.3313   28.3970   62.7299 C   0  0  0  0  0
   -1.9149   29.7637   62.4890 C   0  0  0  0  0
   -1.1524   30.6999   63.4077 C   0  0  0  0  0
   -3.3359   29.7636   62.8422 C   0  0  0  0  0
    2.8273   28.7465   61.6743 N   0  0  0  0  0
    3.2880   29.4274   59.4778 N   0  0  0  0  0
    1.9724   26.1985   63.8862 N   0  0  0  0  0
   -0.1738   29.9201   64.1562 N   0  0  0  0  0
   -4.4593   29.7637   63.1206 N   0  0  0  0  0
    1.2046   29.9610   60.4570 O   0  0  0  0  0
    3.3174   30.3527   58.4883 O   0  0  0  0  0
    3.8191   28.5324   56.6850 O   0  0  0  0  0
    2.5984   30.5418   55.9983 O   0  0  0  0  0
    1.3291   28.7727   57.4081 O   0  0  0  0  0
    4.1717   26.4735   63.1916 O   0  0  0  0  0
    0.6458   26.3865   63.6772 O   0  0  0  0  0
    2.7911   29.5450   57.1053 S   0  0  0  0  0
  1  2  1  0  0  0
  2  3  1  0  0  0
  3 14  1  0  0  0
  3  7  1  0  0  0
  4 14  1  0  0  0
  5  4  1  0  0  0
  5 15  1  0  0  0
  5  1  1  0  0  0
  6 14  1  0  0  0
  7 16  1  0  0  0
  8 25  1  0  0  0
  9  8  1  0  0  0
  9 10  1  0  0  0
  9 17  1  0  0  0
 10 11  1  0  0  0
 11 12  1  0  0  0
 11 13  1  0  0  0
 12 17  1  0  0  0
 15  6  1  0  0  0
 15 20  1  0  0  0
 16 25  1  0  0  0
 26 20  1  0  0  0
 26 23  1  0  0  0
  6 19  2  0  0  0
  7 24  2  0  0  0
 26 21  2  0  0  0
 26 22  2  0  0  0
 13 18  3  0  0  0
M  END
> <rmsd>
0.733948648

$$$$
PubChem-155627445


 26 27  0  0  0  0  0  0  0  0999 V2000
    1.2165   28.5535   58.8649 B   0  0  0  0  0
    0.8577   29.9592   59.0671 O   0  0  0  0  0
    0.0736   31.5301   57.5679 O   0  0  0  0  0
    1.0530   28.1157   57.4657 O   0  0  0  0  0
    3.5190   28.9998   56.2679 O   0  0  0  0  0
    3.2412   31.2094   55.7304 O   0  0  0  0  0
   -0.9685   27.7698   55.5469 O   0  0  0  0  0
   -1.9087   28.8947   53.7568 O   0  0  0  0  0
    3.5936   28.5568   64.7833 O   0  0  0  0  0
    3.5928   26.3168   64.3212 O   0  0  0  0  0
    0.4538   30.3554   57.8190 C   0  0  0  0  0
    0.4854   29.2431   56.8164 C   0  0  0  0  0
    1.3135   29.6318   55.5817 C   0  0  0  0  0
    2.7495   29.9212   55.8893 C   0  0  0  0  0
   -0.9428   28.9192   56.3848 C   0  0  0  0  0
   -1.4656   27.8207   54.2448 C   0  0  0  0  0
    1.1026   27.5163   60.0641 C   0  0  0  0  0
    2.3219   27.5976   60.9720 C   0  0  0  0  0
    2.2592   28.8131   61.8900 C   0  0  0  0  0
    1.1746   28.6517   62.9553 C   0  0  0  0  0
    0.9121   29.9515   63.6714 C   0  0  0  0  0
    0.7206   28.2219   65.2582 C   0  0  0  0  0
    1.4757   27.6603   64.0685 C   0  0  0  0  0
    2.9433   27.5429   64.4122 C   0  0  0  0  0
    0.4073   29.6273   65.0010 N   0  0  0  0  0
    0.9270   26.3591   63.7225 N   0  0  0  0  0
  1  2  1  0  0  0
  1  4  1  0  0  0
 11  2  1  0  0  0
 12 11  1  0  0  0
 12  4  1  0  0  0
 12 13  1  0  0  0
 12 15  1  0  0  0
 13 14  1  0  0  0
 14  6  1  0  0  0
 15  7  1  0  0  0
 16  7  1  0  0  0
 17  1  1  0  0  0
 17 18  1  0  0  0
 18 19  1  0  0  0
 19 20  1  0  0  0
 20 21  1  0  0  0
 21 25  1  0  0  0
 22 25  1  0  0  0
 22 23  1  0  0  0
 23 24  1  0  0  0
 23 26  1  0  0  0
 23 20  1  0  0  0
 24 10  1  0  0  0
 11  3  2  0  0  0
 14  5  2  0  0  0
 16  8  2  0  0  0
 24  9  2  0  0  0
M  END
> <rmsd>
0.645103395

$$$$
PubChem-21722998


 31 33  0  0  0  0  0  0  0  0999 V2000
    4.6049   25.6190   62.7694 C   0  0  0  0  0
    2.8609   27.3230   63.2214 C   0  0  0  0  0
    3.4487   28.2120   62.3073 C   0  0  0  0  0
    2.8921   29.4689   62.0723 C   0  0  0  0  0
    1.7428   29.8542   62.7579 C   0  0  0  0  0
    1.1344   28.9857   63.6753 C   0  0  0  0  0
    1.6867   27.7150   63.9152 C   0  0  0  0  0
    1.4492   25.5892   65.2233 C   0  0  0  0  0
   -0.6546   30.6244   64.1750 C   0  0  0  0  0
    3.5247   30.4067   61.0999 C   0  0  0  0  0
    3.4090   29.8946   59.6638 C   0  0  0  0  0
    4.5645   30.5044   58.8141 C   0  0  0  0  0
    4.0024   31.2230   57.5580 C   0  0  0  0  0
    2.9856   32.2402   58.0747 C   0  0  0  0  0
    1.9798   31.7281   58.8109 C   0  0  0  0  0
    2.0332   30.2114   59.0019 C   0  0  0  0  0
    2.1367   29.5920   57.6115 C   0  0  0  0  0
    3.2306   30.1616   56.6938 C   0  0  0  0  0
    2.0568   29.8874   54.7131 C   0  0  0  0  0
    5.1071   29.6178   55.4643 C   0  0  0  0  0
   -0.2651   30.0729   59.2262 C   0  0  0  0  0
    3.0553   33.7140   57.8033 C   0  0  0  0  0
    4.2250   34.0840   56.9509 C   0  0  0  0  0
    4.4276   35.3535   56.6154 C   0  0  0  0  0
    3.4330   26.0642   63.4396 O   0  0  0  0  0
    1.0296   26.8926   64.8462 O   0  0  0  0  0
   -0.0243   29.3646   64.3628 O   0  0  0  0  0
    1.4385   28.6479   57.2710 O   0  0  0  0  0
    2.6532   30.8249   55.5746 O   0  0  0  0  0
    4.1002   29.1067   56.3023 O   0  0  0  0  0
    0.9690   29.6863   59.7785 O   0  0  0  0  0
  1 25  1  0  0  0
  2 25  1  0  0  0
  3  4  1  0  0  0
  5  6  1  0  0  0
  6 27  1  0  0  0
  7 26  1  0  0  0
  7  2  1  0  0  0
  8 26  1  0  0  0
  9 27  1  0  0  0
 10  4  1  0  0  0
 11 10  1  0  0  0
 11 12  1  0  0  0
 13 12  1  0  0  0
 13 14  1  0  0  0
 16 15  1  0  0  0
 16 17  1  0  0  0
 16 31  1  0  0  0
 16 11  1  0  0  0
 18 17  1  0  0  0
 18 29  1  0  0  0
 18 30  1  0  0  0
 18 13  1  0  0  0
 19 29  1  0  0  0
 20 30  1  0  0  0
 21 31  1  0  0  0
 22 14  1  0  0  0
 22 23  1  0  0  0
  2  3  2  0  0  0
  4  5  2  0  0  0
  6  7  2  0  0  0
 14 15  2  0  0  0
 17 28  2  0  0  0
 23 24  2  0  0  0
M  END
> <rmsd>
0.5515908

$$$$
PubChem-70917665


 26 29  0  0  0  0  0  0  0  0999 V2000
    4.4833   31.2775   56.5587 C   0  0  0  0  0
    3.0748   31.8690   56.6198 C   0  0  0  0  0
    4.5563   30.1154   57.5504 C   0  0  0  0  0
    1.8949   28.9359   59.5036 C   0  0  0  0  0
    0.8286   28.8040   60.5781 C   0  0  0  0  0
    0.8928   29.9806   61.5348 C   0  0  0  0  0
    1.3353   29.3584   62.8286 C   0  0  0  0  0
    0.9753   27.9071   62.6504 C   0  0  0  0  0
    3.2394   26.9174   63.2012 C   0  0  0  0  0
    2.7537   25.6466   64.8315 C   0  0  0  0  0
    1.6204   26.2507   64.4158 C   0  0  0  0  0
    0.3653   25.1606   66.0505 C   0  0  0  0  0
    2.7134   24.7623   65.9000 C   0  0  0  0  0
    2.1111   30.9743   56.1220 O   0  0  0  0  0
    1.2248   28.5503   56.5808 O   0  0  0  0  0
    3.7442   29.0374   57.1566 O   0  0  0  0  0
    1.6335   30.0496   58.7011 O   0  0  0  0  0
    1.0238   27.5977   61.2807 O   0  0  0  0  0
    0.6656   29.8958   63.9312 O   0  0  0  0  0
   -0.3823   30.5401   61.6487 O   0  0  0  0  0
    2.1422   29.6137   57.1417 P   0  0  0  0  0
    1.9005   27.0577   63.3891 N   0  0  0  0  0
    3.8016   26.0449   64.0855 N   0  0  0  0  0
    0.4164   26.0335   64.9985 N   0  0  0  0  0
    1.5039   24.5345   66.4933 N   0  0  0  0  0
    3.8875   24.1100   66.3697 N   0  0  0  0  0
  1  2  1  0  0  0
  2 14  1  0  0  0
  3 16  1  0  0  0
  3  1  1  0  0  0
  4 17  1  0  0  0
  5  4  1  0  0  0
  5  6  1  0  0  0
  5 18  1  0  0  0
  6  7  1  0  0  0
  6 20  1  0  0  0
  7  8  1  0  0  0
  7 19  1  0  0  0
  8 18  1  0  0  0
  8 22  1  0  0  0
 10 23  1  0  0  0
 11 24  1  0  0  0
 11 22  1  0  0  0
 12 25  1  0  0  0
 13 26  1  0  0  0
 13 10  1  0  0  0
 21 14  1  0  0  0
 21 16  1  0  0  0
 21 17  1  0  0  0
 22  9  1  0  0  0
  9 23  2  0  0  0
 10 11  2  0  0  0
 12 24  2  0  0  0
 13 25  2  0  0  0
 21 15  2  0  0  0
M  END
> <rmsd>
0.792025506

$$$$
PubChem-20516567


 36 39  0  0  0  0  0  0  0  0999 V2000
    3.8279   33.0527   59.4542 C   0  0  0  0  0
    3.9596   31.5751   59.5110 C   0  0  0  0  0
    3.9725   30.9239   60.7442 C   0  0  0  0  0
    4.0993   29.5350   60.8056 C   0  0  0  0  0
    4.2239   28.7775   59.6131 C   0  0  0  0  0
    4.1651   29.4388   58.3608 C   0  0  0  0  0
    4.0502   30.8380   58.3293 C   0  0  0  0  0
    4.1318   29.2633   55.8624 C   0  0  0  0  0
    2.7052   29.6123   55.4320 C   0  0  0  0  0
    1.6644   28.5496   55.7687 C   0  0  0  0  0
    1.2023   27.5787   58.0050 C   0  0  0  0  0
    1.4007   26.2717   57.5253 C   0  0  0  0  0
    1.3694   25.1775   58.3888 C   0  0  0  0  0
    1.1481   25.3735   59.7512 C   0  0  0  0  0
    0.9547   26.6633   60.2576 C   0  0  0  0  0
    0.9655   27.7821   59.3865 C   0  0  0  0  0
    0.7713   29.0544   59.9576 C   0  0  0  0  0
    0.5929   29.1700   61.3333 C   0  0  0  0  0
    0.6027   28.0214   62.1247 C   0  0  0  0  0
    0.4304   28.1293   63.5793 C   0  0  0  0  0
    1.5598   23.8092   57.8536 C   0  0  0  0  0
    4.3819   27.3824   59.7425 C   0  0  0  0  0
    4.3734   26.8053   61.0100 C   0  0  0  0  0
    4.2126   27.6191   62.1359 C   0  0  0  0  0
    4.1678   27.0279   63.4802 C   0  0  0  0  0
    4.2024   28.6988   57.1695 O   0  0  0  0  0
    1.2358   28.6660   57.1230 O   0  0  0  0  0
    0.7644   30.0983   59.2556 O   0  0  0  0  0
    0.7754   26.8263   61.5641 O   0  0  0  0  0
    0.4227   27.0899   64.2900 O   0  0  0  0  0
    0.2816   29.3723   64.1834 O   0  0  0  0  0
    2.3226   30.8657   55.9107 O   0  0  0  0  0
    4.5319   26.6388   58.7372 O   0  0  0  0  0
    4.0919   28.9354   61.9931 O   0  0  0  0  0
    4.3682   25.7959   63.6439 O   0  0  0  0  0
    3.8921   27.8265   64.5838 O   0  0  0  0  0
  1  2  1  0  0  0
  3  4  1  0  0  0
  4 34  1  0  0  0
  5  6  1  0  0  0
  5 22  1  0  0  0
  6 26  1  0  0  0
  7  2  1  0  0  0
  8 26  1  0  0  0
  8  9  1  0  0  0
  9 10  1  0  0  0
  9 32  1  0  0  0
 10 27  1  0  0  0
 11 27  1  0  0  0
 12 13  1  0  0  0
 14 15  1  0  0  0
 15 29  1  0  0  0
 16 17  1  0  0  0
 16 11  1  0  0  0
 17 18  1  0  0  0
 19 29  1  0  0  0
 19 20  1  0  0  0
 20 31  1  0  0  0
 21 13  1  0  0  0
 22 23  1  0  0  0
 24 34  1  0  0  0
 24 25  1  0  0  0
 25 36  1  0  0  0
  2  3  2  0  0  0
  4  5  2  0  0  0
  6  7  2  0  0  0
 11 12  2  0  0  0
 13 14  2  0  0  0
 15 16  2  0  0  0
 17 28  2  0  0  0
 18 19  2  0  0  0
 20 30  2  0  0  0
 22 33  2  0  0  0
 23 24  2  0  0  0
 25 35  2  0  0  0
M  END
> <rmsd>
0.534835219

$$$$
PubChem-20516567


 36 39  0  0  0  0  0  0  0  0999 V2000
    4.6852   32.3401   59.5893 C   0  0  0  0  0
    4.4928   30.8726   59.4754 C   0  0  0  0  0
    4.4444   30.0851   60.6255 C   0  0  0  0  0
    4.2671   28.7039   60.5260 C   0  0  0  0  0
    4.1429   28.0914   59.2529 C   0  0  0  0  0
    4.1475   28.9006   58.0892 C   0  0  0  0  0
    4.3408   30.2856   58.2184 C   0  0  0  0  0
    3.9106   29.0479   55.6001 C   0  0  0  0  0
    2.5701   29.7397   55.3421 C   0  0  0  0  0
    1.3462   28.8861   55.6572 C   0  0  0  0  0
    0.8318   27.7638   57.8097 C   0  0  0  0  0
    0.7062   26.5143   57.1767 C   0  0  0  0  0
    0.4929   25.3525   57.9175 C   0  0  0  0  0
    0.4111   25.4197   59.3075 C   0  0  0  0  0
    0.5396   26.6482   59.9646 C   0  0  0  0  0
    0.7378   27.8392   59.2209 C   0  0  0  0  0
    0.8660   29.0428   59.9402 C   0  0  0  0  0
    0.8090   29.0215   61.3309 C   0  0  0  0  0
    0.6191   27.8072   61.9906 C   0  0  0  0  0
    0.5717   27.7673   63.4580 C   0  0  0  0  0
    0.3424   24.0520   57.2237 C   0  0  0  0  0
    3.9990   26.6892   59.2173 C   0  0  0  0  0
    3.9483   25.9739   60.4112 C   0  0  0  0  0
    4.0452   26.6569   61.6277 C   0  0  0  0  0
    3.9611   25.9259   62.8994 C   0  0  0  0  0
    3.9423   28.3233   56.8273 O   0  0  0  0  0
    1.0445   28.9208   57.0497 O   0  0  0  0  0
    1.0417   30.1438   59.3576 O   0  0  0  0  0
    0.4876   26.6816   61.2920 O   0  0  0  0  0
    0.3832   26.6727   64.0512 O   0  0  0  0  0
    0.7398   28.9289   64.2028 O   0  0  0  0  0
    2.5046   30.9761   55.9852 O   0  0  0  0  0
    3.9150   26.0615   58.1287 O   0  0  0  0  0
    4.2071   27.9765   61.6382 O   0  0  0  0  0
    3.8966   24.6688   62.9113 O   0  0  0  0  0
    3.9413   26.6212   64.1027 O   0  0  0  0  0
  1  2  1  0  0  0
  3  4  1  0  0  0
  4 34  1  0  0  0
  5  6  1  0  0  0
  5 22  1  0  0  0
  6 26  1  0  0  0
  7  2  1  0  0  0
  8 26  1  0  0  0
  8  9  1  0  0  0
  9 10  1  0  0  0
  9 32  1  0  0  0
 10 27  1  0  0  0
 11 27  1  0  0  0
 12 13  1  0  0  0
 14 15  1  0  0  0
 15 29  1  0  0  0
 16 17  1  0  0  0
 16 11  1  0  0  0
 17 18  1  0  0  0
 19 29  1  0  0  0
 19 20  1  0  0  0
 20 31  1  0  0  0
 21 13  1  0  0  0
 22 23  1  0  0  0
 24 34  1  0  0  0
 24 25  1  0  0  0
 25 36  1  0  0  0
  2  3  2  0  0  0
  4  5  2  0  0  0
  6  7  2  0  0  0
 11 12  2  0  0  0
 13 14  2  0  0  0
 15 16  2  0  0  0
 17 28  2  0  0  0
 18 19  2  0  0  0
 20 30  2  0  0  0
 22 33  2  0  0  0
 23 24  2  0  0  0
 25 35  2  0  0  0
M  END
> <rmsd>
0.523052692

$$$$
PubChem-19010988


 29 30  0  0  0  0  0  0  0  0999 V2000
    0.5673   32.0637   59.7492 C   0  0  0  0  0
    0.9492   31.3766   58.4435 C   0  0  0  0  0
    2.1717   30.4483   58.5806 C   0  0  0  0  0
    3.3843   31.2071   59.1498 C   0  0  0  0  0
    3.7474   32.4620   58.3664 C   0  0  0  0  0
    1.8816   29.2750   59.4876 C   0  0  0  0  0
    2.7553   27.3634   60.7859 C   0  0  0  0  0
    3.2043   27.8414   62.1618 C   0  0  0  0  0
    2.2724   28.9488   62.6802 C   0  0  0  0  0
    1.0135   28.5061   63.3900 C   0  0  0  0  0
    1.2285   27.3066   64.3346 C   0  0  0  0  0
    1.9591   26.1597   63.6508 C   0  0  0  0  0
    3.2436   26.6858   63.1091 C   0  0  0  0  0
    0.0721   27.0416   66.2017 C   0  0  0  0  0
   -1.0246   27.1773   68.1086 C   0  0  0  0  0
    1.8547   30.3643   64.3155 C   0  0  0  0  0
    2.2500   30.3781   65.7799 C   0  0  0  0  0
    1.6066   31.7944   63.8700 C   0  0  0  0  0
    0.7156   29.0708   59.9286 O   0  0  0  0  0
    2.9182   28.3978   59.8235 O   0  0  0  0  0
    4.3090   26.2150   63.4709 O   0  0  0  0  0
   -0.0008   26.8571   64.8199 O   0  0  0  0  0
   -1.1891   26.8512   66.7635 O   0  0  0  0  0
    0.6637   29.6143   64.1623 O   0  0  0  0  0
    2.9100   29.8139   63.5581 O   0  0  0  0  0
    3.8509   28.9890   56.9757 O   0  0  0  0  0
    1.3104   28.7830   56.4010 O   0  0  0  0  0
    2.7496   31.0562   55.8165 O   0  0  0  0  0
    2.5681   29.7876   56.9209 P   0  0  0  0  0
  1  2  1  0  0  0
  2  3  1  0  0  0
  3  4  1  0  0  0
  3  6  1  0  0  0
  3 29  1  0  0  0
  4  5  1  0  0  0
  6 20  1  0  0  0
  7 20  1  0  0  0
  7  8  1  0  0  0
  8  9  1  0  0  0
  8 13  1  0  0  0
  9 10  1  0  0  0
  9 25  1  0  0  0
 10 11  1  0  0  0
 10 24  1  0  0  0
 11 12  1  0  0  0
 11 22  1  0  0  0
 12 13  1  0  0  0
 14 22  1  0  0  0
 14 23  1  0  0  0
 15 23  1  0  0  0
 16 24  1  0  0  0
 16 25  1  0  0  0
 16 17  1  0  0  0
 16 18  1  0  0  0
 29 27  1  0  0  0
 29 28  1  0  0  0
  6 19  2  0  0  0
 13 21  2  0  0  0
 29 26  2  0  0  0
M  END
> <rmsd>
0.669003725

$$$$
