@<TRIPOS>MOLECULE
LIG
   54    56     1     0     0
SMALL
bcc


@<TRIPOS>ATOM
      1 O            3.4450    -9.8120   -32.4220 os      1885 LIG      -0.583200
      2 C            3.4110   -11.2230   -32.6320 c3      1885 LIG       0.158400
      3 H            2.3840   -11.5880   -32.5660 h1      1885 LIG       0.079200
      4 H1           4.0100   -11.7300   -31.8720 h1      1885 LIG       0.079200
      5 C1           3.9750   -11.5000   -34.0100 c3      1885 LIG       0.054100
      6 O1           2.9780   -11.2540   -35.0000 os      1885 LIG      -0.402600
      7 C2           3.4170   -10.2320   -35.8980 c3      1885 LIG       0.277500
      8 H2           3.8180   -10.6800   -36.8190 h2      1885 LIG       0.110700
      9 C3           4.5280    -9.4770   -35.1840 c3      1885 LIG       0.077100
     10 C4           5.1190   -10.5420   -34.2840 c3      1885 LIG       0.368100
     11 H3           4.0790    -8.6930   -34.5610 h1      1885 LIG       0.097700
     12 H4           5.4600   -10.0900   -33.3410 h1      1885 LIG       0.252700
     13 H5           4.3340   -12.5370   -34.0660 h1      1885 LIG       0.119700
     14 N            2.3170    -9.3280   -36.2090 n       1885 LIG      -0.403000
     15 C5           1.4850    -8.9260   -35.2420 cc      1885 LIG       0.054600
     16 H6           1.6210    -9.2750   -34.2270 h4      1885 LIG       0.184000
     17 C6           0.4420    -8.0640   -35.5500 cd      1885 LIG      -0.314200
     18 C7           0.2810    -7.6270   -36.8540 c       1885 LIG       0.713700
     19 H7          -0.2400    -7.7350   -34.7750 ha      1885 LIG       0.185000
     20 N1           1.1250    -8.0380   -37.8040 n       1885 LIG      -0.579500
     21 O2          -0.6610    -6.8530   -37.1370 o       1885 LIG      -0.593500
     22 H8           0.9940    -7.7050   -38.7810 hn      1885 LIG       0.356500
     23 C8           2.1380    -8.8710   -37.5230 c       1885 LIG       0.815500
     24 O3           2.9190    -9.2510   -38.4240 o       1885 LIG      -0.675500
     25 O4           5.4720    -8.9010   -36.0940 oh      1885 LIG      -0.567800
     26 H9           5.6200    -9.5110   -36.8320 ho      1885 LIG       0.445000
     27 O5           6.1770   -11.2290   -34.9370 oh      1885 LIG      -0.528800
     28 H10          5.9120   -12.1430   -35.1060 ho      1885 LIG       0.516000
     29 P            4.4060    -9.1730   -31.3090 p5      1885 LIG       1.680800
     30 O6           3.6440    -8.0870   -30.5910 o       1885 LIG      -0.647000
     31 O7           5.7330    -8.8420   -31.9560 o       1885 LIG      -0.647000
     32 O8           4.5510   -10.4500   -30.3390 os      1885 LIG      -0.805800
     33 P1           3.7790   -10.5960   -28.9370 p5      1885 LIG       1.698800
     34 O9           2.3060   -10.7810   -29.1990 o       1885 LIG      -0.623500
     35 O10          4.2410    -9.4870   -28.0300 o       1885 LIG      -0.623500
     36 O11          4.3420   -12.0180   -28.4480 os      1885 LIG      -0.629200
     37 C9           5.2230   -12.8040   -29.2540 c3      1885 LIG       0.391900
     38 C10          4.4240   -13.9350   -29.8780 c3      1885 LIG       0.081100
     39 C11          3.8490   -14.7460   -28.7290 c3      1885 LIG       0.062100
     40 H11          5.1010   -14.5720   -30.4640 h1      1885 LIG       0.061700
     41 C12          4.9790   -15.3160   -27.8890 c3      1885 LIG       0.088100
     42 H12          3.2520   -14.0750   -28.0960 h1      1885 LIG       0.119700
     43 H13          5.5970   -15.9670   -28.5230 h1      1885 LIG       0.042700
     44 C13          5.8380   -14.1710   -27.3800 c3      1885 LIG       0.137400
     45 H14          6.7010   -14.5700   -26.8430 h1      1885 LIG       0.081200
     46 H15          5.2590   -13.5570   -26.6860 h1      1885 LIG       0.081200
     47 O12          6.2790   -13.3720   -28.4750 os      1885 LIG      -0.412600
     48 H16          5.6450   -12.1840   -30.0580 h2      1885 LIG       0.098700
     49 O13          3.3820   -13.4180   -30.7160 oh      1885 LIG      -0.608800
     50 H17          3.2800   -12.4700   -30.5550 ho      1885 LIG       0.435000
     51 O14          3.0420   -15.8260   -29.1710 oh      1885 LIG      -0.595800
     52 H18          3.2090   -15.9880   -30.1090 ho      1885 LIG       0.405000
     53 O15          4.4390   -16.0670   -26.7950 oh      1885 LIG      -0.585800
     54 H19          3.6330   -16.5180   -27.0800 ho      1885 LIG       0.419000
@<TRIPOS>BOND
     1     1     2 1   
     2     1    29 1   
     3     2     3 1   
     4     2     4 1   
     5     2     5 1   
     6     5     6 1   
     7     5    10 1   
     8     5    13 1   
     9     6     7 1   
    10     7     8 1   
    11     7     9 1   
    12     7    14 1   
    13     9    10 1   
    14     9    11 1   
    15     9    25 1   
    16    10    12 1   
    17    10    27 1   
    18    14    15 1   
    19    14    23 1   
    20    15    16 1   
    21    15    17 2   
    22    17    18 1   
    23    17    19 1   
    24    18    20 1   
    25    18    21 2   
    26    20    22 1   
    27    20    23 1   
    28    23    24 2   
    29    25    26 1   
    30    27    28 1   
    31    29    30 1   
    32    29    31 1   
    33    29    32 1   
    34    32    33 1   
    35    33    34 1   
    36    33    35 1   
    37    33    36 1   
    38    36    37 1   
    39    37    38 1   
    40    37    47 1   
    41    37    48 1   
    42    38    39 1   
    43    38    40 1   
    44    38    49 1   
    45    39    41 1   
    46    39    42 1   
    47    39    51 1   
    48    41    43 1   
    49    41    44 1   
    50    41    53 1   
    51    44    45 1   
    52    44    46 1   
    53    44    47 1   
    54    49    50 1   
    55    51    52 1   
    56    53    54 1   
@<TRIPOS>SUBSTRUCTURE
     1 LIG         1 TEMP              0 ****  ****    0 ROOT
