@<TRIPOS>MOLECULE
04_data/campaigns/DIOS_pharmit_pH63/reference/Diosmine.pdb
 75 79 0 0 0
SMALL
GASTEIGER

@<TRIPOS>ATOM
      1  C7         2.4310   24.6580   65.3300 C.3     1  UNL1        0.1144
      2  O5         2.6990   23.2510   65.4100 O.3     1  UNL1       -0.3313
      3  C8         3.6820   22.9000   66.4010 C.3     1  UNL1        0.2310
      4  C25        5.0420   23.5310   66.0320 C.3     1  UNL1        0.1454
      5  C26        4.8760   25.0360   65.7830 C.3     1  UNL1        0.1152
      6  C27        3.7080   25.3570   64.8470 C.3     1  UNL1        0.1120
      7  H13        2.1420   25.0420   66.2870 H       1  UNL1        0.0647
      8  H14        3.3600   23.2790   67.3490 H       1  UNL1        0.1084
      9  H26        5.3680   23.0160   65.1530 H       1  UNL1        0.0683
     10  H28        4.6770   25.4650   66.7430 H       1  UNL1        0.0648
     11  H30        3.9160   24.9950   63.8630 H       1  UNL1        0.0647
     12  O6         3.8160   21.4570   66.5090 O.3     1  UNL1       -0.4571
     13  C9         3.1850   20.8970   67.6030 C.ar    1  UNL1        0.1670
     14  C10        3.9290   20.6370   68.7730 C.ar    1  UNL1        0.1843
     15  O7         5.2240   21.1120   68.8910 O.2     1  UNL1       -0.4508
     16  C21        3.3290   19.8990   69.8020 C.ar    1  UNL1        0.1089
     17  C11        5.8910   20.9460   70.1130 C.ar    1  UNL1        0.1395
     18  C19        5.4310   20.1950   71.1210 C.ar    1  UNL1        0.0288
     19  C20        4.1150   19.5730   70.9970 C.ar    1  UNL1        0.1967
     20  H22        5.9970   20.0570   71.9720 H       1  UNL1        0.0693
     21  O10        3.6730   18.8420   71.8750 O.2     1  UNL1       -0.2869
     22  C22        1.9990   19.4740   69.7080 C.ar    1  UNL1        0.1314
     23  C23        1.2370   19.8170   68.6050 C.ar    1  UNL1       -0.0158
     24  C24        1.8280   20.5360   67.5700 C.ar    1  UNL1       -0.0127
     25  H24        0.2420   19.5430   68.5510 H       1  UNL1        0.0655
     26  H25        1.2550   20.8120   66.7590 H       1  UNL1        0.0656
     27  C12        7.1840   21.6700   70.2410 C.ar    1  UNL1        0.0211
     28  C13        7.6500   22.0600   71.5040 C.ar    1  UNL1       -0.0474
     29  C14        8.9070   22.6640   71.6700 C.ar    1  UNL1       -0.0156
     30  H15        7.0550   21.8990   72.3330 H       1  UNL1        0.0626
     31  C15        9.7340   22.8790   70.5700 C.ar    1  UNL1        0.1613
     32  H16        9.2190   22.9500   72.6110 H       1  UNL1        0.0655
     33  C17        9.2620   22.5230   69.3050 C.ar    1  UNL1        0.1591
     34  C18        8.0080   21.9370   69.1310 C.ar    1  UNL1       -0.0059
     35  H21        7.6810   21.6970   68.1810 H       1  UNL1        0.0662
     36  O8        10.9980   23.4100   70.6010 O.3     1  UNL1       -0.4915
     37  C16       11.3890   24.0270   71.8230 C.3     1  UNL1        0.0790
     38  H17       12.2500   23.5270   72.2160 H       1  UNL1        0.0660
     39  H18       10.5870   23.9640   72.5270 H       1  UNL1        0.0660
     40  H19       11.6260   25.0560   71.6440 H       1  UNL1        0.0660
     41  O9        10.0470   22.7110   68.1980 O.3     1  UNL1       -0.5033
     42  H20        9.8590   23.4120   67.6040 H       1  UNL1        0.2923
     43  O11        1.3710   18.7310   70.6670 O.3     1  UNL1       -0.5059
     44  H23        0.4570   18.8590   70.8340 H       1  UNL1        0.2922
     45  O12        6.0490   23.3670   67.0500 O.3     1  UNL1       -0.3829
     46  H27        5.7220   23.7270   67.8900 H       1  UNL1        0.2102
     47  C6         1.2730   24.9110   64.3350 C.3     1  UNL1        0.0796
     48  H11        0.8870   23.9680   64.0090 H       1  UNL1        0.0587
     49  H12        0.5260   25.4850   64.8420 H       1  UNL1        0.0587
     50  O4         1.6970   25.6650   63.1760 O.3     1  UNL1       -0.3461
     51  C5         0.8420   26.8010   62.9690 C.3     1  UNL1        0.1879
     52  O         -0.2540   26.5010   62.0890 O.3     1  UNL1       -0.3431
     53  C          0.1770   26.1320   60.7720 C.3     1  UNL1        0.0873
     54  C2         0.8870   27.3030   60.0810 C.3     1  UNL1        0.1095
     55  H          0.8890   25.3350   60.8190 H       1  UNL1        0.0621
     56  C3         2.0520   27.7880   60.9650 C.3     1  UNL1        0.1140
     57  H4         0.2050   28.1170   59.9490 H       1  UNL1        0.0646
     58  C4         1.5990   28.0310   62.4120 C.3     1  UNL1        0.1341
     59  H6         2.8000   27.0230   60.9860 H       1  UNL1        0.0648
     60  H8         2.4480   28.1860   63.0430 H       1  UNL1        0.0671
     61  H10        0.4640   27.0420   63.9410 H       1  UNL1        0.0937
     62  C1        -1.0490   25.6700   59.9930 C.3     1  UNL1       -0.0361
     63  H1        -0.8770   25.8060   58.9460 H       1  UNL1        0.0255
     64  H2        -1.9000   26.2460   60.2920 H       1  UNL1        0.0255
     65  H3        -1.2300   24.6350   60.1940 H       1  UNL1        0.0255
     66  O1         1.3410   26.9030   58.7840 O.3     1  UNL1       -0.3866
     67  H5         1.6340   25.9790   58.8150 H       1  UNL1        0.2100
     68  O2         2.6010   28.9930   60.4100 O.3     1  UNL1       -0.3864
     69  H7         1.9510   29.7080   60.4830 H       1  UNL1        0.2100
     70  O3         0.7510   29.2050   62.4150 O.3     1  UNL1       -0.3841
     71  H9         0.2540   29.2470   61.5830 H       1  UNL1        0.2101
     72  O13        6.0690   25.6040   65.2160 O.3     1  UNL1       -0.3864
     73  H29        6.4050   25.0190   64.5180 H       1  UNL1        0.2100
     74  O14        3.5370   26.7740   64.8020 O.3     1  UNL1       -0.3865
     75  H31        3.8410   27.1090   63.9440 H       1  UNL1        0.2100
@<TRIPOS>BOND
     1     1    47    1
     2     1     6    1
     3     1     2    1
     4     1     7    1
     5     2     3    1
     6     3     4    1
     7     3    12    1
     8     3     8    1
     9     4     9    1
    10     4     5    1
    11     4    45    1
    12     5     6    1
    13     5    72    1
    14     5    10    1
    15     6    11    1
    16     6    74    1
    17    12    13    1
    18    13    24   ar
    19    13    14   ar
    20    14    15   ar
    21    14    16   ar
    22    15    17   ar
    23    16    22   ar
    24    16    19   ar
    25    17    27    1
    26    17    18   ar
    27    18    19   ar
    28    18    20    1
    29    19    21    2
    30    22    23   ar
    31    22    43    1
    32    23    24   ar
    33    23    25    1
    34    24    26    1
    35    27    34   ar
    36    27    28   ar
    37    28    29   ar
    38    28    30    1
    39    29    31   ar
    40    29    32    1
    41    31    33   ar
    42    31    36    1
    43    33    41    1
    44    33    34   ar
    45    34    35    1
    46    36    37    1
    47    37    40    1
    48    37    38    1
    49    37    39    1
    50    41    42    1
    51    43    44    1
    52    45    46    1
    53    47    50    1
    54    47    48    1
    55    47    49    1
    56    50    51    1
    57    51    52    1
    58    51    58    1
    59    51    61    1
    60    52    53    1
    61    53    62    1
    62    53    54    1
    63    53    55    1
    64    54    66    1
    65    54    57    1
    66    54    56    1
    67    56    68    1
    68    56    59    1
    69    56    58    1
    70    58    70    1
    71    58    60    1
    72    62    63    1
    73    62    65    1
    74    62    64    1
    75    66    67    1
    76    68    69    1
    77    70    71    1
    78    72    73    1
    79    74    75    1
